MODEL 1
REMARK VINA RESULT:      -7.7      0.000      0.000
REMARK  Name = 
REMARK  10 active torsions:
REMARK  status: ('A' for Active; 'I' for Inactive)
REMARK    1  A    between atoms: C_1  and  C_2
REMARK    2  A    between atoms: C_2  and  C_3
REMARK    3  A    between atoms: C_3  and  C_4
REMARK    4  A    between atoms: N_6  and  C_7
REMARK    5  A    between atoms: C_9  and  C_10
REMARK    6  A    between atoms: N_12  and  C_13
REMARK    7  A    between atoms: C_13  and  C_14
REMARK    8  A    between atoms: C_13  and  C_15
REMARK    9  A    between atoms: C_15  and  C_16
REMARK   10  A    between atoms: C_24  and  C_25
REMARK                            x       y       z     vdW  Elec       q    Type
REMARK                         _______ _______ _______ _____ _____    ______ ____
ROOT
ATOM      1  C   UNL     1       1.286   9.101  20.123  0.00  0.00    +0.000 A 
ATOM      2  C   UNL     1       1.803   7.798  20.170  0.00  0.00    +0.000 A 
ATOM      3  C   UNL     1       2.395   7.211  19.049  0.00  0.00    +0.000 A 
ATOM      4  C   UNL     1       2.410   7.911  17.843  0.00  0.00    +0.000 A 
ATOM      5  C   UNL     1       1.839   9.184  17.763  0.00  0.00    +0.000 A 
ATOM      6  C   UNL     1       1.267   9.795  18.892  0.00  0.00    +0.000 A 
ATOM      7  C   UNL     1       0.681  11.172  18.740  0.00  0.00    +0.000 C 
ENDROOT
BRANCH   1  10
ATOM      8  C   UNL     1      -0.258   9.253  22.065  0.00  0.00    +0.000 C 
ATOM      9  O   UNL     1      -0.859   8.191  21.910  0.00  0.00    +0.000 OA
ATOM     10  N   UNL     1       0.789   9.726  21.290  0.00  0.00    +0.000 N 
ATOM     11  H   UNL     1       1.327  10.493  21.669  0.00  0.00    +0.000 HD
BRANCH   8  12
ATOM     12  C   UNL     1      -0.616  10.153  23.229  0.00  0.00    +0.000 C 
BRANCH  12  14
ATOM     13  C   UNL     1      -2.419  11.903  23.247  0.00  0.00    +0.000 C 
ATOM     14  C   UNL     1      -1.033  11.537  22.751  0.00  0.00    +0.000 C 
ENDBRANCH  12  14
ENDBRANCH   8  12
ENDBRANCH   1  10
BRANCH   3  15
ATOM     15  C   UNL     1       2.987   5.848  19.102  0.00  0.00    +0.000 C 
ATOM     16  O   UNL     1       3.770   5.565  20.008  0.00  0.00    +0.000 OA
ATOM     17  N   UNL     1       2.596   4.950  18.134  0.00  0.00    +0.000 N 
ATOM     18  H   UNL     1       1.840   5.192  17.504  0.00  0.00    +0.000 HD
BRANCH  17  19
ATOM     19  C   UNL     1       3.119   3.583  18.097  0.00  0.00    +0.000 C 
ATOM     20  C   UNL     1       1.986   2.574  18.288  0.00  0.00    +0.000 C 
BRANCH  19  21
ATOM     21  C   UNL     1       3.882   3.305  16.785  0.00  0.00    +0.000 C 
BRANCH  21  22
ATOM     22  C   UNL     1       5.095   4.189  16.607  0.00  0.00    +0.000 A 
ATOM     23  C   UNL     1       5.318   4.873  15.409  0.00  0.00    +0.000 A 
ATOM     24  C   UNL     1       6.480   5.618  15.273  0.00  0.00    +0.000 A 
ATOM     25  N   UNL     1       7.409   5.747  16.242  0.00  0.00    +0.000 NA
ATOM     26  C   UNL     1       7.166   5.094  17.400  0.00  0.00    +0.000 A 
ATOM     27  C   UNL     1       6.040   4.317  17.628  0.00  0.00    +0.000 A 
ENDBRANCH  21  22
ENDBRANCH  19  21
ENDBRANCH  17  19
ENDBRANCH   3  15
TORSDOF 7
ENDMDL
MODEL 2
REMARK VINA RESULT:      -7.3      2.383      7.644
REMARK  Name = 
REMARK  10 active torsions:
REMARK  status: ('A' for Active; 'I' for Inactive)
REMARK    1  A    between atoms: C_1  and  C_2
REMARK    2  A    between atoms: C_2  and  C_3
REMARK    3  A    between atoms: C_3  and  C_4
REMARK    4  A    between atoms: N_6  and  C_7
REMARK    5  A    between atoms: C_9  and  C_10
REMARK    6  A    between atoms: N_12  and  C_13
REMARK    7  A    between atoms: C_13  and  C_14
REMARK    8  A    between atoms: C_13  and  C_15
REMARK    9  A    between atoms: C_15  and  C_16
REMARK   10  A    between atoms: C_24  and  C_25
REMARK                            x       y       z     vdW  Elec       q    Type
REMARK                         _______ _______ _______ _____ _____    ______ ____
ROOT
ATOM      1  C   UNL     1       2.901   5.795  18.579  0.00  0.00    +0.000 A 
ATOM      2  C   UNL     1       2.233   7.027  18.625  0.00  0.00    +0.000 A 
ATOM      3  C   UNL     1       2.696   8.132  17.907  0.00  0.00    +0.000 A 
ATOM      4  C   UNL     1       3.885   8.024  17.185  0.00  0.00    +0.000 A 
ATOM      5  C   UNL     1       4.598   6.823  17.183  0.00  0.00    +0.000 A 
ATOM      6  C   UNL     1       4.125   5.697  17.879  0.00  0.00    +0.000 A 
ATOM      7  C   UNL     1       4.935   4.430  17.826  0.00  0.00    +0.000 C 
ENDROOT
BRANCH   1  10
ATOM      8  C   UNL     1       1.484   3.754  18.644  0.00  0.00    +0.000 C 
ATOM      9  O   UNL     1       1.096   3.758  17.477  0.00  0.00    +0.000 OA
ATOM     10  N   UNL     1       2.365   4.655  19.221  0.00  0.00    +0.000 N 
ATOM     11  H   UNL     1       2.764   4.396  20.113  0.00  0.00    +0.000 HD
BRANCH   8  12
ATOM     12  C   UNL     1       1.029   2.655  19.581  0.00  0.00    +0.000 C 
BRANCH  12  14
ATOM     13  C   UNL     1       2.488   2.498  21.621  0.00  0.00    +0.000 C 
ATOM     14  C   UNL     1       1.204   3.060  21.038  0.00  0.00    +0.000 C 
ENDBRANCH  12  14
ENDBRANCH   8  12
ENDBRANCH   1  10
BRANCH   3  15
ATOM     15  C   UNL     1       1.968   9.429  17.913  0.00  0.00    +0.000 C 
ATOM     16  O   UNL     1       2.525  10.434  17.474  0.00  0.00    +0.000 OA
ATOM     17  N   UNL     1       0.677   9.429  18.389  0.00  0.00    +0.000 N 
ATOM     18  H   UNL     1       0.222   8.547  18.599  0.00  0.00    +0.000 HD
BRANCH  17  19
ATOM     19  C   UNL     1      -0.126  10.652  18.437  0.00  0.00    +0.000 C 
ATOM     20  C   UNL     1      -1.613  10.309  18.538  0.00  0.00    +0.000 C 
BRANCH  19  21
ATOM     21  C   UNL     1       0.304  11.566  19.603  0.00  0.00    +0.000 C 
BRANCH  21  22
ATOM     22  C   UNL     1       0.051  10.950  20.960  0.00  0.00    +0.000 A 
ATOM     23  C   UNL     1      -0.944  11.452  21.805  0.00  0.00    +0.000 A 
ATOM     24  C   UNL     1      -1.092  10.896  23.066  0.00  0.00    +0.000 A 
ATOM     25  N   UNL     1      -0.345   9.872  23.529  0.00  0.00    +0.000 NA
ATOM     26  C   UNL     1       0.598   9.388  22.691  0.00  0.00    +0.000 A 
ATOM     27  C   UNL     1       0.829   9.883  21.417  0.00  0.00    +0.000 A 
ENDBRANCH  21  22
ENDBRANCH  19  21
ENDBRANCH  17  19
ENDBRANCH   3  15
TORSDOF 7
ENDMDL
MODEL 3
REMARK VINA RESULT:      -7.2      1.191      1.642
REMARK  Name = 
REMARK  10 active torsions:
REMARK  status: ('A' for Active; 'I' for Inactive)
REMARK    1  A    between atoms: C_1  and  C_2
REMARK    2  A    between atoms: C_2  and  C_3
REMARK    3  A    between atoms: C_3  and  C_4
REMARK    4  A    between atoms: N_6  and  C_7
REMARK    5  A    between atoms: C_9  and  C_10
REMARK    6  A    between atoms: N_12  and  C_13
REMARK    7  A    between atoms: C_13  and  C_14
REMARK    8  A    between atoms: C_13  and  C_15
REMARK    9  A    between atoms: C_15  and  C_16
REMARK   10  A    between atoms: C_24  and  C_25
REMARK                            x       y       z     vdW  Elec       q    Type
REMARK                         _______ _______ _______ _____ _____    ______ ____
ROOT
ATOM      1  C   UNL     1       0.837   8.916  19.847  0.00  0.00    +0.000 A 
ATOM      2  C   UNL     1       1.497   7.678  19.846  0.00  0.00    +0.000 A 
ATOM      3  C   UNL     1       2.452   7.365  18.877  0.00  0.00    +0.000 A 
ATOM      4  C   UNL     1       2.705   8.277  17.852  0.00  0.00    +0.000 A 
ATOM      5  C   UNL     1       2.009   9.486  17.801  0.00  0.00    +0.000 A 
ATOM      6  C   UNL     1       1.065   9.822  18.788  0.00  0.00    +0.000 A 
ATOM      7  C   UNL     1       0.359  11.147  18.680  0.00  0.00    +0.000 C 
ENDROOT
BRANCH   1  10
ATOM      8  C   UNL     1       0.336   9.731  22.141  0.00  0.00    +0.000 C 
ATOM      9  O   UNL     1       1.483   9.985  22.505  0.00  0.00    +0.000 OA
ATOM     10  N   UNL     1      -0.047   9.265  20.893  0.00  0.00    +0.000 N 
ATOM     11  H   UNL     1      -1.031   9.319  20.669  0.00  0.00    +0.000 HD
BRANCH   8  12
ATOM     12  C   UNL     1      -0.821   9.975  23.087  0.00  0.00    +0.000 C 
BRANCH  12  14
ATOM     13  C   UNL     1      -1.632  11.990  21.824  0.00  0.00    +0.000 C 
ATOM     14  C   UNL     1      -1.169  11.455  23.167  0.00  0.00    +0.000 C 
ENDBRANCH  12  14
ENDBRANCH   8  12
ENDBRANCH   1  10
BRANCH   3  15
ATOM     15  C   UNL     1       3.190   6.073  18.895  0.00  0.00    +0.000 C 
ATOM     16  O   UNL     1       3.759   5.719  19.926  0.00  0.00    +0.000 OA
ATOM     17  N   UNL     1       3.170   5.317  17.745  0.00  0.00    +0.000 N 
ATOM     18  H   UNL     1       2.565   5.589  16.978  0.00  0.00    +0.000 HD
BRANCH  17  19
ATOM     19  C   UNL     1       3.863   4.031  17.658  0.00  0.00    +0.000 C 
ATOM     20  C   UNL     1       2.922   2.954  17.117  0.00  0.00    +0.000 C 
BRANCH  19  21
ATOM     21  C   UNL     1       5.134   4.130  16.789  0.00  0.00    +0.000 C 
BRANCH  21  22
ATOM     22  C   UNL     1       6.161   5.087  17.351  0.00  0.00    +0.000 A 
ATOM     23  C   UNL     1       6.831   4.806  18.545  0.00  0.00    +0.000 A 
ATOM     24  C   UNL     1       7.714   5.746  19.052  0.00  0.00    +0.000 A 
ATOM     25  N   UNL     1       7.991   6.921  18.449  0.00  0.00    +0.000 NA
ATOM     26  C   UNL     1       7.348   7.166  17.287  0.00  0.00    +0.000 A 
ATOM     27  C   UNL     1       6.441   6.294  16.704  0.00  0.00    +0.000 A 
ENDBRANCH  21  22
ENDBRANCH  19  21
ENDBRANCH  17  19
ENDBRANCH   3  15
TORSDOF 7
ENDMDL
MODEL 4
REMARK VINA RESULT:      -7.2      0.543      1.096
REMARK  Name = 
REMARK  10 active torsions:
REMARK  status: ('A' for Active; 'I' for Inactive)
REMARK    1  A    between atoms: C_1  and  C_2
REMARK    2  A    between atoms: C_2  and  C_3
REMARK    3  A    between atoms: C_3  and  C_4
REMARK    4  A    between atoms: N_6  and  C_7
REMARK    5  A    between atoms: C_9  and  C_10
REMARK    6  A    between atoms: N_12  and  C_13
REMARK    7  A    between atoms: C_13  and  C_14
REMARK    8  A    between atoms: C_13  and  C_15
REMARK    9  A    between atoms: C_15  and  C_16
REMARK   10  A    between atoms: C_24  and  C_25
REMARK                            x       y       z     vdW  Elec       q    Type
REMARK                         _______ _______ _______ _____ _____    ______ ____
ROOT
ATOM      1  C   UNL     1       1.276   9.005  20.202  0.00  0.00    +0.000 A 
ATOM      2  C   UNL     1       1.643   7.659  20.339  0.00  0.00    +0.000 A 
ATOM      3  C   UNL     1       2.239   6.958  19.288  0.00  0.00    +0.000 A 
ATOM      4  C   UNL     1       2.410   7.593  18.058  0.00  0.00    +0.000 A 
ATOM      5  C   UNL     1       1.989   8.914  17.885  0.00  0.00    +0.000 A 
ATOM      6  C   UNL     1       1.414   9.636  18.945  0.00  0.00    +0.000 A 
ATOM      7  C   UNL     1       0.994  11.059  18.695  0.00  0.00    +0.000 C 
ENDROOT
BRANCH   1  10
ATOM      8  C   UNL     1      -0.254   9.321  22.135  0.00  0.00    +0.000 C 
ATOM      9  O   UNL     1      -0.832   8.236  22.097  0.00  0.00    +0.000 OA
ATOM     10  N   UNL     1       0.774   9.736  21.303  0.00  0.00    +0.000 N 
ATOM     11  H   UNL     1       1.297  10.550  21.595  0.00  0.00    +0.000 HD
BRANCH   8  12
ATOM     12  C   UNL     1      -0.624  10.329  23.204  0.00  0.00    +0.000 C 
BRANCH  12  14
ATOM     13  C   UNL     1      -1.137  12.783  23.039  0.00  0.00    +0.000 C 
ATOM     14  C   UNL     1      -1.583  11.381  22.665  0.00  0.00    +0.000 C 
ENDBRANCH  12  14
ENDBRANCH   8  12
ENDBRANCH   1  10
BRANCH   3  15
ATOM     15  C   UNL     1       2.674   5.543  19.439  0.00  0.00    +0.000 C 
ATOM     16  O   UNL     1       2.938   5.110  20.560  0.00  0.00    +0.000 OA
ATOM     17  N   UNL     1       2.728   4.773  18.300  0.00  0.00    +0.000 N 
ATOM     18  H   UNL     1       2.358   5.141  17.430  0.00  0.00    +0.000 HD
BRANCH  17  19
ATOM     19  C   UNL     1       3.142   3.369  18.339  0.00  0.00    +0.000 C 
ATOM     20  C   UNL     1       1.928   2.452  18.191  0.00  0.00    +0.000 C 
BRANCH  19  21
ATOM     21  C   UNL     1       4.195   3.059  17.255  0.00  0.00    +0.000 C 
BRANCH  21  22
ATOM     22  C   UNL     1       5.163   4.198  17.029  0.00  0.00    +0.000 A 
ATOM     23  C   UNL     1       6.108   4.544  18.000  0.00  0.00    +0.000 A 
ATOM     24  C   UNL     1       6.928   5.637  17.773  0.00  0.00    +0.000 A 
ATOM     25  N   UNL     1       6.892   6.386  16.650  0.00  0.00    +0.000 NA
ATOM     26  C   UNL     1       5.986   6.024  15.716  0.00  0.00    +0.000 A 
ATOM     27  C   UNL     1       5.116   4.953  15.854  0.00  0.00    +0.000 A 
ENDBRANCH  21  22
ENDBRANCH  19  21
ENDBRANCH  17  19
ENDBRANCH   3  15
TORSDOF 7
ENDMDL
MODEL 5
REMARK VINA RESULT:      -7.2      1.007      1.192
REMARK  Name = 
REMARK  10 active torsions:
REMARK  status: ('A' for Active; 'I' for Inactive)
REMARK    1  A    between atoms: C_1  and  C_2
REMARK    2  A    between atoms: C_2  and  C_3
REMARK    3  A    between atoms: C_3  and  C_4
REMARK    4  A    between atoms: N_6  and  C_7
REMARK    5  A    between atoms: C_9  and  C_10
REMARK    6  A    between atoms: N_12  and  C_13
REMARK    7  A    between atoms: C_13  and  C_14
REMARK    8  A    between atoms: C_13  and  C_15
REMARK    9  A    between atoms: C_15  and  C_16
REMARK   10  A    between atoms: C_24  and  C_25
REMARK                            x       y       z     vdW  Elec       q    Type
REMARK                         _______ _______ _______ _____ _____    ______ ____
ROOT
ATOM      1  C   UNL     1       0.828   8.967  20.160  0.00  0.00    +0.000 A 
ATOM      2  C   UNL     1       1.247   7.641  20.341  0.00  0.00    +0.000 A 
ATOM      3  C   UNL     1       2.176   7.050  19.481  0.00  0.00    +0.000 A 
ATOM      4  C   UNL     1       2.641   7.772  18.382  0.00  0.00    +0.000 A 
ATOM      5  C   UNL     1       2.181   9.071  18.150  0.00  0.00    +0.000 A 
ATOM      6  C   UNL     1       1.269   9.685  19.026  0.00  0.00    +0.000 A 
ATOM      7  C   UNL     1       0.824  11.090  18.725  0.00  0.00    +0.000 C 
ENDROOT
BRANCH   1  10
ATOM      8  C   UNL     1       0.257   9.771  22.442  0.00  0.00    +0.000 C 
ATOM      9  O   UNL     1       1.314   9.493  23.008  0.00  0.00    +0.000 OA
ATOM     10  N   UNL     1      -0.027   9.591  21.098  0.00  0.00    +0.000 N 
ATOM     11  H   UNL     1      -0.840  10.069  20.736  0.00  0.00    +0.000 HD
BRANCH   8  12
ATOM     12  C   UNL     1      -0.864  10.422  23.226  0.00  0.00    +0.000 C 
BRANCH  12  14
ATOM     13  C   UNL     1      -2.514  12.316  23.192  0.00  0.00    +0.000 C 
ATOM     14  C   UNL     1      -1.165  11.820  22.705  0.00  0.00    +0.000 C 
ENDBRANCH  12  14
ENDBRANCH   8  12
ENDBRANCH   1  10
BRANCH   3  15
ATOM     15  C   UNL     1       2.662   5.660  19.692  0.00  0.00    +0.000 C 
ATOM     16  O   UNL     1       2.499   5.124  20.787  0.00  0.00    +0.000 OA
ATOM     17  N   UNL     1       3.251   5.026  18.621  0.00  0.00    +0.000 N 
ATOM     18  H   UNL     1       3.225   5.462  17.706  0.00  0.00    +0.000 HD
BRANCH  17  19
ATOM     19  C   UNL     1       3.762   3.658  18.723  0.00  0.00    +0.000 C 
ATOM     20  C   UNL     1       3.310   2.830  17.520  0.00  0.00    +0.000 C 
BRANCH  19  21
ATOM     21  C   UNL     1       5.299   3.637  18.852  0.00  0.00    +0.000 C 
BRANCH  21  22
ATOM     22  C   UNL     1       5.985   4.604  17.915  0.00  0.00    +0.000 A 
ATOM     23  C   UNL     1       6.143   4.303  16.558  0.00  0.00    +0.000 A 
ATOM     24  C   UNL     1       6.837   5.192  15.754  0.00  0.00    +0.000 A 
ATOM     25  N   UNL     1       7.358   6.357  16.194  0.00  0.00    +0.000 NA
ATOM     26  C   UNL     1       7.179   6.639  17.503  0.00  0.00    +0.000 A 
ATOM     27  C   UNL     1       6.508   5.809  18.389  0.00  0.00    +0.000 A 
ENDBRANCH  21  22
ENDBRANCH  19  21
ENDBRANCH  17  19
ENDBRANCH   3  15
TORSDOF 7
ENDMDL
MODEL 6
REMARK VINA RESULT:      -7.0      1.947      8.765
REMARK  Name = 
REMARK  10 active torsions:
REMARK  status: ('A' for Active; 'I' for Inactive)
REMARK    1  A    between atoms: C_1  and  C_2
REMARK    2  A    between atoms: C_2  and  C_3
REMARK    3  A    between atoms: C_3  and  C_4
REMARK    4  A    between atoms: N_6  and  C_7
REMARK    5  A    between atoms: C_9  and  C_10
REMARK    6  A    between atoms: N_12  and  C_13
REMARK    7  A    between atoms: C_13  and  C_14
REMARK    8  A    between atoms: C_13  and  C_15
REMARK    9  A    between atoms: C_15  and  C_16
REMARK   10  A    between atoms: C_24  and  C_25
REMARK                            x       y       z     vdW  Elec       q    Type
REMARK                         _______ _______ _______ _____ _____    ______ ____
ROOT
ATOM      1  C   UNL     1       3.704   5.150  19.019  0.00  0.00    +0.000 A 
ATOM      2  C   UNL     1       3.206   6.431  19.294  0.00  0.00    +0.000 A 
ATOM      3  C   UNL     1       2.122   6.619  20.155  0.00  0.00    +0.000 A 
ATOM      4  C   UNL     1       1.482   5.504  20.696  0.00  0.00    +0.000 A 
ATOM      5  C   UNL     1       1.925   4.218  20.379  0.00  0.00    +0.000 A 
ATOM      6  C   UNL     1       3.033   4.019  19.536  0.00  0.00    +0.000 A 
ATOM      7  C   UNL     1       3.466   2.608  19.245  0.00  0.00    +0.000 C 
ENDROOT
BRANCH   1  10
ATOM      8  C   UNL     1       6.168   5.019  18.714  0.00  0.00    +0.000 C 
ATOM      9  O   UNL     1       6.509   5.132  19.890  0.00  0.00    +0.000 OA
ATOM     10  N   UNL     1       4.868   4.978  18.235  0.00  0.00    +0.000 N 
ATOM     11  H   UNL     1       4.742   4.657  17.285  0.00  0.00    +0.000 HD
BRANCH   8  12
ATOM     12  C   UNL     1       7.224   4.857  17.640  0.00  0.00    +0.000 C 
BRANCH  12  14
ATOM     13  C   UNL     1       7.584   7.337  17.455  0.00  0.00    +0.000 C 
ATOM     14  C   UNL     1       7.253   6.059  16.706  0.00  0.00    +0.000 C 
ENDBRANCH  12  14
ENDBRANCH   8  12
ENDBRANCH   1  10
BRANCH   3  15
ATOM     15  C   UNL     1       1.615   7.977  20.489  0.00  0.00    +0.000 C 
ATOM     16  O   UNL     1       1.406   8.269  21.665  0.00  0.00    +0.000 OA
ATOM     17  N   UNL     1       1.435   8.860  19.448  0.00  0.00    +0.000 N 
ATOM     18  H   UNL     1       1.763   8.612  18.521  0.00  0.00    +0.000 HD
BRANCH  17  19
ATOM     19  C   UNL     1       0.942  10.220  19.669  0.00  0.00    +0.000 C 
ATOM     20  C   UNL     1       1.453  11.157  18.574  0.00  0.00    +0.000 C 
BRANCH  19  21
ATOM     21  C   UNL     1      -0.599  10.258  19.743  0.00  0.00    +0.000 C 
BRANCH  21  22
ATOM     22  C   UNL     1      -1.118  11.286  20.723  0.00  0.00    +0.000 A 
ATOM     23  C   UNL     1      -0.808  11.205  22.083  0.00  0.00    +0.000 A 
ATOM     24  C   UNL     1      -1.364  12.134  22.950  0.00  0.00    +0.000 A 
ATOM     25  N   UNL     1      -2.175  13.138  22.558  0.00  0.00    +0.000 NA
ATOM     26  C   UNL     1      -2.447  13.210  21.237  0.00  0.00    +0.000 A 
ATOM     27  C   UNL     1      -1.949  12.324  20.294  0.00  0.00    +0.000 A 
ENDBRANCH  21  22
ENDBRANCH  19  21
ENDBRANCH  17  19
ENDBRANCH   3  15
TORSDOF 7
ENDMDL
MODEL 7
REMARK VINA RESULT:      -7.0      1.816      8.832
REMARK  Name = 
REMARK  10 active torsions:
REMARK  status: ('A' for Active; 'I' for Inactive)
REMARK    1  A    between atoms: C_1  and  C_2
REMARK    2  A    between atoms: C_2  and  C_3
REMARK    3  A    between atoms: C_3  and  C_4
REMARK    4  A    between atoms: N_6  and  C_7
REMARK    5  A    between atoms: C_9  and  C_10
REMARK    6  A    between atoms: N_12  and  C_13
REMARK    7  A    between atoms: C_13  and  C_14
REMARK    8  A    between atoms: C_13  and  C_15
REMARK    9  A    between atoms: C_15  and  C_16
REMARK   10  A    between atoms: C_24  and  C_25
REMARK                            x       y       z     vdW  Elec       q    Type
REMARK                         _______ _______ _______ _____ _____    ______ ____
ROOT
ATOM      1  C   UNL     1       3.586   4.774  18.490  0.00  0.00    +0.000 A 
ATOM      2  C   UNL     1       3.170   6.076  18.807  0.00  0.00    +0.000 A 
ATOM      3  C   UNL     1       2.244   6.313  19.825  0.00  0.00    +0.000 A 
ATOM      4  C   UNL     1       1.671   5.230  20.491  0.00  0.00    +0.000 A 
ATOM      5  C   UNL     1       2.025   3.925  20.141  0.00  0.00    +0.000 A 
ATOM      6  C   UNL     1       2.978   3.676  19.137  0.00  0.00    +0.000 A 
ATOM      7  C   UNL     1       3.323   2.247  18.818  0.00  0.00    +0.000 C 
ENDROOT
BRANCH   1  10
ATOM      8  C   UNL     1       5.964   4.591  17.792  0.00  0.00    +0.000 C 
ATOM      9  O   UNL     1       6.495   4.746  18.892  0.00  0.00    +0.000 OA
ATOM     10  N   UNL     1       4.603   4.552  17.534  0.00  0.00    +0.000 N 
ATOM     11  H   UNL     1       4.321   4.195  16.632  0.00  0.00    +0.000 HD
BRANCH   8  12
ATOM     12  C   UNL     1       6.829   4.369  16.569  0.00  0.00    +0.000 C 
BRANCH  12  14
ATOM     13  C   UNL     1       6.197   4.078  14.155  0.00  0.00    +0.000 C 
ATOM     14  C   UNL     1       6.226   5.029  15.337  0.00  0.00    +0.000 C 
ENDBRANCH  12  14
ENDBRANCH   8  12
ENDBRANCH   1  10
BRANCH   3  15
ATOM     15  C   UNL     1       1.832   7.693  20.200  0.00  0.00    +0.000 C 
ATOM     16  O   UNL     1       1.714   7.984  21.390  0.00  0.00    +0.000 OA
ATOM     17  N   UNL     1       1.632   8.594  19.179  0.00  0.00    +0.000 N 
ATOM     18  H   UNL     1       1.886   8.339  18.231  0.00  0.00    +0.000 HD
BRANCH  17  19
ATOM     19  C   UNL     1       1.226   9.976  19.441  0.00  0.00    +0.000 C 
ATOM     20  C   UNL     1       1.768  10.905  18.354  0.00  0.00    +0.000 C 
BRANCH  19  21
ATOM     21  C   UNL     1      -0.308  10.104  19.552  0.00  0.00    +0.000 C 
BRANCH  21  22
ATOM     22  C   UNL     1      -0.749  10.888  20.766  0.00  0.00    +0.000 A 
ATOM     23  C   UNL     1      -0.707  10.323  22.044  0.00  0.00    +0.000 A 
ATOM     24  C   UNL     1      -1.185  11.060  23.116  0.00  0.00    +0.000 A 
ATOM     25  N   UNL     1      -1.672  12.314  23.010  0.00  0.00    +0.000 NA
ATOM     26  C   UNL     1      -1.686  12.850  21.770  0.00  0.00    +0.000 A 
ATOM     27  C   UNL     1      -1.240  12.190  20.635  0.00  0.00    +0.000 A 
ENDBRANCH  21  22
ENDBRANCH  19  21
ENDBRANCH  17  19
ENDBRANCH   3  15
TORSDOF 7
ENDMDL
MODEL 8
REMARK VINA RESULT:      -7.0      2.677      8.655
REMARK  Name = 
REMARK  10 active torsions:
REMARK  status: ('A' for Active; 'I' for Inactive)
REMARK    1  A    between atoms: C_1  and  C_2
REMARK    2  A    between atoms: C_2  and  C_3
REMARK    3  A    between atoms: C_3  and  C_4
REMARK    4  A    between atoms: N_6  and  C_7
REMARK    5  A    between atoms: C_9  and  C_10
REMARK    6  A    between atoms: N_12  and  C_13
REMARK    7  A    between atoms: C_13  and  C_14
REMARK    8  A    between atoms: C_13  and  C_15
REMARK    9  A    between atoms: C_15  and  C_16
REMARK   10  A    between atoms: C_24  and  C_25
REMARK                            x       y       z     vdW  Elec       q    Type
REMARK                         _______ _______ _______ _____ _____    ______ ____
ROOT
ATOM      1  C   UNL     1       3.981   5.643  17.615  0.00  0.00    +0.000 A 
ATOM      2  C   UNL     1       3.340   6.880  17.449  0.00  0.00    +0.000 A 
ATOM      3  C   UNL     1       2.605   7.460  18.485  0.00  0.00    +0.000 A 
ATOM      4  C   UNL     1       2.450   6.763  19.684  0.00  0.00    +0.000 A 
ATOM      5  C   UNL     1       3.027   5.501  19.841  0.00  0.00    +0.000 A 
ATOM      6  C   UNL     1       3.793   4.920  18.814  0.00  0.00    +0.000 A 
ATOM      7  C   UNL     1       4.397   3.563  19.053  0.00  0.00    +0.000 C 
ENDROOT
BRANCH   1  10
ATOM      8  C   UNL     1       6.125   5.493  16.367  0.00  0.00    +0.000 C 
ATOM      9  O   UNL     1       6.791   6.276  17.043  0.00  0.00    +0.000 OA
ATOM     10  N   UNL     1       4.812   5.116  16.600  0.00  0.00    +0.000 N 
ATOM     11  H   UNL     1       4.476   4.304  16.102  0.00  0.00    +0.000 HD
BRANCH   8  12
ATOM     12  C   UNL     1       6.761   4.803  15.177  0.00  0.00    +0.000 C 
BRANCH  12  14
ATOM     13  C   UNL     1       6.325   3.691  12.967  0.00  0.00    +0.000 C 
ATOM     14  C   UNL     1       5.707   4.213  14.252  0.00  0.00    +0.000 C 
ENDBRANCH  12  14
ENDBRANCH   8  12
ENDBRANCH   1  10
BRANCH   3  15
ATOM     15  C   UNL     1       1.960   8.792  18.334  0.00  0.00    +0.000 C 
ATOM     16  O   UNL     1       2.113   9.421  17.288  0.00  0.00    +0.000 OA
ATOM     17  N   UNL     1       1.187   9.244  19.380  0.00  0.00    +0.000 N 
ATOM     18  H   UNL     1       0.978   8.620  20.152  0.00  0.00    +0.000 HD
BRANCH  17  19
ATOM     19  C   UNL     1       0.508  10.540  19.332  0.00  0.00    +0.000 C 
ATOM     20  C   UNL     1      -1.008  10.349  19.366  0.00  0.00    +0.000 C 
BRANCH  19  21
ATOM     21  C   UNL     1       0.968  11.462  20.481  0.00  0.00    +0.000 C 
BRANCH  21  22
ATOM     22  C   UNL     1       1.737  12.670  19.998  0.00  0.00    +0.000 A 
ATOM     23  C   UNL     1       1.962  13.764  20.838  0.00  0.00    +0.000 A 
ATOM     24  C   UNL     1       2.615  14.874  20.327  0.00  0.00    +0.000 A 
ATOM     25  N   UNL     1       3.075  14.961  19.061  0.00  0.00    +0.000 NA
ATOM     26  C   UNL     1       2.866  13.886  18.271  0.00  0.00    +0.000 A 
ATOM     27  C   UNL     1       2.215  12.734  18.686  0.00  0.00    +0.000 A 
ENDBRANCH  21  22
ENDBRANCH  19  21
ENDBRANCH  17  19
ENDBRANCH   3  15
TORSDOF 7
ENDMDL
MODEL 9
REMARK VINA RESULT:      -6.9      1.000      1.045
REMARK  Name = 
REMARK  10 active torsions:
REMARK  status: ('A' for Active; 'I' for Inactive)
REMARK    1  A    between atoms: C_1  and  C_2
REMARK    2  A    between atoms: C_2  and  C_3
REMARK    3  A    between atoms: C_3  and  C_4
REMARK    4  A    between atoms: N_6  and  C_7
REMARK    5  A    between atoms: C_9  and  C_10
REMARK    6  A    between atoms: N_12  and  C_13
REMARK    7  A    between atoms: C_13  and  C_14
REMARK    8  A    between atoms: C_13  and  C_15
REMARK    9  A    between atoms: C_15  and  C_16
REMARK   10  A    between atoms: C_24  and  C_25
REMARK                            x       y       z     vdW  Elec       q    Type
REMARK                         _______ _______ _______ _____ _____    ______ ____
ROOT
ATOM      1  C   UNL     1       1.236   9.208  20.087  0.00  0.00    +0.000 A 
ATOM      2  C   UNL     1       1.555   7.843  20.056  0.00  0.00    +0.000 A 
ATOM      3  C   UNL     1       2.171   7.267  18.942  0.00  0.00    +0.000 A 
ATOM      4  C   UNL     1       2.409   8.053  17.814  0.00  0.00    +0.000 A 
ATOM      5  C   UNL     1       2.037   9.399  17.805  0.00  0.00    +0.000 A 
ATOM      6  C   UNL     1       1.442   9.995  18.932  0.00  0.00    +0.000 A 
ATOM      7  C   UNL     1       1.076  11.452  18.860  0.00  0.00    +0.000 C 
ENDROOT
BRANCH   1  10
ATOM      8  C   UNL     1      -0.302   9.275  22.039  0.00  0.00    +0.000 C 
ATOM      9  O   UNL     1      -0.848   8.183  21.885  0.00  0.00    +0.000 OA
ATOM     10  N   UNL     1       0.714   9.804  21.258  0.00  0.00    +0.000 N 
ATOM     11  H   UNL     1       1.213  10.597  21.636  0.00  0.00    +0.000 HD
BRANCH   8  12
ATOM     12  C   UNL     1      -0.700  10.153  23.207  0.00  0.00    +0.000 C 
BRANCH  12  14
ATOM     13  C   UNL     1      -2.441  11.963  23.288  0.00  0.00    +0.000 C 
ATOM     14  C   UNL     1      -1.085  11.550  22.743  0.00  0.00    +0.000 C 
ENDBRANCH  12  14
ENDBRANCH   8  12
ENDBRANCH   1  10
BRANCH   3  15
ATOM     15  C   UNL     1       2.555   5.830  18.917  0.00  0.00    +0.000 C 
ATOM     16  O   UNL     1       1.931   5.052  18.198  0.00  0.00    +0.000 OA
ATOM     17  N   UNL     1       3.628   5.448  19.691  0.00  0.00    +0.000 N 
ATOM     18  H   UNL     1       4.193   6.157  20.146  0.00  0.00    +0.000 HD
BRANCH  17  19
ATOM     19  C   UNL     1       4.088   4.059  19.737  0.00  0.00    +0.000 C 
ATOM     20  C   UNL     1       3.067   3.184  20.465  0.00  0.00    +0.000 C 
BRANCH  19  21
ATOM     21  C   UNL     1       4.369   3.509  18.323  0.00  0.00    +0.000 C 
BRANCH  21  22
ATOM     22  C   UNL     1       5.343   4.359  17.541  0.00  0.00    +0.000 A 
ATOM     23  C   UNL     1       5.052   4.773  16.237  0.00  0.00    +0.000 A 
ATOM     24  C   UNL     1       6.007   5.495  15.538  0.00  0.00    +0.000 A 
ATOM     25  N   UNL     1       7.205   5.850  16.048  0.00  0.00    +0.000 NA
ATOM     26  C   UNL     1       7.459   5.457  17.315  0.00  0.00    +0.000 A 
ATOM     27  C   UNL     1       6.574   4.725  18.092  0.00  0.00    +0.000 A 
ENDBRANCH  21  22
ENDBRANCH  19  21
ENDBRANCH  17  19
ENDBRANCH   3  15
TORSDOF 7
ENDMDL
