MODEL 1
REMARK VINA RESULT:      -9.3      0.000      0.000
REMARK  Name = 
REMARK  6 active torsions:
REMARK  status: ('A' for Active; 'I' for Inactive)
REMARK    1  A    between atoms: C_1  and  N_2
REMARK    2  A    between atoms: N_5  and  C_6
REMARK    3  A    between atoms: C_6  and  C_7
REMARK    4  A    between atoms: C_10  and  C_11
REMARK    5  A    between atoms: C_15  and  N_16
REMARK    6  A    between atoms: N_16  and  C_17
REMARK                            x       y       z     vdW  Elec       q    Type
REMARK                         _______ _______ _______ _____ _____    ______ ____
ROOT
ATOM      1  C   UNL     1      -0.408  10.841  21.771  0.00  0.00    +0.000 A 
ATOM      2  C   UNL     1       0.113   9.791  22.537  0.00  0.00    +0.000 A 
ATOM      3  C   UNL     1       0.891   8.794  21.940  0.00  0.00    +0.000 A 
ATOM      4  C   UNL     1       1.155   8.811  20.555  0.00  0.00    +0.000 A 
ATOM      5  C   UNL     1       1.947   7.836  19.895  0.00  0.00    +0.000 A 
ATOM      6  C   UNL     1       2.179   7.974  18.526  0.00  0.00    +0.000 A 
ATOM      7  C   UNL     1       1.662   9.070  17.869  0.00  0.00    +0.000 A 
ATOM      8  N   UNL     1       0.891  10.002  18.465  0.00  0.00    +0.000 NA
ATOM      9  C   UNL     1       0.642   9.874  19.778  0.00  0.00    +0.000 A 
ATOM     10  C   UNL     1      -0.138  10.845  20.398  0.00  0.00    +0.000 A 
ENDROOT
BRANCH   1  14
ATOM     11  C   UNL     1      -2.842  12.806  23.485  0.00  0.00    +0.000 A 
ATOM     12  C   UNL     1      -1.860  13.773  23.489  0.00  0.00    +0.000 A 
ATOM     13  C   UNL     1      -0.776  13.247  22.745  0.00  0.00    +0.000 A 
ATOM     14  C   UNL     1      -1.121  11.954  22.399  0.00  0.00    +0.000 A 
ATOM     15  O   UNL     1      -2.399  11.701  22.818  0.00  0.00    +0.000 OA
BRANCH  11  16
ATOM     16  C   UNL     1      -4.232  12.755  24.033  0.00  0.00    +0.000 C 
BRANCH  16  21
ATOM     17  C   UNL     1      -7.916  11.210  21.300  0.00  0.00    +0.000 C 
ATOM     18  N   UNL     1      -7.237  12.382  21.837  0.00  0.00    +0.000 NA
ATOM     19  C   UNL     1      -5.856  12.482  21.332  0.00  0.00    +0.000 C 
ATOM     20  C   UNL     1      -5.094  13.688  21.931  0.00  0.00    +0.000 C 
ATOM     21  N   UNL     1      -5.106  13.767  23.413  0.00  0.00    +0.000 NA
ATOM     22  C   UNL     1      -6.508  13.628  23.864  0.00  0.00    +0.000 C 
ATOM     23  C   UNL     1      -7.243  12.384  23.309  0.00  0.00    +0.000 C 
ENDBRANCH  16  21
ENDBRANCH  11  16
ENDBRANCH   1  14
BRANCH   5  24
ATOM     24  N   UNL     1       2.410   6.679  20.590  0.00  0.00    +0.000 N 
ATOM     25  H   UNL     1       2.132   6.749  21.574  0.00  0.00    +0.000 HD
BRANCH  24  26
ATOM     26  C   UNL     1       2.251   5.335  20.140  0.00  0.00    +0.000 A 
ATOM     27  C   UNL     1       1.030   4.673  20.368  0.00  0.00    +0.000 A 
ATOM     28  C   UNL     1       0.890   3.319  20.063  0.00  0.00    +0.000 A 
ATOM     29  C   UNL     1       1.951   2.636  19.494  0.00  0.00    +0.000 A 
ATOM     30  F   UNL     1       1.830   1.325  19.246  0.00  0.00    +0.000 F 
ATOM     31  C   UNL     1       3.138   3.283  19.175  0.00  0.00    +0.000 A 
ATOM     32  C   UNL     1       3.285   4.635  19.492  0.00  0.00    +0.000 A 
ATOM     33 CL   UNL     1       4.777   5.417  19.112  0.00  0.00    +0.000 Cl
ENDBRANCH  24  26
ENDBRANCH   5  24
TORSDOF 5
ENDMDL
MODEL 2
REMARK VINA RESULT:      -9.2      0.803      1.475
REMARK  Name = 
REMARK  6 active torsions:
REMARK  status: ('A' for Active; 'I' for Inactive)
REMARK    1  A    between atoms: C_1  and  N_2
REMARK    2  A    between atoms: N_5  and  C_6
REMARK    3  A    between atoms: C_6  and  C_7
REMARK    4  A    between atoms: C_10  and  C_11
REMARK    5  A    between atoms: C_15  and  N_16
REMARK    6  A    between atoms: N_16  and  C_17
REMARK                            x       y       z     vdW  Elec       q    Type
REMARK                         _______ _______ _______ _____ _____    ______ ____
ROOT
ATOM      1  C   UNL     1      -0.521  10.875  21.873  0.00  0.00    +0.000 A 
ATOM      2  C   UNL     1      -0.014   9.823  22.645  0.00  0.00    +0.000 A 
ATOM      3  C   UNL     1       0.773   8.827  22.060  0.00  0.00    +0.000 A 
ATOM      4  C   UNL     1       1.061   8.846  20.679  0.00  0.00    +0.000 A 
ATOM      5  C   UNL     1       1.863   7.872  20.032  0.00  0.00    +0.000 A 
ATOM      6  C   UNL     1       2.120   8.013  18.666  0.00  0.00    +0.000 A 
ATOM      7  C   UNL     1       1.615   9.111  18.003  0.00  0.00    +0.000 A 
ATOM      8  N   UNL     1       0.835  10.042  18.588  0.00  0.00    +0.000 NA
ATOM      9  C   UNL     1       0.563   9.912  19.896  0.00  0.00    +0.000 A 
ATOM     10  C   UNL     1      -0.226  10.882  20.504  0.00  0.00    +0.000 A 
ENDROOT
BRANCH   1  14
ATOM     11  C   UNL     1      -2.941  12.823  23.625  0.00  0.00    +0.000 A 
ATOM     12  C   UNL     1      -1.996  13.823  23.544  0.00  0.00    +0.000 A 
ATOM     13  C   UNL     1      -0.930  13.305  22.769  0.00  0.00    +0.000 A 
ATOM     14  C   UNL     1      -1.243  11.988  22.491  0.00  0.00    +0.000 A 
ATOM     15  O   UNL     1      -2.490  11.708  22.980  0.00  0.00    +0.000 OA
BRANCH  11  16
ATOM     16  C   UNL     1      -4.301  12.747  24.241  0.00  0.00    +0.000 C 
BRANCH  16  21
ATOM     17  C   UNL     1      -7.692  16.070  23.297  0.00  0.00    +0.000 C 
ATOM     18  N   UNL     1      -7.202  14.737  22.971  0.00  0.00    +0.000 NA
ATOM     19  C   UNL     1      -7.268  13.840  24.139  0.00  0.00    +0.000 C 
ATOM     20  C   UNL     1      -6.703  12.432  23.834  0.00  0.00    +0.000 C 
ATOM     21  N   UNL     1      -5.339  12.415  23.248  0.00  0.00    +0.000 NA
ATOM     22  C   UNL     1      -5.323  13.354  22.106  0.00  0.00    +0.000 C 
ATOM     23  C   UNL     1      -5.832  14.778  22.436  0.00  0.00    +0.000 C 
ENDBRANCH  16  21
ENDBRANCH  11  16
ENDBRANCH   1  14
BRANCH   5  24
ATOM     24  N   UNL     1       2.314   6.713  20.732  0.00  0.00    +0.000 N 
ATOM     25  H   UNL     1       1.971   6.754  21.696  0.00  0.00    +0.000 HD
BRANCH  24  26
ATOM     26  C   UNL     1       2.221   5.376  20.246  0.00  0.00    +0.000 A 
ATOM     27  C   UNL     1       1.020   4.662  20.416  0.00  0.00    +0.000 A 
ATOM     28  C   UNL     1       0.942   3.312  20.075  0.00  0.00    +0.000 A 
ATOM     29  C   UNL     1       2.047   2.683  19.528  0.00  0.00    +0.000 A 
ATOM     30  F   UNL     1       1.985   1.375  19.246  0.00  0.00    +0.000 F 
ATOM     31  C   UNL     1       3.219   3.382  19.265  0.00  0.00    +0.000 A 
ATOM     32  C   UNL     1       3.303   4.731  19.618  0.00  0.00    +0.000 A 
ATOM     33 CL   UNL     1       4.775   5.577  19.307  0.00  0.00    +0.000 Cl
ENDBRANCH  24  26
ENDBRANCH   5  24
TORSDOF 5
ENDMDL
MODEL 3
REMARK VINA RESULT:      -8.9      4.449     10.074
REMARK  Name = 
REMARK  6 active torsions:
REMARK  status: ('A' for Active; 'I' for Inactive)
REMARK    1  A    between atoms: C_1  and  N_2
REMARK    2  A    between atoms: N_5  and  C_6
REMARK    3  A    between atoms: C_6  and  C_7
REMARK    4  A    between atoms: C_10  and  C_11
REMARK    5  A    between atoms: C_15  and  N_16
REMARK    6  A    between atoms: N_16  and  C_17
REMARK                            x       y       z     vdW  Elec       q    Type
REMARK                         _______ _______ _______ _____ _____    ______ ____
ROOT
ATOM      1  C   UNL     1       2.168   8.015  18.597  0.00  0.00    +0.000 A 
ATOM      2  C   UNL     1       1.625   9.043  17.818  0.00  0.00    +0.000 A 
ATOM      3  C   UNL     1       0.805  10.017  18.396  0.00  0.00    +0.000 A 
ATOM      4  C   UNL     1       0.491   9.979  19.770  0.00  0.00    +0.000 A 
ATOM      5  C   UNL     1      -0.323  10.945  20.416  0.00  0.00    +0.000 A 
ATOM      6  C   UNL     1      -0.534  10.834  21.791  0.00  0.00    +0.000 A 
ATOM      7  C   UNL     1       0.084   9.812  22.481  0.00  0.00    +0.000 A 
ATOM      8  N   UNL     1       0.847   8.870  21.891  0.00  0.00    +0.000 NA
ATOM      9  C   UNL     1       1.045   8.951  20.566  0.00  0.00    +0.000 A 
ATOM     10  C   UNL     1       1.848   7.990  19.960  0.00  0.00    +0.000 A 
ENDROOT
BRANCH   1  14
ATOM     11  C   UNL     1       3.673   5.056  17.294  0.00  0.00    +0.000 A 
ATOM     12  C   UNL     1       4.708   5.897  16.948  0.00  0.00    +0.000 A 
ATOM     13  C   UNL     1       4.380   7.172  17.471  0.00  0.00    +0.000 A 
ATOM     14  C   UNL     1       3.123   7.060  18.033  0.00  0.00    +0.000 A 
ATOM     15  O   UNL     1       2.710   5.758  17.959  0.00  0.00    +0.000 OA
BRANCH  11  16
ATOM     16  C   UNL     1       3.433   3.594  17.098  0.00  0.00    +0.000 C 
BRANCH  16  21
ATOM     17  C   UNL     1       1.323   2.796  21.381  0.00  0.00    +0.000 C 
ATOM     18  N   UNL     1       2.499   2.533  20.561  0.00  0.00    +0.000 NA
ATOM     19  C   UNL     1       3.226   3.777  20.249  0.00  0.00    +0.000 C 
ATOM     20  C   UNL     1       4.449   3.531  19.333  0.00  0.00    +0.000 C 
ATOM     21  N   UNL     1       4.160   2.778  18.087  0.00  0.00    +0.000 NA
ATOM     22  C   UNL     1       3.403   1.562  18.456  0.00  0.00    +0.000 C 
ATOM     23  C   UNL     1       2.146   1.824  19.320  0.00  0.00    +0.000 C 
ENDBRANCH  16  21
ENDBRANCH  11  16
ENDBRANCH   1  14
BRANCH   5  24
ATOM     24  N   UNL     1      -1.002  11.950  19.663  0.00  0.00    +0.000 N 
ATOM     25  H   UNL     1      -0.368  12.309  18.943  0.00  0.00    +0.000 HD
BRANCH  24  26
ATOM     26  C   UNL     1      -2.317  11.823  19.127  0.00  0.00    +0.000 A 
ATOM     27  C   UNL     1      -2.493  11.203  17.875  0.00  0.00    +0.000 A 
ATOM     28  C   UNL     1      -3.747  11.185  17.263  0.00  0.00    +0.000 A 
ATOM     29  C   UNL     1      -4.831  11.747  17.915  0.00  0.00    +0.000 A 
ATOM     30  F   UNL     1      -6.023  11.771  17.304  0.00  0.00    +0.000 F 
ATOM     31  C   UNL     1      -4.707  12.287  19.189  0.00  0.00    +0.000 A 
ATOM     32  C   UNL     1      -3.450  12.318  19.798  0.00  0.00    +0.000 A 
ATOM     33 CL   UNL     1      -3.309  13.015  21.371  0.00  0.00    +0.000 Cl
ENDBRANCH  24  26
ENDBRANCH   5  24
TORSDOF 5
ENDMDL
MODEL 4
REMARK VINA RESULT:      -8.8      4.193     10.089
REMARK  Name = 
REMARK  6 active torsions:
REMARK  status: ('A' for Active; 'I' for Inactive)
REMARK    1  A    between atoms: C_1  and  N_2
REMARK    2  A    between atoms: N_5  and  C_6
REMARK    3  A    between atoms: C_6  and  C_7
REMARK    4  A    between atoms: C_10  and  C_11
REMARK    5  A    between atoms: C_15  and  N_16
REMARK    6  A    between atoms: N_16  and  C_17
REMARK                            x       y       z     vdW  Elec       q    Type
REMARK                         _______ _______ _______ _____ _____    ______ ____
ROOT
ATOM      1  C   UNL     1       2.222   8.031  18.591  0.00  0.00    +0.000 A 
ATOM      2  C   UNL     1       1.732   9.101  17.834  0.00  0.00    +0.000 A 
ATOM      3  C   UNL     1       0.929  10.082  18.426  0.00  0.00    +0.000 A 
ATOM      4  C   UNL     1       0.580  10.009  19.790  0.00  0.00    +0.000 A 
ATOM      5  C   UNL     1      -0.219  10.978  20.448  0.00  0.00    +0.000 A 
ATOM      6  C   UNL     1      -0.468  10.829  21.814  0.00  0.00    +0.000 A 
ATOM      7  C   UNL     1       0.100   9.765  22.482  0.00  0.00    +0.000 A 
ATOM      8  N   UNL     1       0.847   8.819  21.880  0.00  0.00    +0.000 NA
ATOM      9  C   UNL     1       1.081   8.937  20.563  0.00  0.00    +0.000 A 
ATOM     10  C   UNL     1       1.867   7.971  19.944  0.00  0.00    +0.000 A 
ENDROOT
BRANCH   1  14
ATOM     11  C   UNL     1       3.679   5.052  17.278  0.00  0.00    +0.000 A 
ATOM     12  C   UNL     1       4.719   5.882  16.917  0.00  0.00    +0.000 A 
ATOM     13  C   UNL     1       4.411   7.161  17.440  0.00  0.00    +0.000 A 
ATOM     14  C   UNL     1       3.159   7.064  18.018  0.00  0.00    +0.000 A 
ATOM     15  O   UNL     1       2.732   5.766  17.953  0.00  0.00    +0.000 OA
BRANCH  11  16
ATOM     16  C   UNL     1       3.422   3.592  17.089  0.00  0.00    +0.000 C 
BRANCH  16  21
ATOM     17  C   UNL     1       1.336   2.785  21.382  0.00  0.00    +0.000 C 
ATOM     18  N   UNL     1       2.506   2.522  20.554  0.00  0.00    +0.000 NA
ATOM     19  C   UNL     1       3.234   3.765  20.242  0.00  0.00    +0.000 C 
ATOM     20  C   UNL     1       4.451   3.519  19.318  0.00  0.00    +0.000 C 
ATOM     21  N   UNL     1       4.153   2.771  18.071  0.00  0.00    +0.000 NA
ATOM     22  C   UNL     1       3.395   1.556  18.440  0.00  0.00    +0.000 C 
ATOM     23  C   UNL     1       2.144   1.818  19.314  0.00  0.00    +0.000 C 
ENDBRANCH  16  21
ENDBRANCH  11  16
ENDBRANCH   1  14
BRANCH   5  24
ATOM     24  N   UNL     1      -0.846  12.029  19.714  0.00  0.00    +0.000 N 
ATOM     25  H   UNL     1      -0.389  12.115  18.801  0.00  0.00    +0.000 HD
BRANCH  24  26
ATOM     26  C   UNL     1      -2.254  12.195  19.563  0.00  0.00    +0.000 A 
ATOM     27  C   UNL     1      -2.958  12.983  20.492  0.00  0.00    +0.000 A 
ATOM     28  C   UNL     1      -4.351  13.055  20.451  0.00  0.00    +0.000 A 
ATOM     29  C   UNL     1      -5.039  12.374  19.461  0.00  0.00    +0.000 A 
ATOM     30  F   UNL     1      -6.378  12.405  19.452  0.00  0.00    +0.000 F 
ATOM     31  C   UNL     1      -4.367  11.660  18.476  0.00  0.00    +0.000 A 
ATOM     32  C   UNL     1      -2.974  11.577  18.524  0.00  0.00    +0.000 A 
ATOM     33 CL   UNL     1      -2.157  10.664  17.306  0.00  0.00    +0.000 Cl
ENDBRANCH  24  26
ENDBRANCH   5  24
TORSDOF 5
ENDMDL
MODEL 5
REMARK VINA RESULT:      -8.8      1.408      1.753
REMARK  Name = 
REMARK  6 active torsions:
REMARK  status: ('A' for Active; 'I' for Inactive)
REMARK    1  A    between atoms: C_1  and  N_2
REMARK    2  A    between atoms: N_5  and  C_6
REMARK    3  A    between atoms: C_6  and  C_7
REMARK    4  A    between atoms: C_10  and  C_11
REMARK    5  A    between atoms: C_15  and  N_16
REMARK    6  A    between atoms: N_16  and  C_17
REMARK                            x       y       z     vdW  Elec       q    Type
REMARK                         _______ _______ _______ _____ _____    ______ ____
ROOT
ATOM      1  C   UNL     1      -0.378  10.327  21.280  0.00  0.00    +0.000 A 
ATOM      2  C   UNL     1       0.073   9.266  22.074  0.00  0.00    +0.000 A 
ATOM      3  C   UNL     1       0.950   8.310  21.552  0.00  0.00    +0.000 A 
ATOM      4  C   UNL     1       1.388   8.381  20.214  0.00  0.00    +0.000 A 
ATOM      5  C   UNL     1       2.286   7.450  19.632  0.00  0.00    +0.000 A 
ATOM      6  C   UNL     1       2.687   7.640  18.309  0.00  0.00    +0.000 A 
ATOM      7  C   UNL     1       2.225   8.744  17.624  0.00  0.00    +0.000 A 
ATOM      8  N   UNL     1       1.357   9.634  18.144  0.00  0.00    +0.000 NA
ATOM      9  C   UNL     1       0.946   9.456  19.410  0.00  0.00    +0.000 A 
ATOM     10  C   UNL     1       0.065  10.384  19.953  0.00  0.00    +0.000 A 
ENDROOT
BRANCH   1  14
ATOM     11  C   UNL     1      -2.748  12.961  21.684  0.00  0.00    +0.000 A 
ATOM     12  C   UNL     1      -2.476  12.817  23.028  0.00  0.00    +0.000 A 
ATOM     13  C   UNL     1      -1.443  11.854  23.126  0.00  0.00    +0.000 A 
ATOM     14  C   UNL     1      -1.198  11.400  21.844  0.00  0.00    +0.000 A 
ATOM     15  O   UNL     1      -1.969  12.106  20.961  0.00  0.00    +0.000 OA
BRANCH  11  16
ATOM     16  C   UNL     1      -3.678  13.845  20.917  0.00  0.00    +0.000 C 
BRANCH  16  21
ATOM     17  C   UNL     1      -7.171  12.674  17.777  0.00  0.00    +0.000 C 
ATOM     18  N   UNL     1      -6.874  13.004  19.165  0.00  0.00    +0.000 NA
ATOM     19  C   UNL     1      -6.339  14.372  19.289  0.00  0.00    +0.000 C 
ATOM     20  C   UNL     1      -5.963  14.729  20.747  0.00  0.00    +0.000 C 
ATOM     21  N   UNL     1      -5.061  13.761  21.420  0.00  0.00    +0.000 NA
ATOM     22  C   UNL     1      -5.628  12.406  21.234  0.00  0.00    +0.000 C 
ATOM     23  C   UNL     1      -5.942  12.036  19.764  0.00  0.00    +0.000 C 
ENDBRANCH  16  21
ENDBRANCH  11  16
ENDBRANCH   1  14
BRANCH   5  24
ATOM     24  N   UNL     1       2.692   6.282  20.346  0.00  0.00    +0.000 N 
ATOM     25  H   UNL     1       2.170   6.233  21.226  0.00  0.00    +0.000 HD
BRANCH  24  26
ATOM     26  C   UNL     1       2.808   4.978  19.782  0.00  0.00    +0.000 A 
ATOM     27  C   UNL     1       1.664   4.164  19.687  0.00  0.00    +0.000 A 
ATOM     28  C   UNL     1       1.769   2.837  19.267  0.00  0.00    +0.000 A 
ATOM     29  C   UNL     1       3.007   2.334  18.905  0.00  0.00    +0.000 A 
ATOM     30  F   UNL     1       3.113   1.047  18.549  0.00  0.00    +0.000 F 
ATOM     31  C   UNL     1       4.140   3.137  18.903  0.00  0.00    +0.000 A 
ATOM     32  C   UNL     1       4.039   4.462  19.336  0.00  0.00    +0.000 A 
ATOM     33 CL   UNL     1       5.463   5.439  19.351  0.00  0.00    +0.000 Cl
ENDBRANCH  24  26
ENDBRANCH   5  24
TORSDOF 5
ENDMDL
MODEL 6
REMARK VINA RESULT:      -8.7      4.287      6.353
REMARK  Name = 
REMARK  6 active torsions:
REMARK  status: ('A' for Active; 'I' for Inactive)
REMARK    1  A    between atoms: C_1  and  N_2
REMARK    2  A    between atoms: N_5  and  C_6
REMARK    3  A    between atoms: C_6  and  C_7
REMARK    4  A    between atoms: C_10  and  C_11
REMARK    5  A    between atoms: C_15  and  N_16
REMARK    6  A    between atoms: N_16  and  C_17
REMARK                            x       y       z     vdW  Elec       q    Type
REMARK                         _______ _______ _______ _____ _____    ______ ____
ROOT
ATOM      1  C   UNL     1       1.640   7.245  20.461  0.00  0.00    +0.000 A 
ATOM      2  C   UNL     1       2.603   7.433  19.462  0.00  0.00    +0.000 A 
ATOM      3  C   UNL     1       3.250   6.336  18.883  0.00  0.00    +0.000 A 
ATOM      4  C   UNL     1       2.962   5.020  19.300  0.00  0.00    +0.000 A 
ATOM      5  C   UNL     1       3.575   3.869  18.742  0.00  0.00    +0.000 A 
ATOM      6  C   UNL     1       3.184   2.610  19.202  0.00  0.00    +0.000 A 
ATOM      7  C   UNL     1       2.191   2.527  20.155  0.00  0.00    +0.000 A 
ATOM      8  N   UNL     1       1.604   3.604  20.716  0.00  0.00    +0.000 NA
ATOM      9  C   UNL     1       1.983   4.822  20.299  0.00  0.00    +0.000 A 
ATOM     10  C   UNL     1       1.365   5.933  20.864  0.00  0.00    +0.000 A 
ENDROOT
BRANCH   1  14
ATOM     11  C   UNL     1       0.288  10.498  21.015  0.00  0.00    +0.000 A 
ATOM     12  C   UNL     1      -0.609   9.839  21.828  0.00  0.00    +0.000 A 
ATOM     13  C   UNL     1      -0.203   8.483  21.856  0.00  0.00    +0.000 A 
ATOM     14  C   UNL     1       0.869   8.370  20.990  0.00  0.00    +0.000 A 
ATOM     15  O   UNL     1       1.191   9.610  20.508  0.00  0.00    +0.000 OA
BRANCH  11  16
ATOM     16  C   UNL     1       0.451  11.931  20.622  0.00  0.00    +0.000 C 
BRANCH  16  21
ATOM     17  C   UNL     1       1.427  16.362  18.934  0.00  0.00    +0.000 C 
ATOM     18  N   UNL     1       1.272  14.957  18.581  0.00  0.00    +0.000 NA
ATOM     19  C   UNL     1      -0.101  14.486  18.839  0.00  0.00    +0.000 C 
ATOM     20  C   UNL     1      -0.277  12.981  18.524  0.00  0.00    +0.000 C 
ATOM     21  N   UNL     1       0.706  12.082  19.178  0.00  0.00    +0.000 NA
ATOM     22  C   UNL     1       2.059  12.620  18.915  0.00  0.00    +0.000 C 
ATOM     23  C   UNL     1       2.243  14.110  19.291  0.00  0.00    +0.000 C 
ENDBRANCH  16  21
ENDBRANCH  11  16
ENDBRANCH   1  14
BRANCH   5  24
ATOM     24  N   UNL     1       4.646   3.992  17.807  0.00  0.00    +0.000 N 
ATOM     25  H   UNL     1       4.255   4.085  16.865  0.00  0.00    +0.000 HD
BRANCH  24  26
ATOM     26  C   UNL     1       5.763   4.866  17.951  0.00  0.00    +0.000 A 
ATOM     27  C   UNL     1       6.508   4.840  19.145  0.00  0.00    +0.000 A 
ATOM     28  C   UNL     1       7.520   5.774  19.370  0.00  0.00    +0.000 A 
ATOM     29  C   UNL     1       7.816   6.707  18.391  0.00  0.00    +0.000 A 
ATOM     30  F   UNL     1       8.755   7.632  18.629  0.00  0.00    +0.000 F 
ATOM     31  C   UNL     1       7.159   6.701  17.167  0.00  0.00    +0.000 A 
ATOM     32  C   UNL     1       6.137   5.776  16.945  0.00  0.00    +0.000 A 
ATOM     33 CL   UNL     1       5.314   5.800  15.427  0.00  0.00    +0.000 Cl
ENDBRANCH  24  26
ENDBRANCH   5  24
TORSDOF 5
ENDMDL
MODEL 7
REMARK VINA RESULT:      -8.6      4.098      5.983
REMARK  Name = 
REMARK  6 active torsions:
REMARK  status: ('A' for Active; 'I' for Inactive)
REMARK    1  A    between atoms: C_1  and  N_2
REMARK    2  A    between atoms: N_5  and  C_6
REMARK    3  A    between atoms: C_6  and  C_7
REMARK    4  A    between atoms: C_10  and  C_11
REMARK    5  A    between atoms: C_15  and  N_16
REMARK    6  A    between atoms: N_16  and  C_17
REMARK                            x       y       z     vdW  Elec       q    Type
REMARK                         _______ _______ _______ _____ _____    ______ ____
ROOT
ATOM      1  C   UNL     1       1.414   7.742  20.696  0.00  0.00    +0.000 A 
ATOM      2  C   UNL     1       2.317   7.974  19.652  0.00  0.00    +0.000 A 
ATOM      3  C   UNL     1       2.904   6.905  18.967  0.00  0.00    +0.000 A 
ATOM      4  C   UNL     1       2.615   5.571  19.321  0.00  0.00    +0.000 A 
ATOM      5  C   UNL     1       3.168   4.446  18.657  0.00  0.00    +0.000 A 
ATOM      6  C   UNL     1       2.779   3.168  19.063  0.00  0.00    +0.000 A 
ATOM      7  C   UNL     1       1.846   3.043  20.070  0.00  0.00    +0.000 A 
ATOM      8  N   UNL     1       1.319   4.093  20.732  0.00  0.00    +0.000 NA
ATOM      9  C   UNL     1       1.696   5.328  20.367  0.00  0.00    +0.000 A 
ATOM     10  C   UNL     1       1.138   6.412  21.036  0.00  0.00    +0.000 A 
ENDROOT
BRANCH   1  14
ATOM     11  C   UNL     1      -0.003  10.934  21.415  0.00  0.00    +0.000 A 
ATOM     12  C   UNL     1      -0.656  10.265  22.428  0.00  0.00    +0.000 A 
ATOM     13  C   UNL     1      -0.163   8.938  22.415  0.00  0.00    +0.000 A 
ATOM     14  C   UNL     1       0.702   8.845  21.340  0.00  0.00    +0.000 A 
ATOM     15  O   UNL     1       0.828  10.076  20.755  0.00  0.00    +0.000 OA
BRANCH  11  16
ATOM     16  C   UNL     1      -0.026  12.353  20.944  0.00  0.00    +0.000 C 
BRANCH  16  21
ATOM     17  C   UNL     1       1.223  16.468  18.721  0.00  0.00    +0.000 C 
ATOM     18  N   UNL     1       1.500  15.588  19.849  0.00  0.00    +0.000 NA
ATOM     19  C   UNL     1       1.964  14.264  19.396  0.00  0.00    +0.000 C 
ATOM     20  C   UNL     1       2.213  13.291  20.574  0.00  0.00    +0.000 C 
ATOM     21  N   UNL     1       1.078  13.143  21.518  0.00  0.00    +0.000 NA
ATOM     22  C   UNL     1       0.633  14.498  21.912  0.00  0.00    +0.000 C 
ATOM     23  C   UNL     1       0.327  15.444  20.726  0.00  0.00    +0.000 C 
ENDBRANCH  16  21
ENDBRANCH  11  16
ENDBRANCH   1  14
BRANCH   5  24
ATOM     24  N   UNL     1       4.181   4.608  17.664  0.00  0.00    +0.000 N 
ATOM     25  H   UNL     1       3.745   4.931  16.796  0.00  0.00    +0.000 HD
BRANCH  24  26
ATOM     26  C   UNL     1       5.420   5.285  17.862  0.00  0.00    +0.000 A 
ATOM     27  C   UNL     1       6.215   4.955  18.975  0.00  0.00    +0.000 A 
ATOM     28  C   UNL     1       7.363   5.692  19.270  0.00  0.00    +0.000 A 
ATOM     29  C   UNL     1       7.740   6.729  18.434  0.00  0.00    +0.000 A 
ATOM     30  F   UNL     1       8.815   7.465  18.746  0.00  0.00    +0.000 F 
ATOM     31  C   UNL     1       7.025   7.022  17.279  0.00  0.00    +0.000 A 
ATOM     32  C   UNL     1       5.868   6.295  16.990  0.00  0.00    +0.000 A 
ATOM     33 CL   UNL     1       4.977   6.689  15.564  0.00  0.00    +0.000 Cl
ENDBRANCH  24  26
ENDBRANCH   5  24
TORSDOF 5
ENDMDL
MODEL 8
REMARK VINA RESULT:      -8.6      3.740      5.951
REMARK  Name = 
REMARK  6 active torsions:
REMARK  status: ('A' for Active; 'I' for Inactive)
REMARK    1  A    between atoms: C_1  and  N_2
REMARK    2  A    between atoms: N_5  and  C_6
REMARK    3  A    between atoms: C_6  and  C_7
REMARK    4  A    between atoms: C_10  and  C_11
REMARK    5  A    between atoms: C_15  and  N_16
REMARK    6  A    between atoms: N_16  and  C_17
REMARK                            x       y       z     vdW  Elec       q    Type
REMARK                         _______ _______ _______ _____ _____    ______ ____
ROOT
ATOM      1  C   UNL     1       2.440   7.423  18.289  0.00  0.00    +0.000 A 
ATOM      2  C   UNL     1       3.721   7.246  17.751  0.00  0.00    +0.000 A 
ATOM      3  C   UNL     1       4.206   5.963  17.479  0.00  0.00    +0.000 A 
ATOM      4  C   UNL     1       3.429   4.819  17.755  0.00  0.00    +0.000 A 
ATOM      5  C   UNL     1       3.861   3.494  17.490  0.00  0.00    +0.000 A 
ATOM      6  C   UNL     1       2.991   2.436  17.763  0.00  0.00    +0.000 A 
ATOM      7  C   UNL     1       1.731   2.717  18.246  0.00  0.00    +0.000 A 
ATOM      8  N   UNL     1       1.300   3.964  18.526  0.00  0.00    +0.000 NA
ATOM      9  C   UNL     1       2.130   4.991  18.287  0.00  0.00    +0.000 A 
ATOM     10  C   UNL     1       1.680   6.279  18.557  0.00  0.00    +0.000 A 
ENDROOT
BRANCH   1  14
ATOM     11  C   UNL     1       0.614  10.219  19.539  0.00  0.00    +0.000 A 
ATOM     12  C   UNL     1       1.354  10.939  18.627  0.00  0.00    +0.000 A 
ATOM     13  C   UNL     1       2.121   9.996  17.900  0.00  0.00    +0.000 A 
ATOM     14  C   UNL     1       1.872   8.760  18.465  0.00  0.00    +0.000 A 
ATOM     15  O   UNL     1       0.921   8.894  19.440  0.00  0.00    +0.000 OA
BRANCH  11  16
ATOM     16  C   UNL     1      -0.419  10.603  20.550  0.00  0.00    +0.000 C 
BRANCH  16  21
ATOM     17  C   UNL     1      -4.461  12.760  22.112  0.00  0.00    +0.000 C 
ATOM     18  N   UNL     1      -3.047  12.946  21.813  0.00  0.00    +0.000 NA
ATOM     19  C   UNL     1      -2.765  12.718  20.384  0.00  0.00    +0.000 C 
ATOM     20  C   UNL     1      -1.260  12.856  20.051  0.00  0.00    +0.000 C 
ATOM     21  N   UNL     1      -0.352  12.035  20.891  0.00  0.00    +0.000 NA
ATOM     22  C   UNL     1      -0.702  12.277  22.308  0.00  0.00    +0.000 C 
ATOM     23  C   UNL     1      -2.199  12.076  22.644  0.00  0.00    +0.000 C 
ENDBRANCH  16  21
ENDBRANCH  11  16
ENDBRANCH   1  14
BRANCH   5  24
ATOM     24  N   UNL     1       5.194   3.234  17.053  0.00  0.00    +0.000 N 
ATOM     25  H   UNL     1       5.346   2.221  17.039  0.00  0.00    +0.000 HD
BRANCH  24  26
ATOM     26  C   UNL     1       5.815   3.829  15.916  0.00  0.00    +0.000 A 
ATOM     27  C   UNL     1       5.236   3.653  14.645  0.00  0.00    +0.000 A 
ATOM     28  C   UNL     1       5.889   4.107  13.498  0.00  0.00    +0.000 A 
ATOM     29  C   UNL     1       7.098   4.770  13.622  0.00  0.00    +0.000 A 
ATOM     30  F   UNL     1       7.747   5.162  12.517  0.00  0.00    +0.000 F 
ATOM     31  C   UNL     1       7.652   5.037  14.868  0.00  0.00    +0.000 A 
ATOM     32  C   UNL     1       7.005   4.572  16.015  0.00  0.00    +0.000 A 
ATOM     33 CL   UNL     1       7.720   4.892  17.555  0.00  0.00    +0.000 Cl
ENDBRANCH  24  26
ENDBRANCH   5  24
TORSDOF 5
ENDMDL
MODEL 9
REMARK VINA RESULT:      -8.6      1.698      2.193
REMARK  Name = 
REMARK  6 active torsions:
REMARK  status: ('A' for Active; 'I' for Inactive)
REMARK    1  A    between atoms: C_1  and  N_2
REMARK    2  A    between atoms: N_5  and  C_6
REMARK    3  A    between atoms: C_6  and  C_7
REMARK    4  A    between atoms: C_10  and  C_11
REMARK    5  A    between atoms: C_15  and  N_16
REMARK    6  A    between atoms: N_16  and  C_17
REMARK                            x       y       z     vdW  Elec       q    Type
REMARK                         _______ _______ _______ _____ _____    ______ ____
ROOT
ATOM      1  C   UNL     1      -0.310  10.296  21.249  0.00  0.00    +0.000 A 
ATOM      2  C   UNL     1       0.187   9.265  22.055  0.00  0.00    +0.000 A 
ATOM      3  C   UNL     1       1.069   8.314  21.530  0.00  0.00    +0.000 A 
ATOM      4  C   UNL     1       1.465   8.360  20.177  0.00  0.00    +0.000 A 
ATOM      5  C   UNL     1       2.364   7.433  19.592  0.00  0.00    +0.000 A 
ATOM      6  C   UNL     1       2.721   7.598  18.252  0.00  0.00    +0.000 A 
ATOM      7  C   UNL     1       2.215   8.674  17.555  0.00  0.00    +0.000 A 
ATOM      8  N   UNL     1       1.344   9.560  18.079  0.00  0.00    +0.000 NA
ATOM      9  C   UNL     1       0.976   9.405  19.361  0.00  0.00    +0.000 A 
ATOM     10  C   UNL     1       0.092  10.329  19.908  0.00  0.00    +0.000 A 
ENDROOT
BRANCH   1  14
ATOM     11  C   UNL     1      -2.701  12.911  21.652  0.00  0.00    +0.000 A 
ATOM     12  C   UNL     1      -2.416  12.780  22.995  0.00  0.00    +0.000 A 
ATOM     13  C   UNL     1      -1.373  11.828  23.092  0.00  0.00    +0.000 A 
ATOM     14  C   UNL     1      -1.135  11.365  21.812  0.00  0.00    +0.000 A 
ATOM     15  O   UNL     1      -1.920  12.057  20.929  0.00  0.00    +0.000 OA
BRANCH  11  16
ATOM     16  C   UNL     1      -3.645  13.780  20.886  0.00  0.00    +0.000 C 
BRANCH  16  21
ATOM     17  C   UNL     1      -7.245  12.714  17.830  0.00  0.00    +0.000 C 
ATOM     18  N   UNL     1      -6.904  13.022  19.213  0.00  0.00    +0.000 NA
ATOM     19  C   UNL     1      -6.338  14.378  19.338  0.00  0.00    +0.000 C 
ATOM     20  C   UNL     1      -5.917  14.710  20.789  0.00  0.00    +0.000 C 
ATOM     21  N   UNL     1      -5.015  13.716  21.425  0.00  0.00    +0.000 NA
ATOM     22  C   UNL     1      -5.614  12.376  21.240  0.00  0.00    +0.000 C 
ATOM     23  C   UNL     1      -5.975  12.029  19.776  0.00  0.00    +0.000 C 
ENDBRANCH  16  21
ENDBRANCH  11  16
ENDBRANCH   1  14
BRANCH   5  24
ATOM     24  N   UNL     1       2.816   6.292  20.321  0.00  0.00    +0.000 N 
ATOM     25  H   UNL     1       2.221   6.169  21.145  0.00  0.00    +0.000 HD
BRANCH  24  26
ATOM     26  C   UNL     1       3.115   5.021  19.749  0.00  0.00    +0.000 A 
ATOM     27  C   UNL     1       4.394   4.793  19.207  0.00  0.00    +0.000 A 
ATOM     28  C   UNL     1       4.674   3.611  18.521  0.00  0.00    +0.000 A 
ATOM     29  C   UNL     1       3.693   2.640  18.411  0.00  0.00    +0.000 A 
ATOM     30  F   UNL     1       3.948   1.526  17.711  0.00  0.00    +0.000 F 
ATOM     31  C   UNL     1       2.450   2.797  19.012  0.00  0.00    +0.000 A 
ATOM     32  C   UNL     1       2.164   3.986  19.687  0.00  0.00    +0.000 A 
ATOM     33 CL   UNL     1       0.606   4.175  20.406  0.00  0.00    +0.000 Cl
ENDBRANCH  24  26
ENDBRANCH   5  24
TORSDOF 5
ENDMDL
