MODEL 1
REMARK VINA RESULT:      -7.5      0.000      0.000
REMARK  Name = 
REMARK  10 active torsions:
REMARK  status: ('A' for Active; 'I' for Inactive)
REMARK    1  A    between atoms: C_1  and  C_2
REMARK    2  A    between atoms: C_2  and  C_3
REMARK    3  A    between atoms: C_3  and  C_4
REMARK    4  A    between atoms: C_4  and  C_5
REMARK    5  A    between atoms: C_5  and  C_6
REMARK    6  A    between atoms: C_6  and  C_7
REMARK    7  A    between atoms: C_7  and  C_8
REMARK    8  A    between atoms: C_8  and  N_9
REMARK    9  A    between atoms: C_11  and  C_12
REMARK   10  A    between atoms: C_12  and  O_14
REMARK                            x       y       z     vdW  Elec       q    Type
REMARK                         _______ _______ _______ _____ _____    ______ ____
ROOT
ATOM      1  N   UNL     1       5.600   4.785  16.115  0.00  0.00    +0.000 N 
ATOM      2  C   UNL     1       6.455   5.818  16.469  0.00  0.00    +0.000 A 
ATOM      3  C   UNL     1       6.842   6.132  17.712  0.00  0.00    +0.000 A 
ATOM      4  C   UNL     1       6.327   5.286  18.804  0.00  0.00    +0.000 A 
ATOM      5  O   UNL     1       6.713   5.472  19.958  0.00  0.00    +0.000 OA
ATOM      6  C   UNL     1       5.333   4.238  18.475  0.00  0.00    +0.000 A 
ATOM      7  C   UNL     1       4.762   3.496  19.518  0.00  0.00    +0.000 A 
ATOM      8  C   UNL     1       3.809   2.522  19.239  0.00  0.00    +0.000 A 
ATOM      9  C   UNL     1       3.427   2.294  17.921  0.00  0.00    +0.000 A 
ATOM     10  C   UNL     1       4.004   3.033  16.882  0.00  0.00    +0.000 A 
ATOM     11  C   UNL     1       4.978   4.016  17.128  0.00  0.00    +0.000 A 
ENDROOT
BRANCH   3  12
ATOM     12  C   UNL     1       7.755   7.275  17.922  0.00  0.00    +0.000 C 
ATOM     13  O   UNL     1       7.798   8.248  17.181  0.00  0.00    +0.000 OA
BRANCH  12  14
ATOM     14  O   UNL     1       8.540   7.169  19.016  0.00  0.00    +0.000 OA
ATOM     15  H   UNL     1       8.205   6.524  19.686  0.00  0.00    +0.000 HD
ENDBRANCH  12  14
ENDBRANCH   3  12
BRANCH   1  16
ATOM     16  C   UNL     1       5.375   4.437  14.706  0.00  0.00    +0.000 C 
BRANCH  16  17
ATOM     17  C   UNL     1       6.646   4.642  13.876  0.00  0.00    +0.000 C 
BRANCH  17  18
ATOM     18  C   UNL     1       6.550   3.981  12.498  0.00  0.00    +0.000 C 
BRANCH  18  19
ATOM     19  C   UNL     1       5.648   2.748  12.515  0.00  0.00    +0.000 C 
BRANCH  19  20
ATOM     20  C   UNL     1       4.891   2.576  11.206  0.00  0.00    +0.000 C 
BRANCH  20  21
ATOM     21  C   UNL     1       3.994   3.788  10.960  0.00  0.00    +0.000 C 
BRANCH  21  23
ATOM     22  C   UNL     1       2.507   4.758   9.188  0.00  0.00    +0.000 C 
ATOM     23  C   UNL     1       2.947   3.489   9.895  0.00  0.00    +0.000 C 
ENDBRANCH  21  23
ENDBRANCH  20  21
ENDBRANCH  19  20
ENDBRANCH  18  19
ENDBRANCH  17  18
ENDBRANCH  16  17
ENDBRANCH   1  16
TORSDOF 9
ENDMDL
MODEL 2
REMARK VINA RESULT:      -7.5      3.378      6.252
REMARK  Name = 
REMARK  10 active torsions:
REMARK  status: ('A' for Active; 'I' for Inactive)
REMARK    1  A    between atoms: C_1  and  C_2
REMARK    2  A    between atoms: C_2  and  C_3
REMARK    3  A    between atoms: C_3  and  C_4
REMARK    4  A    between atoms: C_4  and  C_5
REMARK    5  A    between atoms: C_5  and  C_6
REMARK    6  A    between atoms: C_6  and  C_7
REMARK    7  A    between atoms: C_7  and  C_8
REMARK    8  A    between atoms: C_8  and  N_9
REMARK    9  A    between atoms: C_11  and  C_12
REMARK   10  A    between atoms: C_12  and  O_14
REMARK                            x       y       z     vdW  Elec       q    Type
REMARK                         _______ _______ _______ _____ _____    ______ ____
ROOT
ATOM      1  N   UNL     1       4.739   4.392  18.214  0.00  0.00    +0.000 N 
ATOM      2  C   UNL     1       5.543   4.158  17.109  0.00  0.00    +0.000 A 
ATOM      3  C   UNL     1       5.756   5.006  16.093  0.00  0.00    +0.000 A 
ATOM      4  C   UNL     1       5.088   6.318  16.171  0.00  0.00    +0.000 A 
ATOM      5  O   UNL     1       5.311   7.171  15.311  0.00  0.00    +0.000 OA
ATOM      6  C   UNL     1       4.143   6.564  17.284  0.00  0.00    +0.000 A 
ATOM      7  C   UNL     1       3.428   7.770  17.310  0.00  0.00    +0.000 A 
ATOM      8  C   UNL     1       2.517   8.016  18.333  0.00  0.00    +0.000 A 
ATOM      9  C   UNL     1       2.321   7.058  19.322  0.00  0.00    +0.000 A 
ATOM     10  C   UNL     1       3.041   5.859  19.295  0.00  0.00    +0.000 A 
ATOM     11  C   UNL     1       3.978   5.583  18.284  0.00  0.00    +0.000 A 
ENDROOT
BRANCH   3  12
ATOM     12  C   UNL     1       6.638   4.599  14.979  0.00  0.00    +0.000 C 
ATOM     13  O   UNL     1       7.615   5.245  14.624  0.00  0.00    +0.000 OA
BRANCH  12  14
ATOM     14  O   UNL     1       6.286   3.440  14.383  0.00  0.00    +0.000 OA
ATOM     15  H   UNL     1       7.048   2.939  14.002  0.00  0.00    +0.000 HD
ENDBRANCH  12  14
ENDBRANCH   3  12
BRANCH   1  16
ATOM     16  C   UNL     1       4.711   3.452  19.341  0.00  0.00    +0.000 C 
BRANCH  16  17
ATOM     17  C   UNL     1       4.321   2.045  18.879  0.00  0.00    +0.000 C 
BRANCH  17  18
ATOM     18  C   UNL     1       3.075   2.052  17.989  0.00  0.00    +0.000 C 
BRANCH  18  19
ATOM     19  C   UNL     1       1.796   1.815  18.790  0.00  0.00    +0.000 C 
BRANCH  19  20
ATOM     20  C   UNL     1       0.855   3.010  18.733  0.00  0.00    +0.000 C 
BRANCH  20  21
ATOM     21  C   UNL     1       0.548   3.498  20.148  0.00  0.00    +0.000 C 
BRANCH  21  23
ATOM     22  C   UNL     1       2.314   3.569  21.928  0.00  0.00    +0.000 C 
ATOM     23  C   UNL     1       1.320   2.694  21.186  0.00  0.00    +0.000 C 
ENDBRANCH  21  23
ENDBRANCH  20  21
ENDBRANCH  19  20
ENDBRANCH  18  19
ENDBRANCH  17  18
ENDBRANCH  16  17
ENDBRANCH   1  16
TORSDOF 9
ENDMDL
MODEL 3
REMARK VINA RESULT:      -7.2      2.669      3.926
REMARK  Name = 
REMARK  10 active torsions:
REMARK  status: ('A' for Active; 'I' for Inactive)
REMARK    1  A    between atoms: C_1  and  C_2
REMARK    2  A    between atoms: C_2  and  C_3
REMARK    3  A    between atoms: C_3  and  C_4
REMARK    4  A    between atoms: C_4  and  C_5
REMARK    5  A    between atoms: C_5  and  C_6
REMARK    6  A    between atoms: C_6  and  C_7
REMARK    7  A    between atoms: C_7  and  C_8
REMARK    8  A    between atoms: C_8  and  N_9
REMARK    9  A    between atoms: C_11  and  C_12
REMARK   10  A    between atoms: C_12  and  O_14
REMARK                            x       y       z     vdW  Elec       q    Type
REMARK                         _______ _______ _______ _____ _____    ______ ____
ROOT
ATOM      1  N   UNL     1       5.058   4.924  17.464  0.00  0.00    +0.000 N 
ATOM      2  C   UNL     1       5.162   3.716  18.138  0.00  0.00    +0.000 A 
ATOM      3  C   UNL     1       4.394   3.311  19.157  0.00  0.00    +0.000 A 
ATOM      4  C   UNL     1       3.322   4.227  19.588  0.00  0.00    +0.000 A 
ATOM      5  O   UNL     1       2.530   3.876  20.463  0.00  0.00    +0.000 OA
ATOM      6  C   UNL     1       3.245   5.567  18.961  0.00  0.00    +0.000 A 
ATOM      7  C   UNL     1       2.294   6.481  19.434  0.00  0.00    +0.000 A 
ATOM      8  C   UNL     1       2.216   7.754  18.878  0.00  0.00    +0.000 A 
ATOM      9  C   UNL     1       3.087   8.110  17.854  0.00  0.00    +0.000 A 
ATOM     10  C   UNL     1       4.031   7.191  17.381  0.00  0.00    +0.000 A 
ATOM     11  C   UNL     1       4.129   5.894  17.912  0.00  0.00    +0.000 A 
ENDROOT
BRANCH   3  12
ATOM     12  C   UNL     1       4.642   1.991  19.776  0.00  0.00    +0.000 C 
ATOM     13  O   UNL     1       4.985   1.848  20.942  0.00  0.00    +0.000 OA
BRANCH  12  14
ATOM     14  O   UNL     1       4.447   0.942  18.949  0.00  0.00    +0.000 OA
ATOM     15  H   UNL     1       4.605   0.064  19.375  0.00  0.00    +0.000 HD
ENDBRANCH  12  14
ENDBRANCH   3  12
BRANCH   1  16
ATOM     16  C   UNL     1       5.852   5.189  16.259  0.00  0.00    +0.000 C 
BRANCH  16  17
ATOM     17  C   UNL     1       5.865   3.974  15.326  0.00  0.00    +0.000 C 
BRANCH  17  18
ATOM     18  C   UNL     1       5.491   4.344  13.888  0.00  0.00    +0.000 C 
BRANCH  18  19
ATOM     19  C   UNL     1       6.311   3.562  12.863  0.00  0.00    +0.000 C 
BRANCH  19  20
ATOM     20  C   UNL     1       5.434   2.702  11.964  0.00  0.00    +0.000 C 
BRANCH  20  21
ATOM     21  C   UNL     1       4.127   3.431  11.660  0.00  0.00    +0.000 C 
BRANCH  21  23
ATOM     22  C   UNL     1       2.834   4.375   9.729  0.00  0.00    +0.000 C 
ATOM     23  C   UNL     1       3.713   3.234  10.208  0.00  0.00    +0.000 C 
ENDBRANCH  21  23
ENDBRANCH  20  21
ENDBRANCH  19  20
ENDBRANCH  18  19
ENDBRANCH  17  18
ENDBRANCH  16  17
ENDBRANCH   1  16
TORSDOF 9
ENDMDL
MODEL 4
REMARK VINA RESULT:      -7.1      2.186      3.843
REMARK  Name = 
REMARK  10 active torsions:
REMARK  status: ('A' for Active; 'I' for Inactive)
REMARK    1  A    between atoms: C_1  and  C_2
REMARK    2  A    between atoms: C_2  and  C_3
REMARK    3  A    between atoms: C_3  and  C_4
REMARK    4  A    between atoms: C_4  and  C_5
REMARK    5  A    between atoms: C_5  and  C_6
REMARK    6  A    between atoms: C_6  and  C_7
REMARK    7  A    between atoms: C_7  and  C_8
REMARK    8  A    between atoms: C_8  and  N_9
REMARK    9  A    between atoms: C_11  and  C_12
REMARK   10  A    between atoms: C_12  and  O_14
REMARK                            x       y       z     vdW  Elec       q    Type
REMARK                         _______ _______ _______ _____ _____    ______ ____
ROOT
ATOM      1  N   UNL     1       5.022   4.540  16.130  0.00  0.00    +0.000 N 
ATOM      2  C   UNL     1       3.874   3.833  16.454  0.00  0.00    +0.000 A 
ATOM      3  C   UNL     1       3.402   3.617  17.689  0.00  0.00    +0.000 A 
ATOM      4  C   UNL     1       4.164   4.206  18.806  0.00  0.00    +0.000 A 
ATOM      5  O   UNL     1       3.735   4.114  19.956  0.00  0.00    +0.000 OA
ATOM      6  C   UNL     1       5.448   4.880  18.505  0.00  0.00    +0.000 A 
ATOM      7  C   UNL     1       6.228   5.353  19.569  0.00  0.00    +0.000 A 
ATOM      8  C   UNL     1       7.449   5.970  19.315  0.00  0.00    +0.000 A 
ATOM      9  C   UNL     1       7.888   6.109  18.003  0.00  0.00    +0.000 A 
ATOM     10  C   UNL     1       7.103   5.640  16.944  0.00  0.00    +0.000 A 
ATOM     11  C   UNL     1       5.860   5.023  17.164  0.00  0.00    +0.000 A 
ENDROOT
BRANCH   3  12
ATOM     12  C   UNL     1       2.163   2.831  17.867  0.00  0.00    +0.000 C 
ATOM     13  O   UNL     1       1.045   3.328  17.876  0.00  0.00    +0.000 OA
BRANCH  12  14
ATOM     14  O   UNL     1       2.361   1.502  18.008  0.00  0.00    +0.000 OA
ATOM     15  H   UNL     1       1.526   0.983  18.107  0.00  0.00    +0.000 HD
ENDBRANCH  12  14
ENDBRANCH   3  12
BRANCH   1  16
ATOM     16  C   UNL     1       5.352   4.847  14.733  0.00  0.00    +0.000 C 
BRANCH  16  17
ATOM     17  C   UNL     1       6.264   3.775  14.130  0.00  0.00    +0.000 C 
BRANCH  17  18
ATOM     18  C   UNL     1       6.686   4.111  12.697  0.00  0.00    +0.000 C 
BRANCH  18  19
ATOM     19  C   UNL     1       6.379   2.971  11.727  0.00  0.00    +0.000 C 
BRANCH  19  20
ATOM     20  C   UNL     1       4.886   2.694  11.624  0.00  0.00    +0.000 C 
BRANCH  20  21
ATOM     21  C   UNL     1       4.176   3.893  10.997  0.00  0.00    +0.000 C 
BRANCH  21  23
ATOM     22  C   UNL     1       2.511   4.625   9.269  0.00  0.00    +0.000 C 
ATOM     23  C   UNL     1       3.096   3.443  10.023  0.00  0.00    +0.000 C 
ENDBRANCH  21  23
ENDBRANCH  20  21
ENDBRANCH  19  20
ENDBRANCH  18  19
ENDBRANCH  17  18
ENDBRANCH  16  17
ENDBRANCH   1  16
TORSDOF 9
ENDMDL
MODEL 5
REMARK VINA RESULT:      -7.1      3.094      4.193
REMARK  Name = 
REMARK  10 active torsions:
REMARK  status: ('A' for Active; 'I' for Inactive)
REMARK    1  A    between atoms: C_1  and  C_2
REMARK    2  A    between atoms: C_2  and  C_3
REMARK    3  A    between atoms: C_3  and  C_4
REMARK    4  A    between atoms: C_4  and  C_5
REMARK    5  A    between atoms: C_5  and  C_6
REMARK    6  A    between atoms: C_6  and  C_7
REMARK    7  A    between atoms: C_7  and  C_8
REMARK    8  A    between atoms: C_8  and  N_9
REMARK    9  A    between atoms: C_11  and  C_12
REMARK   10  A    between atoms: C_12  and  O_14
REMARK                            x       y       z     vdW  Elec       q    Type
REMARK                         _______ _______ _______ _____ _____    ______ ____
ROOT
ATOM      1  N   UNL     1       3.668   6.057  17.691  0.00  0.00    +0.000 N 
ATOM      2  C   UNL     1       3.089   7.068  18.444  0.00  0.00    +0.000 A 
ATOM      3  C   UNL     1       2.285   6.903  19.502  0.00  0.00    +0.000 A 
ATOM      4  C   UNL     1       2.007   5.516  19.917  0.00  0.00    +0.000 A 
ATOM      5  O   UNL     1       1.344   5.300  20.932  0.00  0.00    +0.000 OA
ATOM      6  C   UNL     1       2.525   4.411  19.077  0.00  0.00    +0.000 A 
ATOM      7  C   UNL     1       2.182   3.092  19.407  0.00  0.00    +0.000 A 
ATOM      8  C   UNL     1       2.636   2.038  18.622  0.00  0.00    +0.000 A 
ATOM      9  C   UNL     1       3.427   2.302  17.510  0.00  0.00    +0.000 A 
ATOM     10  C   UNL     1       3.773   3.620  17.187  0.00  0.00    +0.000 A 
ATOM     11  C   UNL     1       3.341   4.707  17.966  0.00  0.00    +0.000 A 
ENDROOT
BRANCH   3  12
ATOM     12  C   UNL     1       1.739   8.090  20.193  0.00  0.00    +0.000 C 
ATOM     13  O   UNL     1       1.243   9.042  19.606  0.00  0.00    +0.000 OA
BRANCH  12  14
ATOM     14  O   UNL     1       1.820   8.038  21.540  0.00  0.00    +0.000 OA
ATOM     15  H   UNL     1       2.185   8.861  21.949  0.00  0.00    +0.000 HD
ENDBRANCH  12  14
ENDBRANCH   3  12
BRANCH   1  16
ATOM     16  C   UNL     1       4.661   6.361  16.653  0.00  0.00    +0.000 C 
BRANCH  16  17
ATOM     17  C   UNL     1       6.012   6.732  17.270  0.00  0.00    +0.000 C 
BRANCH  17  18
ATOM     18  C   UNL     1       7.189   6.157  16.478  0.00  0.00    +0.000 C 
BRANCH  18  19
ATOM     19  C   UNL     1       6.889   4.760  15.938  0.00  0.00    +0.000 C 
BRANCH  19  20
ATOM     20  C   UNL     1       6.861   4.729  14.416  0.00  0.00    +0.000 C 
BRANCH  20  21
ATOM     21  C   UNL     1       5.808   3.731  13.936  0.00  0.00    +0.000 C 
BRANCH  21  23
ATOM     22  C   UNL     1       4.695   3.415  11.710  0.00  0.00    +0.000 C 
ATOM     23  C   UNL     1       6.011   3.385  12.466  0.00  0.00    +0.000 C 
ENDBRANCH  21  23
ENDBRANCH  20  21
ENDBRANCH  19  20
ENDBRANCH  18  19
ENDBRANCH  17  18
ENDBRANCH  16  17
ENDBRANCH   1  16
TORSDOF 9
ENDMDL
MODEL 6
REMARK VINA RESULT:      -7.0      5.474      6.715
REMARK  Name = 
REMARK  10 active torsions:
REMARK  status: ('A' for Active; 'I' for Inactive)
REMARK    1  A    between atoms: C_1  and  C_2
REMARK    2  A    between atoms: C_2  and  C_3
REMARK    3  A    between atoms: C_3  and  C_4
REMARK    4  A    between atoms: C_4  and  C_5
REMARK    5  A    between atoms: C_5  and  C_6
REMARK    6  A    between atoms: C_6  and  C_7
REMARK    7  A    between atoms: C_7  and  C_8
REMARK    8  A    between atoms: C_8  and  N_9
REMARK    9  A    between atoms: C_11  and  C_12
REMARK   10  A    between atoms: C_12  and  O_14
REMARK                            x       y       z     vdW  Elec       q    Type
REMARK                         _______ _______ _______ _____ _____    ______ ____
ROOT
ATOM      1  N   UNL     1       2.791   6.443  18.923  0.00  0.00    +0.000 N 
ATOM      2  C   UNL     1       3.752   6.607  17.937  0.00  0.00    +0.000 A 
ATOM      3  C   UNL     1       4.302   5.633  17.200  0.00  0.00    +0.000 A 
ATOM      4  C   UNL     1       3.825   4.260  17.448  0.00  0.00    +0.000 A 
ATOM      5  O   UNL     1       4.231   3.334  16.746  0.00  0.00    +0.000 OA
ATOM      6  C   UNL     1       2.875   4.034  18.562  0.00  0.00    +0.000 A 
ATOM      7  C   UNL     1       2.494   2.720  18.870  0.00  0.00    +0.000 A 
ATOM      8  C   UNL     1       1.621   2.479  19.926  0.00  0.00    +0.000 A 
ATOM      9  C   UNL     1       1.135   3.547  20.672  0.00  0.00    +0.000 A 
ATOM     10  C   UNL     1       1.514   4.857  20.358  0.00  0.00    +0.000 A 
ATOM     11  C   UNL     1       2.384   5.137  19.290  0.00  0.00    +0.000 A 
ENDROOT
BRANCH   3  12
ATOM     12  C   UNL     1       5.326   5.975  16.190  0.00  0.00    +0.000 C 
ATOM     13  O   UNL     1       5.161   6.825  15.326  0.00  0.00    +0.000 OA
BRANCH  12  14
ATOM     14  O   UNL     1       6.476   5.276  16.303  0.00  0.00    +0.000 OA
ATOM     15  H   UNL     1       6.379   4.424  16.794  0.00  0.00    +0.000 HD
ENDBRANCH  12  14
ENDBRANCH   3  12
BRANCH   1  16
ATOM     16  C   UNL     1       2.146   7.602  19.552  0.00  0.00    +0.000 C 
BRANCH  16  17
ATOM     17  C   UNL     1       1.794   8.671  18.513  0.00  0.00    +0.000 C 
BRANCH  17  18
ATOM     18  C   UNL     1       0.782   9.687  19.047  0.00  0.00    +0.000 C 
BRANCH  18  19
ATOM     19  C   UNL     1      -0.156  10.191  17.952  0.00  0.00    +0.000 C 
BRANCH  19  20
ATOM     20  C   UNL     1      -1.601  10.264  18.425  0.00  0.00    +0.000 C 
BRANCH  20  21
ATOM     21  C   UNL     1      -2.538   9.799  17.311  0.00  0.00    +0.000 C 
BRANCH  21  23
ATOM     22  C   UNL     1      -3.006  10.187  14.878  0.00  0.00    +0.000 C 
ATOM     23  C   UNL     1      -2.620  10.833  16.196  0.00  0.00    +0.000 C 
ENDBRANCH  21  23
ENDBRANCH  20  21
ENDBRANCH  19  20
ENDBRANCH  18  19
ENDBRANCH  17  18
ENDBRANCH  16  17
ENDBRANCH   1  16
TORSDOF 9
ENDMDL
MODEL 7
REMARK VINA RESULT:      -7.0      3.117      3.710
REMARK  Name = 
REMARK  10 active torsions:
REMARK  status: ('A' for Active; 'I' for Inactive)
REMARK    1  A    between atoms: C_1  and  C_2
REMARK    2  A    between atoms: C_2  and  C_3
REMARK    3  A    between atoms: C_3  and  C_4
REMARK    4  A    between atoms: C_4  and  C_5
REMARK    5  A    between atoms: C_5  and  C_6
REMARK    6  A    between atoms: C_6  and  C_7
REMARK    7  A    between atoms: C_7  and  C_8
REMARK    8  A    between atoms: C_8  and  N_9
REMARK    9  A    between atoms: C_11  and  C_12
REMARK   10  A    between atoms: C_12  and  O_14
REMARK                            x       y       z     vdW  Elec       q    Type
REMARK                         _______ _______ _______ _____ _____    ______ ____
ROOT
ATOM      1  N   UNL     1       4.034   5.256  18.173  0.00  0.00    +0.000 N 
ATOM      2  C   UNL     1       3.506   6.520  17.952  0.00  0.00    +0.000 A 
ATOM      3  C   UNL     1       2.609   7.148  18.724  0.00  0.00    +0.000 A 
ATOM      4  C   UNL     1       2.157   6.436  19.933  0.00  0.00    +0.000 A 
ATOM      5  O   UNL     1       1.398   6.994  20.726  0.00  0.00    +0.000 OA
ATOM      6  C   UNL     1       2.621   5.045  20.148  0.00  0.00    +0.000 A 
ATOM      7  C   UNL     1       2.118   4.326  21.241  0.00  0.00    +0.000 A 
ATOM      8  C   UNL     1       2.520   3.011  21.452  0.00  0.00    +0.000 A 
ATOM      9  C   UNL     1       3.418   2.418  20.572  0.00  0.00    +0.000 A 
ATOM     10  C   UNL     1       3.923   3.143  19.485  0.00  0.00    +0.000 A 
ATOM     11  C   UNL     1       3.548   4.476  19.250  0.00  0.00    +0.000 A 
ENDROOT
BRANCH   3  12
ATOM     12  C   UNL     1       2.138   8.496  18.342  0.00  0.00    +0.000 C 
ATOM     13  O   UNL     1       2.288   8.970  17.224  0.00  0.00    +0.000 OA
BRANCH  12  14
ATOM     14  O   UNL     1       1.512   9.169  19.331  0.00  0.00    +0.000 OA
ATOM     15  H   UNL     1       1.892   9.005  20.228  0.00  0.00    +0.000 HD
ENDBRANCH  12  14
ENDBRANCH   3  12
BRANCH   1  16
ATOM     16  C   UNL     1       5.130   4.739  17.346  0.00  0.00    +0.000 C 
BRANCH  16  17
ATOM     17  C   UNL     1       5.377   5.635  16.129  0.00  0.00    +0.000 C 
BRANCH  17  18
ATOM     18  C   UNL     1       5.167   4.890  14.808  0.00  0.00    +0.000 C 
BRANCH  18  19
ATOM     19  C   UNL     1       6.382   4.047  14.426  0.00  0.00    +0.000 C 
BRANCH  19  20
ATOM     20  C   UNL     1       6.287   3.517  13.002  0.00  0.00    +0.000 C 
BRANCH  20  21
ATOM     21  C   UNL     1       4.934   3.889  12.398  0.00  0.00    +0.000 C 
BRANCH  21  23
ATOM     22  C   UNL     1       3.324   3.409  10.535  0.00  0.00    +0.000 C 
ATOM     23  C   UNL     1       4.534   2.909  11.303  0.00  0.00    +0.000 C 
ENDBRANCH  21  23
ENDBRANCH  20  21
ENDBRANCH  19  20
ENDBRANCH  18  19
ENDBRANCH  17  18
ENDBRANCH  16  17
ENDBRANCH   1  16
TORSDOF 9
ENDMDL
MODEL 8
REMARK VINA RESULT:      -7.0      2.776      4.061
REMARK  Name = 
REMARK  10 active torsions:
REMARK  status: ('A' for Active; 'I' for Inactive)
REMARK    1  A    between atoms: C_1  and  C_2
REMARK    2  A    between atoms: C_2  and  C_3
REMARK    3  A    between atoms: C_3  and  C_4
REMARK    4  A    between atoms: C_4  and  C_5
REMARK    5  A    between atoms: C_5  and  C_6
REMARK    6  A    between atoms: C_6  and  C_7
REMARK    7  A    between atoms: C_7  and  C_8
REMARK    8  A    between atoms: C_8  and  N_9
REMARK    9  A    between atoms: C_11  and  C_12
REMARK   10  A    between atoms: C_12  and  O_14
REMARK                            x       y       z     vdW  Elec       q    Type
REMARK                         _______ _______ _______ _____ _____    ______ ____
ROOT
ATOM      1  N   UNL     1       4.436   4.980  17.139  0.00  0.00    +0.000 N 
ATOM      2  C   UNL     1       4.560   3.715  17.693  0.00  0.00    +0.000 A 
ATOM      3  C   UNL     1       3.935   3.269  18.791  0.00  0.00    +0.000 A 
ATOM      4  C   UNL     1       3.013   4.205  19.459  0.00  0.00    +0.000 A 
ATOM      5  O   UNL     1       2.346   3.827  20.422  0.00  0.00    +0.000 OA
ATOM      6  C   UNL     1       2.933   5.596  18.955  0.00  0.00    +0.000 A 
ATOM      7  C   UNL     1       2.136   6.520  19.645  0.00  0.00    +0.000 A 
ATOM      8  C   UNL     1       2.061   7.839  19.206  0.00  0.00    +0.000 A 
ATOM      9  C   UNL     1       2.783   8.230  18.085  0.00  0.00    +0.000 A 
ATOM     10  C   UNL     1       3.573   7.302  17.395  0.00  0.00    +0.000 A 
ATOM     11  C   UNL     1       3.661   5.961  17.804  0.00  0.00    +0.000 A 
ENDROOT
BRANCH   3  12
ATOM     12  C   UNL     1       4.184   1.889  19.259  0.00  0.00    +0.000 C 
ATOM     13  O   UNL     1       3.700   0.900  18.726  0.00  0.00    +0.000 OA
BRANCH  12  14
ATOM     14  O   UNL     1       5.007   1.802  20.326  0.00  0.00    +0.000 OA
ATOM     15  H   UNL     1       5.224   0.874  20.588  0.00  0.00    +0.000 HD
ENDBRANCH  12  14
ENDBRANCH   3  12
BRANCH   1  16
ATOM     16  C   UNL     1       5.047   5.302  15.843  0.00  0.00    +0.000 C 
BRANCH  16  17
ATOM     17  C   UNL     1       6.142   4.295  15.482  0.00  0.00    +0.000 C 
BRANCH  17  18
ATOM     18  C   UNL     1       6.758   4.575  14.108  0.00  0.00    +0.000 C 
BRANCH  18  19
ATOM     19  C   UNL     1       5.814   4.197  12.969  0.00  0.00    +0.000 C 
BRANCH  19  20
ATOM     20  C   UNL     1       6.232   2.904  12.284  0.00  0.00    +0.000 C 
BRANCH  20  21
ATOM     21  C   UNL     1       5.154   2.467  11.293  0.00  0.00    +0.000 C 
BRANCH  21  23
ATOM     22  C   UNL     1       3.083   3.257  10.118  0.00  0.00    +0.000 C 
ATOM     23  C   UNL     1       3.939   3.382  11.366  0.00  0.00    +0.000 C 
ENDBRANCH  21  23
ENDBRANCH  20  21
ENDBRANCH  19  20
ENDBRANCH  18  19
ENDBRANCH  17  18
ENDBRANCH  16  17
ENDBRANCH   1  16
TORSDOF 9
ENDMDL
MODEL 9
REMARK VINA RESULT:      -7.0      2.979      6.468
REMARK  Name = 
REMARK  10 active torsions:
REMARK  status: ('A' for Active; 'I' for Inactive)
REMARK    1  A    between atoms: C_1  and  C_2
REMARK    2  A    between atoms: C_2  and  C_3
REMARK    3  A    between atoms: C_3  and  C_4
REMARK    4  A    between atoms: C_4  and  C_5
REMARK    5  A    between atoms: C_5  and  C_6
REMARK    6  A    between atoms: C_6  and  C_7
REMARK    7  A    between atoms: C_7  and  C_8
REMARK    8  A    between atoms: C_8  and  N_9
REMARK    9  A    between atoms: C_11  and  C_12
REMARK   10  A    between atoms: C_12  and  O_14
REMARK                            x       y       z     vdW  Elec       q    Type
REMARK                         _______ _______ _______ _____ _____    ______ ____
ROOT
ATOM      1  N   UNL     1       4.838   3.617  16.880  0.00  0.00    +0.000 N 
ATOM      2  C   UNL     1       4.904   3.453  15.505  0.00  0.00    +0.000 A 
ATOM      3  C   UNL     1       5.817   3.994  14.687  0.00  0.00    +0.000 A 
ATOM      4  C   UNL     1       6.862   4.825  15.313  0.00  0.00    +0.000 A 
ATOM      5  O   UNL     1       7.776   5.280  14.626  0.00  0.00    +0.000 OA
ATOM      6  C   UNL     1       6.764   5.105  16.765  0.00  0.00    +0.000 A 
ATOM      7  C   UNL     1       7.696   5.975  17.349  0.00  0.00    +0.000 A 
ATOM      8  C   UNL     1       7.613   6.272  18.706  0.00  0.00    +0.000 A 
ATOM      9  C   UNL     1       6.601   5.704  19.472  0.00  0.00    +0.000 A 
ATOM     10  C   UNL     1       5.678   4.831  18.886  0.00  0.00    +0.000 A 
ATOM     11  C   UNL     1       5.740   4.500  17.522  0.00  0.00    +0.000 A 
ENDROOT
BRANCH   3  12
ATOM     12  C   UNL     1       5.742   3.728  13.235  0.00  0.00    +0.000 C 
ATOM     13  O   UNL     1       4.707   3.812  12.588  0.00  0.00    +0.000 OA
BRANCH  12  14
ATOM     14  O   UNL     1       6.920   3.392  12.668  0.00  0.00    +0.000 OA
ATOM     15  H   UNL     1       7.433   4.165  12.325  0.00  0.00    +0.000 HD
ENDBRANCH  12  14
ENDBRANCH   3  12
BRANCH   1  16
ATOM     16  C   UNL     1       3.888   2.844  17.690  0.00  0.00    +0.000 C 
BRANCH  16  17
ATOM     17  C   UNL     1       2.449   3.312  17.453  0.00  0.00    +0.000 C 
BRANCH  17  18
ATOM     18  C   UNL     1       1.450   2.600  18.368  0.00  0.00    +0.000 C 
BRANCH  18  19
ATOM     19  C   UNL     1       1.781   2.800  19.845  0.00  0.00    +0.000 C 
BRANCH  19  20
ATOM     20  C   UNL     1       1.124   4.049  20.415  0.00  0.00    +0.000 C 
BRANCH  20  21
ATOM     21  C   UNL     1       2.194   5.061  20.821  0.00  0.00    +0.000 C 
BRANCH  21  23
ATOM     22  C   UNL     1       1.866   7.493  20.304  0.00  0.00    +0.000 C 
ATOM     23  C   UNL     1       2.343   6.154  19.771  0.00  0.00    +0.000 C 
ENDBRANCH  21  23
ENDBRANCH  20  21
ENDBRANCH  19  20
ENDBRANCH  18  19
ENDBRANCH  17  18
ENDBRANCH  16  17
ENDBRANCH   1  16
TORSDOF 9
ENDMDL
