MODEL 1
REMARK VINA RESULT:      -7.4      0.000      0.000
REMARK  Name = 
REMARK  6 active torsions:
REMARK  status: ('A' for Active; 'I' for Inactive)
REMARK    1  A    between atoms: C_5  and  N_6
REMARK    2  A    between atoms: C_9  and  O_10
REMARK    3  A    between atoms: O_10  and  C_11
REMARK    4  A    between atoms: C_11  and  C_12
REMARK    5  A    between atoms: C_12  and  C_13
REMARK    6  A    between atoms: C_13  and  N_14
REMARK                            x       y       z     vdW  Elec       q    Type
REMARK                         _______ _______ _______ _____ _____    ______ ____
ROOT
ATOM      1  N   UNL     1       5.442   4.967  17.876  0.00  0.00    +0.000 N 
ATOM      2  C   UNL     1       6.032   4.385  16.771  0.00  0.00    +0.000 A 
ATOM      3  C   UNL     1       6.920   5.303  16.263  0.00  0.00    +0.000 A 
ATOM      4  C   UNL     1       6.814   6.390  17.135  0.00  0.00    +0.000 A 
ATOM      5  N   UNL     1       5.916   6.223  18.093  0.00  0.00    +0.000 NA
ENDROOT
BRANCH   1  10
ATOM      6 CL   UNL     1       1.477   2.667  21.670  0.00  0.00    +0.000 Cl
ATOM      7  C   UNL     1       2.590   3.372  20.552  0.00  0.00    +0.000 A 
ATOM      8  C   UNL     1       3.558   2.535  19.986  0.00  0.00    +0.000 A 
ATOM      9  C   UNL     1       4.498   3.045  19.085  0.00  0.00    +0.000 A 
ATOM     10  C   UNL     1       4.477   4.404  18.754  0.00  0.00    +0.000 A 
ATOM     11  C   UNL     1       3.500   5.242  19.318  0.00  0.00    +0.000 A 
ATOM     12  C   UNL     1       2.557   4.727  20.214  0.00  0.00    +0.000 A 
ATOM     13 CL   UNL     1       1.389   5.818  20.867  0.00  0.00    +0.000 Cl
ENDBRANCH   1  10
BRANCH   4  14
ATOM     14  O   UNL     1       7.467   7.557  17.007  0.00  0.00    +0.000 OA
BRANCH  14  15
ATOM     15  C   UNL     1       8.242   7.938  18.153  0.00  0.00    +0.000 C 
BRANCH  15  16
ATOM     16  C   UNL     1       8.340   9.453  18.040  0.00  0.00    +0.000 C 
BRANCH  16  17
ATOM     17  C   UNL     1       9.223  10.150  19.075  0.00  0.00    +0.000 C 
BRANCH  17  18
ATOM     18  N   UNL     1      10.080  11.166  18.429  0.00  0.00    +0.000 NA
ATOM     19  C   UNL     1      11.150  11.654  19.326  0.00  0.00    +0.000 C 
ATOM     20  C   UNL     1      10.674  12.668  20.383  0.00  0.00    +0.000 C 
ATOM     21  O   UNL     1       9.986  13.775  19.788  0.00  0.00    +0.000 OA
ATOM     22  C   UNL     1       8.883  13.320  18.996  0.00  0.00    +0.000 C 
ATOM     23  C   UNL     1       9.356  12.348  17.907  0.00  0.00    +0.000 C 
ENDBRANCH  17  18
ENDBRANCH  16  17
ENDBRANCH  15  16
ENDBRANCH  14  15
ENDBRANCH   4  14
TORSDOF 6
ENDMDL
MODEL 2
REMARK VINA RESULT:      -7.2      1.267      1.472
REMARK  Name = 
REMARK  6 active torsions:
REMARK  status: ('A' for Active; 'I' for Inactive)
REMARK    1  A    between atoms: C_5  and  N_6
REMARK    2  A    between atoms: C_9  and  O_10
REMARK    3  A    between atoms: O_10  and  C_11
REMARK    4  A    between atoms: C_11  and  C_12
REMARK    5  A    between atoms: C_12  and  C_13
REMARK    6  A    between atoms: C_13  and  N_14
REMARK                            x       y       z     vdW  Elec       q    Type
REMARK                         _______ _______ _______ _____ _____    ______ ____
ROOT
ATOM      1  N   UNL     1       5.375   4.912  16.986  0.00  0.00    +0.000 N 
ATOM      2  C   UNL     1       6.061   4.401  15.901  0.00  0.00    +0.000 A 
ATOM      3  C   UNL     1       7.148   5.217  15.696  0.00  0.00    +0.000 A 
ATOM      4  C   UNL     1       7.047   6.172  16.712  0.00  0.00    +0.000 A 
ATOM      5  N   UNL     1       5.979   6.026  17.480  0.00  0.00    +0.000 NA
ENDROOT
BRANCH   1  10
ATOM      6 CL   UNL     1       0.535   2.730  19.673  0.00  0.00    +0.000 Cl
ATOM      7  C   UNL     1       1.923   3.416  18.904  0.00  0.00    +0.000 A 
ATOM      8  C   UNL     1       2.498   2.700  17.848  0.00  0.00    +0.000 A 
ATOM      9  C   UNL     1       3.630   3.192  17.191  0.00  0.00    +0.000 A 
ATOM     10  C   UNL     1       4.199   4.403  17.599  0.00  0.00    +0.000 A 
ATOM     11  C   UNL     1       3.616   5.124  18.656  0.00  0.00    +0.000 A 
ATOM     12  C   UNL     1       2.480   4.632  19.306  0.00  0.00    +0.000 A 
ATOM     13 CL   UNL     1       1.822   5.572  20.596  0.00  0.00    +0.000 Cl
ENDBRANCH   1  10
BRANCH   4  14
ATOM     14  O   UNL     1       7.873   7.216  16.882  0.00  0.00    +0.000 OA
BRANCH  14  15
ATOM     15  C   UNL     1       7.404   8.206  17.809  0.00  0.00    +0.000 C 
BRANCH  15  16
ATOM     16  C   UNL     1       8.321   9.397  17.566  0.00  0.00    +0.000 C 
BRANCH  16  17
ATOM     17  C   UNL     1       9.037   9.957  18.794  0.00  0.00    +0.000 C 
BRANCH  17  18
ATOM     18  N   UNL     1       9.320  11.397  18.622  0.00  0.00    +0.000 NA
ATOM     19  C   UNL     1      10.627  11.642  17.975  0.00  0.00    +0.000 C 
ATOM     20  C   UNL     1      11.837  11.476  18.913  0.00  0.00    +0.000 C 
ATOM     21  O   UNL     1      11.712  12.280  20.092  0.00  0.00    +0.000 OA
ATOM     22  C   UNL     1      10.494  11.980  20.784  0.00  0.00    +0.000 C 
ATOM     23  C   UNL     1       9.279  12.192  19.871  0.00  0.00    +0.000 C 
ENDBRANCH  17  18
ENDBRANCH  16  17
ENDBRANCH  15  16
ENDBRANCH  14  15
ENDBRANCH   4  14
TORSDOF 6
ENDMDL
MODEL 3
REMARK VINA RESULT:      -7.2      4.504      6.921
REMARK  Name = 
REMARK  6 active torsions:
REMARK  status: ('A' for Active; 'I' for Inactive)
REMARK    1  A    between atoms: C_5  and  N_6
REMARK    2  A    between atoms: C_9  and  O_10
REMARK    3  A    between atoms: O_10  and  C_11
REMARK    4  A    between atoms: C_11  and  C_12
REMARK    5  A    between atoms: C_12  and  C_13
REMARK    6  A    between atoms: C_13  and  N_14
REMARK                            x       y       z     vdW  Elec       q    Type
REMARK                         _______ _______ _______ _____ _____    ______ ____
ROOT
ATOM      1  N   UNL     1       1.575   8.306  19.800  0.00  0.00    +0.000 N 
ATOM      2  C   UNL     1       2.044   8.477  18.512  0.00  0.00    +0.000 A 
ATOM      3  C   UNL     1       2.691   7.316  18.165  0.00  0.00    +0.000 A 
ATOM      4  C   UNL     1       2.542   6.500  19.290  0.00  0.00    +0.000 A 
ATOM      5  N   UNL     1       1.901   7.081  20.292  0.00  0.00    +0.000 NA
ENDROOT
BRANCH   1  10
ATOM      6 CL   UNL     1      -1.466  12.214  23.099  0.00  0.00    +0.000 Cl
ATOM      7  C   UNL     1      -0.615  11.092  22.097  0.00  0.00    +0.000 A 
ATOM      8  C   UNL     1      -0.084   9.951  22.708  0.00  0.00    +0.000 A 
ATOM      9  C   UNL     1       0.627   9.010  21.957  0.00  0.00    +0.000 A 
ATOM     10  C   UNL     1       0.819   9.216  20.587  0.00  0.00    +0.000 A 
ATOM     11  C   UNL     1       0.279  10.359  19.973  0.00  0.00    +0.000 A 
ATOM     12  C   UNL     1      -0.438  11.295  20.726  0.00  0.00    +0.000 A 
ATOM     13 CL   UNL     1      -1.069  12.676  19.904  0.00  0.00    +0.000 Cl
ENDBRANCH   1  10
BRANCH   4  14
ATOM     14  O   UNL     1       3.062   5.270  19.434  0.00  0.00    +0.000 OA
BRANCH  14  15
ATOM     15  C   UNL     1       3.477   4.649  18.208  0.00  0.00    +0.000 C 
BRANCH  15  16
ATOM     16  C   UNL     1       4.879   4.139  18.514  0.00  0.00    +0.000 C 
BRANCH  16  17
ATOM     17  C   UNL     1       5.815   5.123  19.214  0.00  0.00    +0.000 C 
BRANCH  17  18
ATOM     18  N   UNL     1       7.191   4.995  18.691  0.00  0.00    +0.000 NA
ATOM     19  C   UNL     1       7.960   6.252  18.808  0.00  0.00    +0.000 C 
ATOM     20  C   UNL     1       7.610   7.308  17.743  0.00  0.00    +0.000 C 
ATOM     21  O   UNL     1       7.724   6.782  16.414  0.00  0.00    +0.000 OA
ATOM     22  C   UNL     1       6.905   5.619  16.257  0.00  0.00    +0.000 C 
ATOM     23  C   UNL     1       7.281   4.542  17.284  0.00  0.00    +0.000 C 
ENDBRANCH  17  18
ENDBRANCH  16  17
ENDBRANCH  15  16
ENDBRANCH  14  15
ENDBRANCH   4  14
TORSDOF 6
ENDMDL
MODEL 4
REMARK VINA RESULT:      -7.1      0.706      1.152
REMARK  Name = 
REMARK  6 active torsions:
REMARK  status: ('A' for Active; 'I' for Inactive)
REMARK    1  A    between atoms: C_5  and  N_6
REMARK    2  A    between atoms: C_9  and  O_10
REMARK    3  A    between atoms: O_10  and  C_11
REMARK    4  A    between atoms: C_11  and  C_12
REMARK    5  A    between atoms: C_12  and  C_13
REMARK    6  A    between atoms: C_13  and  N_14
REMARK                            x       y       z     vdW  Elec       q    Type
REMARK                         _______ _______ _______ _____ _____    ______ ____
ROOT
ATOM      1  N   UNL     1       5.555   4.997  17.801  0.00  0.00    +0.000 N 
ATOM      2  C   UNL     1       6.061   4.406  16.659  0.00  0.00    +0.000 A 
ATOM      3  C   UNL     1       6.993   5.274  16.141  0.00  0.00    +0.000 A 
ATOM      4  C   UNL     1       6.995   6.341  17.043  0.00  0.00    +0.000 A 
ATOM      5  N   UNL     1       6.123   6.211  18.030  0.00  0.00    +0.000 NA
ENDROOT
BRANCH   1  10
ATOM      6 CL   UNL     1       1.572   2.885  21.684  0.00  0.00    +0.000 Cl
ATOM      7  C   UNL     1       2.691   3.536  20.539  0.00  0.00    +0.000 A 
ATOM      8  C   UNL     1       3.639   2.664  19.993  0.00  0.00    +0.000 A 
ATOM      9  C   UNL     1       4.582   3.129  19.071  0.00  0.00    +0.000 A 
ATOM     10  C   UNL     1       4.585   4.478  18.700  0.00  0.00    +0.000 A 
ATOM     11  C   UNL     1       3.627   5.350  19.244  0.00  0.00    +0.000 A 
ATOM     12  C   UNL     1       2.681   4.880  20.161  0.00  0.00    +0.000 A 
ATOM     13 CL   UNL     1       1.537   6.012  20.788  0.00  0.00    +0.000 Cl
ENDBRANCH   1  10
BRANCH   4  14
ATOM     14  O   UNL     1       7.723   7.463  16.919  0.00  0.00    +0.000 OA
BRANCH  14  15
ATOM     15  C   UNL     1       8.192   8.012  18.159  0.00  0.00    +0.000 C 
BRANCH  15  16
ATOM     16  C   UNL     1       8.080   9.517  17.957  0.00  0.00    +0.000 C 
BRANCH  16  17
ATOM     17  C   UNL     1       9.348  10.328  18.221  0.00  0.00    +0.000 C 
BRANCH  17  18
ATOM     18  N   UNL     1       9.026  11.580  18.937  0.00  0.00    +0.000 NA
ATOM     19  C   UNL     1       9.416  12.784  18.173  0.00  0.00    +0.000 C 
ATOM     20  C   UNL     1      10.923  13.099  18.217  0.00  0.00    +0.000 C 
ATOM     21  O   UNL     1      11.410  13.189  19.562  0.00  0.00    +0.000 OA
ATOM     22  C   UNL     1      11.126  11.986  20.286  0.00  0.00    +0.000 C 
ATOM     23  C   UNL     1       9.619  11.692  20.289  0.00  0.00    +0.000 C 
ENDBRANCH  17  18
ENDBRANCH  16  17
ENDBRANCH  15  16
ENDBRANCH  14  15
ENDBRANCH   4  14
TORSDOF 6
ENDMDL
MODEL 5
REMARK VINA RESULT:      -7.1      1.347      1.474
REMARK  Name = 
REMARK  6 active torsions:
REMARK  status: ('A' for Active; 'I' for Inactive)
REMARK    1  A    between atoms: C_5  and  N_6
REMARK    2  A    between atoms: C_9  and  O_10
REMARK    3  A    between atoms: O_10  and  C_11
REMARK    4  A    between atoms: C_11  and  C_12
REMARK    5  A    between atoms: C_12  and  C_13
REMARK    6  A    between atoms: C_13  and  N_14
REMARK                            x       y       z     vdW  Elec       q    Type
REMARK                         _______ _______ _______ _____ _____    ______ ____
ROOT
ATOM      1  N   UNL     1       5.566   5.157  18.033  0.00  0.00    +0.000 N 
ATOM      2  C   UNL     1       6.830   4.598  18.058  0.00  0.00    +0.000 A 
ATOM      3  C   UNL     1       7.725   5.628  17.893  0.00  0.00    +0.000 A 
ATOM      4  C   UNL     1       6.915   6.764  17.801  0.00  0.00    +0.000 A 
ATOM      5  N   UNL     1       5.619   6.504  17.854  0.00  0.00    +0.000 NA
ENDROOT
BRANCH   1  10
ATOM      6 CL   UNL     1       0.398   2.297  18.751  0.00  0.00    +0.000 Cl
ATOM      7  C   UNL     1       1.884   3.162  18.583  0.00  0.00    +0.000 A 
ATOM      8  C   UNL     1       2.476   3.194  17.316  0.00  0.00    +0.000 A 
ATOM      9  C   UNL     1       3.686   3.866  17.114  0.00  0.00    +0.000 A 
ATOM     10  C   UNL     1       4.315   4.502  18.189  0.00  0.00    +0.000 A 
ATOM     11  C   UNL     1       3.716   4.476  19.460  0.00  0.00    +0.000 A 
ATOM     12  C   UNL     1       2.502   3.809  19.657  0.00  0.00    +0.000 A 
ATOM     13 CL   UNL     1       1.828   3.817  21.247  0.00  0.00    +0.000 Cl
ENDBRANCH   1  10
BRANCH   4  14
ATOM     14  O   UNL     1       7.352   8.015  17.582  0.00  0.00    +0.000 OA
BRANCH  14  15
ATOM     15  C   UNL     1       8.522   8.379  18.330  0.00  0.00    +0.000 C 
BRANCH  15  16
ATOM     16  C   UNL     1       8.588   9.894  18.189  0.00  0.00    +0.000 C 
BRANCH  16  17
ATOM     17  C   UNL     1       9.289  10.645  19.320  0.00  0.00    +0.000 C 
BRANCH  17  18
ATOM     18  N   UNL     1      10.618  11.121  18.884  0.00  0.00    +0.000 NA
ATOM     19  C   UNL     1      11.344  11.831  19.959  0.00  0.00    +0.000 C 
ATOM     20  C   UNL     1      10.861  13.274  20.200  0.00  0.00    +0.000 C 
ATOM     21  O   UNL     1      10.880  14.050  18.996  0.00  0.00    +0.000 OA
ATOM     22  C   UNL     1      10.097  13.422  17.975  0.00  0.00    +0.000 C 
ATOM     23  C   UNL     1      10.602  12.001  17.693  0.00  0.00    +0.000 C 
ENDBRANCH  17  18
ENDBRANCH  16  17
ENDBRANCH  15  16
ENDBRANCH  14  15
ENDBRANCH   4  14
TORSDOF 6
ENDMDL
MODEL 6
REMARK VINA RESULT:      -7.1      1.321      1.700
REMARK  Name = 
REMARK  6 active torsions:
REMARK  status: ('A' for Active; 'I' for Inactive)
REMARK    1  A    between atoms: C_5  and  N_6
REMARK    2  A    between atoms: C_9  and  O_10
REMARK    3  A    between atoms: O_10  and  C_11
REMARK    4  A    between atoms: C_11  and  C_12
REMARK    5  A    between atoms: C_12  and  C_13
REMARK    6  A    between atoms: C_13  and  N_14
REMARK                            x       y       z     vdW  Elec       q    Type
REMARK                         _______ _______ _______ _____ _____    ______ ____
ROOT
ATOM      1  N   UNL     1       5.505   5.187  17.600  0.00  0.00    +0.000 N 
ATOM      2  C   UNL     1       6.679   4.604  17.164  0.00  0.00    +0.000 A 
ATOM      3  C   UNL     1       7.578   5.623  16.957  0.00  0.00    +0.000 A 
ATOM      4  C   UNL     1       6.868   6.773  17.313  0.00  0.00    +0.000 A 
ATOM      5  N   UNL     1       5.617   6.540  17.675  0.00  0.00    +0.000 NA
ENDROOT
BRANCH   1  10
ATOM      6 CL   UNL     1       0.508   2.394  19.224  0.00  0.00    +0.000 Cl
ATOM      7  C   UNL     1       1.947   3.246  18.789  0.00  0.00    +0.000 A 
ATOM      8  C   UNL     1       2.407   3.112  17.474  0.00  0.00    +0.000 A 
ATOM      9  C   UNL     1       3.573   3.764  17.061  0.00  0.00    +0.000 A 
ATOM     10  C   UNL     1       4.292   4.546  17.971  0.00  0.00    +0.000 A 
ATOM     11  C   UNL     1       3.825   4.685  19.289  0.00  0.00    +0.000 A 
ATOM     12  C   UNL     1       2.654   4.038  19.697  0.00  0.00    +0.000 A 
ATOM     13 CL   UNL     1       2.144   4.253  21.333  0.00  0.00    +0.000 Cl
ENDBRANCH   1  10
BRANCH   4  14
ATOM     14  O   UNL     1       7.331   8.031  17.225  0.00  0.00    +0.000 OA
BRANCH  14  15
ATOM     15  C   UNL     1       8.306   8.381  18.218  0.00  0.00    +0.000 C 
BRANCH  15  16
ATOM     16  C   UNL     1       8.520   9.874  18.010  0.00  0.00    +0.000 C 
BRANCH  16  17
ATOM     17  C   UNL     1       9.492  10.555  18.971  0.00  0.00    +0.000 C 
BRANCH  17  18
ATOM     18  N   UNL     1       9.164  11.989  19.115  0.00  0.00    +0.000 NA
ATOM     19  C   UNL     1       9.262  12.721  17.834  0.00  0.00    +0.000 C 
ATOM     20  C   UNL     1      10.704  13.052  17.404  0.00  0.00    +0.000 C 
ATOM     21  O   UNL     1      11.418  13.754  18.430  0.00  0.00    +0.000 OA
ATOM     22  C   UNL     1      11.416  13.007  19.651  0.00  0.00    +0.000 C 
ATOM     23  C   UNL     1       9.982  12.716  20.113  0.00  0.00    +0.000 C 
ENDBRANCH  17  18
ENDBRANCH  16  17
ENDBRANCH  15  16
ENDBRANCH  14  15
ENDBRANCH   4  14
TORSDOF 6
ENDMDL
MODEL 7
REMARK VINA RESULT:      -7.1      1.666      2.451
REMARK  Name = 
REMARK  6 active torsions:
REMARK  status: ('A' for Active; 'I' for Inactive)
REMARK    1  A    between atoms: C_5  and  N_6
REMARK    2  A    between atoms: C_9  and  O_10
REMARK    3  A    between atoms: O_10  and  C_11
REMARK    4  A    between atoms: C_11  and  C_12
REMARK    5  A    between atoms: C_12  and  C_13
REMARK    6  A    between atoms: C_13  and  N_14
REMARK                            x       y       z     vdW  Elec       q    Type
REMARK                         _______ _______ _______ _____ _____    ______ ____
ROOT
ATOM      1  N   UNL     1       5.949   5.682  18.467  0.00  0.00    +0.000 N 
ATOM      2  C   UNL     1       7.057   5.465  19.263  0.00  0.00    +0.000 A 
ATOM      3  C   UNL     1       8.013   6.371  18.870  0.00  0.00    +0.000 A 
ATOM      4  C   UNL     1       7.388   7.100  17.855  0.00  0.00    +0.000 A 
ATOM      5  N   UNL     1       6.161   6.688  17.577  0.00  0.00    +0.000 NA
ENDROOT
BRANCH   1  10
ATOM      6 CL   UNL     1       0.711   2.858  18.487  0.00  0.00    +0.000 Cl
ATOM      7  C   UNL     1       2.254   3.635  18.509  0.00  0.00    +0.000 A 
ATOM      8  C   UNL     1       2.275   5.035  18.526  0.00  0.00    +0.000 A 
ATOM      9  C   UNL     1       3.491   5.726  18.531  0.00  0.00    +0.000 A 
ATOM     10  C   UNL     1       4.695   5.015  18.508  0.00  0.00    +0.000 A 
ATOM     11  C   UNL     1       4.672   3.609  18.498  0.00  0.00    +0.000 A 
ATOM     12  C   UNL     1       3.455   2.921  18.500  0.00  0.00    +0.000 A 
ATOM     13 CL   UNL     1       3.507   1.195  18.485  0.00  0.00    +0.000 Cl
ENDBRANCH   1  10
BRANCH   4  14
ATOM     14  O   UNL     1       7.962   8.074  17.130  0.00  0.00    +0.000 OA
BRANCH  14  15
ATOM     15  C   UNL     1       7.685   9.405  17.591  0.00  0.00    +0.000 C 
BRANCH  15  16
ATOM     16  C   UNL     1       8.903   9.760  18.433  0.00  0.00    +0.000 C 
BRANCH  16  17
ATOM     17  C   UNL     1       9.504  11.145  18.198  0.00  0.00    +0.000 C 
BRANCH  17  18
ATOM     18  N   UNL     1       9.433  11.959  19.428  0.00  0.00    +0.000 NA
ATOM     19  C   UNL     1       9.341  13.407  19.142  0.00  0.00    +0.000 C 
ATOM     20  C   UNL     1      10.677  14.058  18.739  0.00  0.00    +0.000 C 
ATOM     21  O   UNL     1      11.703  13.812  19.709  0.00  0.00    +0.000 OA
ATOM     22  C   UNL     1      11.873  12.406  19.922  0.00  0.00    +0.000 C 
ATOM     23  C   UNL     1      10.557  11.758  20.372  0.00  0.00    +0.000 C 
ENDBRANCH  17  18
ENDBRANCH  16  17
ENDBRANCH  15  16
ENDBRANCH  14  15
ENDBRANCH   4  14
TORSDOF 6
ENDMDL
MODEL 8
REMARK VINA RESULT:      -7.0      1.388      1.902
REMARK  Name = 
REMARK  6 active torsions:
REMARK  status: ('A' for Active; 'I' for Inactive)
REMARK    1  A    between atoms: C_5  and  N_6
REMARK    2  A    between atoms: C_9  and  O_10
REMARK    3  A    between atoms: O_10  and  C_11
REMARK    4  A    between atoms: C_11  and  C_12
REMARK    5  A    between atoms: C_12  and  C_13
REMARK    6  A    between atoms: C_13  and  N_14
REMARK                            x       y       z     vdW  Elec       q    Type
REMARK                         _______ _______ _______ _____ _____    ______ ____
ROOT
ATOM      1  N   UNL     1       5.433   5.263  17.787  0.00  0.00    +0.000 N 
ATOM      2  C   UNL     1       6.136   5.002  16.626  0.00  0.00    +0.000 A 
ATOM      3  C   UNL     1       7.275   5.770  16.668  0.00  0.00    +0.000 A 
ATOM      4  C   UNL     1       7.183   6.439  17.893  0.00  0.00    +0.000 A 
ATOM      5  N   UNL     1       6.077   6.172  18.568  0.00  0.00    +0.000 NA
ENDROOT
BRANCH   1  10
ATOM      6 CL   UNL     1       0.339   2.735  19.537  0.00  0.00    +0.000 Cl
ATOM      7  C   UNL     1       1.832   3.476  19.082  0.00  0.00    +0.000 A 
ATOM      8  C   UNL     1       1.866   4.177  17.872  0.00  0.00    +0.000 A 
ATOM      9  C   UNL     1       3.045   4.790  17.438  0.00  0.00    +0.000 A 
ATOM     10  C   UNL     1       4.205   4.692  18.216  0.00  0.00    +0.000 A 
ATOM     11  C   UNL     1       4.168   3.994  19.435  0.00  0.00    +0.000 A 
ATOM     12  C   UNL     1       2.984   3.389  19.869  0.00  0.00    +0.000 A 
ATOM     13 CL   UNL     1       3.016   2.547  21.376  0.00  0.00    +0.000 Cl
ENDBRANCH   1  10
BRANCH   4  14
ATOM     14  O   UNL     1       8.059   7.348  18.350  0.00  0.00    +0.000 OA
BRANCH  14  15
ATOM     15  C   UNL     1       7.952   8.642  17.739  0.00  0.00    +0.000 C 
BRANCH  15  16
ATOM     16  C   UNL     1       8.812   9.536  18.623  0.00  0.00    +0.000 C 
BRANCH  16  17
ATOM     17  C   UNL     1       8.981  10.981  18.157  0.00  0.00    +0.000 C 
BRANCH  17  18
ATOM     18  N   UNL     1      10.033  11.661  18.940  0.00  0.00    +0.000 NA
ATOM     19  C   UNL     1       9.617  13.005  19.397  0.00  0.00    +0.000 C 
ATOM     20  C   UNL     1       9.673  14.089  18.304  0.00  0.00    +0.000 C 
ATOM     21  O   UNL     1      10.965  14.156  17.686  0.00  0.00    +0.000 OA
ATOM     22  C   UNL     1      11.337  12.881  17.150  0.00  0.00    +0.000 C 
ATOM     23  C   UNL     1      11.332  11.804  18.243  0.00  0.00    +0.000 C 
ENDBRANCH  17  18
ENDBRANCH  16  17
ENDBRANCH  15  16
ENDBRANCH  14  15
ENDBRANCH   4  14
TORSDOF 6
ENDMDL
MODEL 9
REMARK VINA RESULT:      -7.0      6.081      8.744
REMARK  Name = 
REMARK  6 active torsions:
REMARK  status: ('A' for Active; 'I' for Inactive)
REMARK    1  A    between atoms: C_5  and  N_6
REMARK    2  A    between atoms: C_9  and  O_10
REMARK    3  A    between atoms: O_10  and  C_11
REMARK    4  A    between atoms: C_11  and  C_12
REMARK    5  A    between atoms: C_12  and  C_13
REMARK    6  A    between atoms: C_13  and  N_14
REMARK                            x       y       z     vdW  Elec       q    Type
REMARK                         _______ _______ _______ _____ _____    ______ ____
ROOT
ATOM      1  N   UNL     1       1.476   8.800  19.543  0.00  0.00    +0.000 N 
ATOM      2  C   UNL     1       1.803   9.125  18.240  0.00  0.00    +0.000 A 
ATOM      3  C   UNL     1       2.606   8.116  17.767  0.00  0.00    +0.000 A 
ATOM      4  C   UNL     1       2.689   7.223  18.839  0.00  0.00    +0.000 A 
ATOM      5  N   UNL     1       2.044   7.624  19.922  0.00  0.00    +0.000 NA
ENDROOT
BRANCH   1  10
ATOM      6 CL   UNL     1      -1.901  11.925  23.315  0.00  0.00    +0.000 Cl
ATOM      7  C   UNL     1      -0.958  11.027  22.179  0.00  0.00    +0.000 A 
ATOM      8  C   UNL     1      -0.171   9.981  22.674  0.00  0.00    +0.000 A 
ATOM      9  C   UNL     1       0.626   9.224  21.811  0.00  0.00    +0.000 A 
ATOM     10  C   UNL     1       0.645   9.519  20.444  0.00  0.00    +0.000 A 
ATOM     11  C   UNL     1      -0.151  10.565  19.947  0.00  0.00    +0.000 A 
ATOM     12  C   UNL     1      -0.953  11.316  20.813  0.00  0.00    +0.000 A 
ATOM     13 CL   UNL     1      -1.903  12.587  20.130  0.00  0.00    +0.000 Cl
ENDBRANCH   1  10
BRANCH   4  14
ATOM     14  O   UNL     1       3.419   6.095  18.857  0.00  0.00    +0.000 OA
BRANCH  14  15
ATOM     15  C   UNL     1       3.775   5.592  17.562  0.00  0.00    +0.000 C 
BRANCH  15  16
ATOM     16  C   UNL     1       4.121   4.131  17.820  0.00  0.00    +0.000 C 
BRANCH  16  17
ATOM     17  C   UNL     1       4.328   3.737  19.282  0.00  0.00    +0.000 C 
BRANCH  17  18
ATOM     18  N   UNL     1       3.487   2.575  19.632  0.00  0.00    +0.000 NA
ATOM     19  C   UNL     1       2.202   2.567  18.901  0.00  0.00    +0.000 C 
ATOM     20  C   UNL     1       1.152   3.547  19.457  0.00  0.00    +0.000 C 
ATOM     21  O   UNL     1       0.923   3.344  20.857  0.00  0.00    +0.000 OA
ATOM     22  C   UNL     1       2.148   3.448  21.592  0.00  0.00    +0.000 C 
ATOM     23  C   UNL     1       3.183   2.440  21.076  0.00  0.00    +0.000 C 
ENDBRANCH  17  18
ENDBRANCH  16  17
ENDBRANCH  15  16
ENDBRANCH  14  15
ENDBRANCH   4  14
TORSDOF 6
ENDMDL
