MODEL 1
REMARK VINA RESULT:      -7.7      0.000      0.000
REMARK  Name = 
REMARK  4 active torsions:
REMARK  status: ('A' for Active; 'I' for Inactive)
REMARK    1  A    between atoms: O_1  and  C_2
REMARK    2  A    between atoms: C_5  and  C_6
REMARK    3  A    between atoms: C_6  and  C_7
REMARK    4  A    between atoms: C_7  and  N_8
REMARK                            x       y       z     vdW  Elec       q    Type
REMARK                         _______ _______ _______ _____ _____    ______ ____
ROOT
ATOM      1  N   UNL     1      -1.606  12.475  20.281  0.00  0.00    +0.000 N 
ATOM      2  C   UNL     1      -1.365  11.326  21.189  0.00  0.00    +0.000 C 
ATOM      3  C   UNL     1       0.087  10.930  21.463  0.00  0.00    +0.000 C 
ATOM      4  C   UNL     1       0.776  10.582  20.192  0.00  0.00    +0.000 A 
ATOM      5  C   UNL     1       0.962  11.502  19.177  0.00  0.00    +0.000 A 
ATOM      6  N   UNL     1       1.578  10.837  18.145  0.00  0.00    +0.000 N 
ATOM      7  C   UNL     1       1.820   9.525  18.485  0.00  0.00    +0.000 A 
ATOM      8  C   UNL     1       2.440   8.505  17.752  0.00  0.00    +0.000 A 
ATOM      9  C   UNL     1       2.542   7.247  18.354  0.00  0.00    +0.000 A 
ATOM     10  C   UNL     1       2.040   7.029  19.634  0.00  0.00    +0.000 A 
ATOM     11 BR   UNL     1       2.194   5.311  20.415  0.00  0.00    +0.000 Br
ATOM     12  C   UNL     1       1.424   8.056  20.357  0.00  0.00    +0.000 A 
ATOM     13  C   UNL     1       1.316   9.333  19.771  0.00  0.00    +0.000 A 
ATOM     14  C   UNL     1       0.583  12.925  19.189  0.00  0.00    +0.000 A 
ATOM     15  C   UNL     1      -0.608  13.352  19.840  0.00  0.00    +0.000 A 
ATOM     16  C   UNL     1      -0.830  14.739  19.928  0.00  0.00    +0.000 A 
ATOM     17  C   UNL     1       0.015  15.628  19.288  0.00  0.00    +0.000 A 
ATOM     18  N   UNL     1       1.109  15.252  18.613  0.00  0.00    +0.000 NA
ATOM     19  C   UNL     1       1.378  13.925  18.604  0.00  0.00    +0.000 A 
ATOM     20 CL   UNL     1       2.858  13.610  17.767  0.00  0.00    +0.000 Cl
ATOM     21  H   UNL     1       1.848  11.257  17.266  0.00  0.00    +0.000 HD
ENDROOT
BRANCH   1  22
ATOM     22  C   UNL     1      -3.036  12.810  20.070  0.00  0.00    +0.000 C 
BRANCH  22  23
ATOM     23  C   UNL     1      -3.872  11.636  19.525  0.00  0.00    +0.000 C 
BRANCH  23  27
ATOM     24  C   UNL     1      -2.842  10.361  15.555  0.00  0.00    +0.000 A 
ATOM     25  C   UNL     1      -2.060   9.949  16.627  0.00  0.00    +0.000 A 
ATOM     26  C   UNL     1      -2.379  10.384  17.915  0.00  0.00    +0.000 A 
ATOM     27  C   UNL     1      -3.489  11.223  18.125  0.00  0.00    +0.000 A 
ATOM     28  C   UNL     1      -4.254  11.638  17.036  0.00  0.00    +0.000 A 
ATOM     29  C   UNL     1      -3.931  11.204  15.750  0.00  0.00    +0.000 A 
BRANCH  24  30
ATOM     30  O   UNL     1      -2.575   9.951  14.283  0.00  0.00    +0.000 OA
ATOM     31  H   UNL     1      -1.666   9.613  14.251  0.00  0.00    +0.000 HD
ENDBRANCH  24  30
ENDBRANCH  23  27
ENDBRANCH  22  23
ENDBRANCH   1  22
TORSDOF 4
ENDMDL
MODEL 2
REMARK VINA RESULT:      -7.5      4.305      7.202
REMARK  Name = 
REMARK  4 active torsions:
REMARK  status: ('A' for Active; 'I' for Inactive)
REMARK    1  A    between atoms: O_1  and  C_2
REMARK    2  A    between atoms: C_5  and  C_6
REMARK    3  A    between atoms: C_6  and  C_7
REMARK    4  A    between atoms: C_7  and  N_8
REMARK                            x       y       z     vdW  Elec       q    Type
REMARK                         _______ _______ _______ _____ _____    ______ ____
ROOT
ATOM      1  N   UNL     1       1.002  10.857  19.381  0.00  0.00    +0.000 N 
ATOM      2  C   UNL     1       1.877  11.866  18.733  0.00  0.00    +0.000 C 
ATOM      3  C   UNL     1       2.130  13.172  19.487  0.00  0.00    +0.000 C 
ATOM      4  C   UNL     1       0.847  13.874  19.753  0.00  0.00    +0.000 A 
ATOM      5  C   UNL     1      -0.144  13.324  20.546  0.00  0.00    +0.000 A 
ATOM      6  N   UNL     1      -1.198  14.206  20.534  0.00  0.00    +0.000 N 
ATOM      7  C   UNL     1      -0.895  15.318  19.782  0.00  0.00    +0.000 A 
ATOM      8  C   UNL     1      -1.659  16.462  19.520  0.00  0.00    +0.000 A 
ATOM      9  C   UNL     1      -1.093  17.445  18.703  0.00  0.00    +0.000 A 
ATOM     10  C   UNL     1       0.184  17.279  18.173  0.00  0.00    +0.000 A 
ATOM     11 BR   UNL     1       0.916  18.630  17.067  0.00  0.00    +0.000 Br
ATOM     12  C   UNL     1       0.938  16.132  18.442  0.00  0.00    +0.000 A 
ATOM     13  C   UNL     1       0.388  15.132  19.269  0.00  0.00    +0.000 A 
ATOM     14  C   UNL     1      -0.090  12.044  21.273  0.00  0.00    +0.000 A 
ATOM     15  C   UNL     1       0.579  10.921  20.713  0.00  0.00    +0.000 A 
ATOM     16  C   UNL     1       0.706   9.779  21.526  0.00  0.00    +0.000 A 
ATOM     17  C   UNL     1       0.086   9.722  22.761  0.00  0.00    +0.000 A 
ATOM     18  N   UNL     1      -0.605  10.741  23.287  0.00  0.00    +0.000 NA
ATOM     19  C   UNL     1      -0.652  11.875  22.550  0.00  0.00    +0.000 A 
ATOM     20 CL   UNL     1      -1.507  13.118  23.396  0.00  0.00    +0.000 Cl
ATOM     21  H   UNL     1      -2.066  14.074  21.035  0.00  0.00    +0.000 HD
ENDROOT
BRANCH   1  22
ATOM     22  C   UNL     1       0.809   9.610  18.598  0.00  0.00    +0.000 C 
BRANCH  22  23
ATOM     23  C   UNL     1       2.041   9.207  17.764  0.00  0.00    +0.000 C 
BRANCH  23  27
ATOM     24  C   UNL     1       3.840   5.507  19.000  0.00  0.00    +0.000 A 
ATOM     25  C   UNL     1       4.284   6.126  17.837  0.00  0.00    +0.000 A 
ATOM     26  C   UNL     1       3.682   7.315  17.422  0.00  0.00    +0.000 A 
ATOM     27  C   UNL     1       2.642   7.886  18.179  0.00  0.00    +0.000 A 
ATOM     28  C   UNL     1       2.201   7.244  19.335  0.00  0.00    +0.000 A 
ATOM     29  C   UNL     1       2.801   6.054  19.747  0.00  0.00    +0.000 A 
BRANCH  24  30
ATOM     30  O   UNL     1       4.406   4.352  19.450  0.00  0.00    +0.000 OA
ATOM     31  H   UNL     1       4.037   4.147  20.324  0.00  0.00    +0.000 HD
ENDBRANCH  24  30
ENDBRANCH  23  27
ENDBRANCH  22  23
ENDBRANCH   1  22
TORSDOF 4
ENDMDL
MODEL 3
REMARK VINA RESULT:      -7.2      7.759     10.403
REMARK  Name = 
REMARK  4 active torsions:
REMARK  status: ('A' for Active; 'I' for Inactive)
REMARK    1  A    between atoms: O_1  and  C_2
REMARK    2  A    between atoms: C_5  and  C_6
REMARK    3  A    between atoms: C_6  and  C_7
REMARK    4  A    between atoms: C_7  and  N_8
REMARK                            x       y       z     vdW  Elec       q    Type
REMARK                         _______ _______ _______ _____ _____    ______ ____
ROOT
ATOM      1  N   UNL     1       8.837  11.156  18.364  0.00  0.00    +0.000 N 
ATOM      2  C   UNL     1       7.804  11.649  17.418  0.00  0.00    +0.000 C 
ATOM      3  C   UNL     1       7.811  13.139  17.074  0.00  0.00    +0.000 C 
ATOM      4  C   UNL     1       7.641  13.955  18.304  0.00  0.00    +0.000 A 
ATOM      5  C   UNL     1       8.564  13.940  19.334  0.00  0.00    +0.000 A 
ATOM      6  N   UNL     1       8.072  14.758  20.322  0.00  0.00    +0.000 N 
ATOM      7  C   UNL     1       6.876  15.321  19.939  0.00  0.00    +0.000 A 
ATOM      8  C   UNL     1       6.047  16.223  20.618  0.00  0.00    +0.000 A 
ATOM      9  C   UNL     1       4.869  16.625  19.981  0.00  0.00    +0.000 A 
ATOM     10  C   UNL     1       4.544  16.138  18.718  0.00  0.00    +0.000 A 
ATOM     11 BR   UNL     1       2.939  16.703  17.888  0.00  0.00    +0.000 Br
ATOM     12  C   UNL     1       5.380  15.239  18.048  0.00  0.00    +0.000 A 
ATOM     13  C   UNL     1       6.574  14.825  18.671  0.00  0.00    +0.000 A 
ATOM     14  C   UNL     1       9.836  13.198  19.374  0.00  0.00    +0.000 A 
ATOM     15  C   UNL     1       9.940  11.907  18.786  0.00  0.00    +0.000 A 
ATOM     16  C   UNL     1      11.220  11.323  18.743  0.00  0.00    +0.000 A 
ATOM     17  C   UNL     1      12.293  11.933  19.369  0.00  0.00    +0.000 A 
ATOM     18  N   UNL     1      12.211  13.117  19.986  0.00  0.00    +0.000 NA
ATOM     19  C   UNL     1      11.003  13.727  19.950  0.00  0.00    +0.000 A 
ATOM     20 CL   UNL     1      11.080  15.276  20.716  0.00  0.00    +0.000 Cl
ATOM     21  H   UNL     1       8.537  14.948  21.199  0.00  0.00    +0.000 HD
ENDROOT
BRANCH   1  22
ATOM     22  C   UNL     1       8.777   9.700  18.644  0.00  0.00    +0.000 C 
BRANCH  22  23
ATOM     23  C   UNL     1       8.258   8.864  17.459  0.00  0.00    +0.000 C 
BRANCH  23  27
ATOM     24  C   UNL     1       6.480   5.110  18.555  0.00  0.00    +0.000 A 
ATOM     25  C   UNL     1       5.863   5.902  17.594  0.00  0.00    +0.000 A 
ATOM     26  C   UNL     1       6.426   7.134  17.256  0.00  0.00    +0.000 A 
ATOM     27  C   UNL     1       7.615   7.564  17.876  0.00  0.00    +0.000 A 
ATOM     28  C   UNL     1       8.213   6.763  18.847  0.00  0.00    +0.000 A 
ATOM     29  C   UNL     1       7.646   5.534  19.186  0.00  0.00    +0.000 A 
BRANCH  24  30
ATOM     30  O   UNL     1       5.973   3.895  18.907  0.00  0.00    +0.000 OA
ATOM     31  H   UNL     1       6.637   3.425  19.437  0.00  0.00    +0.000 HD
ENDBRANCH  24  30
ENDBRANCH  23  27
ENDBRANCH  22  23
ENDBRANCH   1  22
TORSDOF 4
ENDMDL
MODEL 4
REMARK VINA RESULT:      -7.1      3.381      6.704
REMARK  Name = 
REMARK  4 active torsions:
REMARK  status: ('A' for Active; 'I' for Inactive)
REMARK    1  A    between atoms: O_1  and  C_2
REMARK    2  A    between atoms: C_5  and  C_6
REMARK    3  A    between atoms: C_6  and  C_7
REMARK    4  A    between atoms: C_7  and  N_8
REMARK                            x       y       z     vdW  Elec       q    Type
REMARK                         _______ _______ _______ _____ _____    ______ ____
ROOT
ATOM      1  N   UNL     1       0.553  10.540  18.649  0.00  0.00    +0.000 N 
ATOM      2  C   UNL     1      -0.755  10.125  18.084  0.00  0.00    +0.000 C 
ATOM      3  C   UNL     1      -1.733  11.227  17.674  0.00  0.00    +0.000 C 
ATOM      4  C   UNL     1      -2.062  12.086  18.842  0.00  0.00    +0.000 A 
ATOM      5  C   UNL     1      -1.105  12.841  19.497  0.00  0.00    +0.000 A 
ATOM      6  N   UNL     1      -1.737  13.463  20.545  0.00  0.00    +0.000 N 
ATOM      7  C   UNL     1      -3.078  13.152  20.560  0.00  0.00    +0.000 A 
ATOM      8  C   UNL     1      -4.091  13.578  21.429  0.00  0.00    +0.000 A 
ATOM      9  C   UNL     1      -5.381  13.087  21.208  0.00  0.00    +0.000 A 
ATOM     10  C   UNL     1      -5.636  12.207  20.160  0.00  0.00    +0.000 A 
ATOM     11 BR   UNL     1      -7.396  11.561  19.894  0.00  0.00    +0.000 Br
ATOM     12  C   UNL     1      -4.617  11.789  19.298  0.00  0.00    +0.000 A 
ATOM     13  C   UNL     1      -3.310  12.277  19.500  0.00  0.00    +0.000 A 
ATOM     14  C   UNL     1       0.320  12.966  19.143  0.00  0.00    +0.000 A 
ATOM     15  C   UNL     1       1.039  11.852  18.628  0.00  0.00    +0.000 A 
ATOM     16  C   UNL     1       2.354  12.087  18.185  0.00  0.00    +0.000 A 
ATOM     17  C   UNL     1       2.950  13.321  18.375  0.00  0.00    +0.000 A 
ATOM     18  N   UNL     1       2.320  14.370  18.916  0.00  0.00    +0.000 NA
ATOM     19  C   UNL     1       1.024  14.176  19.258  0.00  0.00    +0.000 A 
ATOM     20 CL   UNL     1       0.329  15.639  19.865  0.00  0.00    +0.000 Cl
ATOM     21  H   UNL     1      -1.289  14.089  21.200  0.00  0.00    +0.000 HD
ENDROOT
BRANCH   1  22
ATOM     22  C   UNL     1       1.455   9.419  19.013  0.00  0.00    +0.000 C 
BRANCH  22  23
ATOM     23  C   UNL     1       1.806   8.498  17.828  0.00  0.00    +0.000 C 
BRANCH  23  27
ATOM     24  C   UNL     1       4.610   5.430  18.915  0.00  0.00    +0.000 A 
ATOM     25  C   UNL     1       4.849   6.204  17.786  0.00  0.00    +0.000 A 
ATOM     26  C   UNL     1       3.925   7.184  17.418  0.00  0.00    +0.000 A 
ATOM     27  C   UNL     1       2.768   7.392  18.190  0.00  0.00    +0.000 A 
ATOM     28  C   UNL     1       2.536   6.598  19.312  0.00  0.00    +0.000 A 
ATOM     29  C   UNL     1       3.459   5.617  19.676  0.00  0.00    +0.000 A 
BRANCH  24  30
ATOM     30  O   UNL     1       5.490   4.472  19.319  0.00  0.00    +0.000 OA
ATOM     31  H   UNL     1       5.027   3.858  19.913  0.00  0.00    +0.000 HD
ENDBRANCH  24  30
ENDBRANCH  23  27
ENDBRANCH  22  23
ENDBRANCH   1  22
TORSDOF 4
ENDMDL
MODEL 5
REMARK VINA RESULT:      -7.1      5.214      8.512
REMARK  Name = 
REMARK  4 active torsions:
REMARK  status: ('A' for Active; 'I' for Inactive)
REMARK    1  A    between atoms: O_1  and  C_2
REMARK    2  A    between atoms: C_5  and  C_6
REMARK    3  A    between atoms: C_6  and  C_7
REMARK    4  A    between atoms: C_7  and  N_8
REMARK                            x       y       z     vdW  Elec       q    Type
REMARK                         _______ _______ _______ _____ _____    ______ ____
ROOT
ATOM      1  N   UNL     1       1.690   4.978  19.392  0.00  0.00    +0.000 N 
ATOM      2  C   UNL     1       1.720   5.055  17.910  0.00  0.00    +0.000 C 
ATOM      3  C   UNL     1       2.490   3.968  17.159  0.00  0.00    +0.000 C 
ATOM      4  C   UNL     1       3.915   3.957  17.583  0.00  0.00    +0.000 A 
ATOM      5  C   UNL     1       4.297   3.671  18.882  0.00  0.00    +0.000 A 
ATOM      6  N   UNL     1       5.664   3.800  18.932  0.00  0.00    +0.000 N 
ATOM      7  C   UNL     1       6.169   4.128  17.694  0.00  0.00    +0.000 A 
ATOM      8  C   UNL     1       7.494   4.331  17.288  0.00  0.00    +0.000 A 
ATOM      9  C   UNL     1       7.716   4.668  15.950  0.00  0.00    +0.000 A 
ATOM     10  C   UNL     1       6.650   4.794  15.063  0.00  0.00    +0.000 A 
ATOM     11 BR   UNL     1       6.989   5.254  13.258  0.00  0.00    +0.000 Br
ATOM     12  C   UNL     1       5.330   4.587  15.479  0.00  0.00    +0.000 A 
ATOM     13  C   UNL     1       5.086   4.241  16.824  0.00  0.00    +0.000 A 
ATOM     14  C   UNL     1       3.417   3.296  20.002  0.00  0.00    +0.000 A 
ATOM     15  C   UNL     1       2.123   3.871  20.132  0.00  0.00    +0.000 A 
ATOM     16  C   UNL     1       1.292   3.360  21.146  0.00  0.00    +0.000 A 
ATOM     17  C   UNL     1       1.777   2.434  22.052  0.00  0.00    +0.000 A 
ATOM     18  N   UNL     1       3.013   1.921  21.994  0.00  0.00    +0.000 NA
ATOM     19  C   UNL     1       3.785   2.340  20.965  0.00  0.00    +0.000 A 
ATOM     20 CL   UNL     1       5.313   1.531  20.981  0.00  0.00    +0.000 Cl
ATOM     21  H   UNL     1       6.228   3.644  19.756  0.00  0.00    +0.000 HD
ENDROOT
BRANCH   1  22
ATOM     22  C   UNL     1       0.916   6.057  20.054  0.00  0.00    +0.000 C 
BRANCH  22  23
ATOM     23  C   UNL     1       1.789   7.220  20.564  0.00  0.00    +0.000 C 
BRANCH  23  27
ATOM     24  C   UNL     1       0.999  11.027  18.737  0.00  0.00    +0.000 A 
ATOM     25  C   UNL     1       0.576  10.795  20.040  0.00  0.00    +0.000 A 
ATOM     26  C   UNL     1       0.810   9.550  20.626  0.00  0.00    +0.000 A 
ATOM     27  C   UNL     1       1.477   8.542  19.905  0.00  0.00    +0.000 A 
ATOM     28  C   UNL     1       1.882   8.786  18.594  0.00  0.00    +0.000 A 
ATOM     29  C   UNL     1       1.644  10.031  18.010  0.00  0.00    +0.000 A 
BRANCH  24  30
ATOM     30  O   UNL     1       0.803  12.231  18.130  0.00  0.00    +0.000 OA
ATOM     31  H   UNL     1      -0.043  12.596  18.435  0.00  0.00    +0.000 HD
ENDBRANCH  24  30
ENDBRANCH  23  27
ENDBRANCH  22  23
ENDBRANCH   1  22
TORSDOF 4
ENDMDL
MODEL 6
REMARK VINA RESULT:      -7.0      5.326      8.648
REMARK  Name = 
REMARK  4 active torsions:
REMARK  status: ('A' for Active; 'I' for Inactive)
REMARK    1  A    between atoms: O_1  and  C_2
REMARK    2  A    between atoms: C_5  and  C_6
REMARK    3  A    between atoms: C_6  and  C_7
REMARK    4  A    between atoms: C_7  and  N_8
REMARK                            x       y       z     vdW  Elec       q    Type
REMARK                         _______ _______ _______ _____ _____    ______ ____
ROOT
ATOM      1  N   UNL     1       1.771   5.185  19.418  0.00  0.00    +0.000 N 
ATOM      2  C   UNL     1       1.806   5.294  17.938  0.00  0.00    +0.000 C 
ATOM      3  C   UNL     1       2.528   4.191  17.162  0.00  0.00    +0.000 C 
ATOM      4  C   UNL     1       3.950   4.107  17.586  0.00  0.00    +0.000 A 
ATOM      5  C   UNL     1       4.318   3.776  18.878  0.00  0.00    +0.000 A 
ATOM      6  N   UNL     1       5.689   3.842  18.931  0.00  0.00    +0.000 N 
ATOM      7  C   UNL     1       6.210   4.175  17.701  0.00  0.00    +0.000 A 
ATOM      8  C   UNL     1       7.543   4.329  17.299  0.00  0.00    +0.000 A 
ATOM      9  C   UNL     1       7.781   4.685  15.969  0.00  0.00    +0.000 A 
ATOM     10  C   UNL     1       6.722   4.878  15.086  0.00  0.00    +0.000 A 
ATOM     11 BR   UNL     1       7.083   5.363  13.291  0.00  0.00    +0.000 Br
ATOM     12  C   UNL     1       5.394   4.721  15.497  0.00  0.00    +0.000 A 
ATOM     13  C   UNL     1       5.133   4.356  16.833  0.00  0.00    +0.000 A 
ATOM     14  C   UNL     1       3.421   3.415  19.990  0.00  0.00    +0.000 A 
ATOM     15  C   UNL     1       2.154   4.044  20.132  0.00  0.00    +0.000 A 
ATOM     16  C   UNL     1       1.300   3.548  21.135  0.00  0.00    +0.000 A 
ATOM     17  C   UNL     1       1.743   2.581  22.020  0.00  0.00    +0.000 A 
ATOM     18  N   UNL     1       2.954   2.015  21.950  0.00  0.00    +0.000 NA
ATOM     19  C   UNL     1       3.745   2.422  20.930  0.00  0.00    +0.000 A 
ATOM     20 CL   UNL     1       5.236   1.546  20.928  0.00  0.00    +0.000 Cl
ATOM     21  H   UNL     1       6.245   3.643  19.751  0.00  0.00    +0.000 HD
ENDROOT
BRANCH   1  22
ATOM     22  C   UNL     1       1.045   6.283  20.103  0.00  0.00    +0.000 C 
BRANCH  22  23
ATOM     23  C   UNL     1       1.841   7.601  20.174  0.00  0.00    +0.000 C 
BRANCH  23  27
ATOM     24  C   UNL     1      -0.426  10.755  22.009  0.00  0.00    +0.000 A 
ATOM     25  C   UNL     1      -0.240  10.761  20.631  0.00  0.00    +0.000 A 
ATOM     26  C   UNL     1       0.518   9.750  20.037  0.00  0.00    +0.000 A 
ATOM     27  C   UNL     1       1.080   8.729  20.826  0.00  0.00    +0.000 A 
ATOM     28  C   UNL     1       0.896   8.747  22.208  0.00  0.00    +0.000 A 
ATOM     29  C   UNL     1       0.141   9.760  22.799  0.00  0.00    +0.000 A 
BRANCH  24  30
ATOM     30  O   UNL     1      -1.168  11.714  22.629  0.00  0.00    +0.000 OA
ATOM     31  H   UNL     1      -1.282  11.462  23.560  0.00  0.00    +0.000 HD
ENDBRANCH  24  30
ENDBRANCH  23  27
ENDBRANCH  22  23
ENDBRANCH   1  22
TORSDOF 4
ENDMDL
MODEL 7
REMARK VINA RESULT:      -7.0      3.536      6.050
REMARK  Name = 
REMARK  4 active torsions:
REMARK  status: ('A' for Active; 'I' for Inactive)
REMARK    1  A    between atoms: O_1  and  C_2
REMARK    2  A    between atoms: C_5  and  C_6
REMARK    3  A    between atoms: C_6  and  C_7
REMARK    4  A    between atoms: C_7  and  N_8
REMARK                            x       y       z     vdW  Elec       q    Type
REMARK                         _______ _______ _______ _____ _____    ______ ____
ROOT
ATOM      1  N   UNL     1       0.158  11.041  19.629  0.00  0.00    +0.000 N 
ATOM      2  C   UNL     1       1.102  11.902  18.873  0.00  0.00    +0.000 C 
ATOM      3  C   UNL     1       1.553  13.207  19.530  0.00  0.00    +0.000 C 
ATOM      4  C   UNL     1       0.380  14.071  19.823  0.00  0.00    +0.000 A 
ATOM      5  C   UNL     1      -0.617  13.689  20.702  0.00  0.00    +0.000 A 
ATOM      6  N   UNL     1      -1.560  14.689  20.695  0.00  0.00    +0.000 N 
ATOM      7  C   UNL     1      -1.177  15.714  19.860  0.00  0.00    +0.000 A 
ATOM      8  C   UNL     1      -1.817  16.926  19.571  0.00  0.00    +0.000 A 
ATOM      9  C   UNL     1      -1.192  17.787  18.664  0.00  0.00    +0.000 A 
ATOM     10  C   UNL     1       0.021  17.440  18.076  0.00  0.00    +0.000 A 
ATOM     11 BR   UNL     1       0.835  18.631  16.850  0.00  0.00    +0.000 Br
ATOM     12  C   UNL     1       0.652  16.227  18.372  0.00  0.00    +0.000 A 
ATOM     13  C   UNL     1       0.041  15.347  19.289  0.00  0.00    +0.000 A 
ATOM     14  C   UNL     1      -0.668  12.453  21.502  0.00  0.00    +0.000 A 
ATOM     15  C   UNL     1      -0.171  11.229  20.977  0.00  0.00    +0.000 A 
ATOM     16  C   UNL     1      -0.127  10.126  21.850  0.00  0.00    +0.000 A 
ATOM     17  C   UNL     1      -0.671  10.212  23.119  0.00  0.00    +0.000 A 
ATOM     18  N   UNL     1      -1.205  11.333  23.619  0.00  0.00    +0.000 NA
ATOM     19  C   UNL     1      -1.165  12.423  22.817  0.00  0.00    +0.000 A 
ATOM     20 CL   UNL     1      -1.814  13.803  23.631  0.00  0.00    +0.000 Cl
ATOM     21  H   UNL     1      -2.404  14.690  21.250  0.00  0.00    +0.000 HD
ENDROOT
BRANCH   1  22
ATOM     22  C   UNL     1      -0.227   9.787  18.937  0.00  0.00    +0.000 C 
BRANCH  22  23
ATOM     23  C   UNL     1      -0.607   9.988  17.457  0.00  0.00    +0.000 C 
BRANCH  23  27
ATOM     24  C   UNL     1      -4.638  11.371  16.915  0.00  0.00    +0.000 A 
ATOM     25  C   UNL     1      -3.944  10.849  15.830  0.00  0.00    +0.000 A 
ATOM     26  C   UNL     1      -2.626  10.424  16.000  0.00  0.00    +0.000 A 
ATOM     27  C   UNL     1      -2.009  10.513  17.261  0.00  0.00    +0.000 A 
ATOM     28  C   UNL     1      -2.714  11.052  18.336  0.00  0.00    +0.000 A 
ATOM     29  C   UNL     1      -4.031  11.479  18.163  0.00  0.00    +0.000 A 
BRANCH  24  30
ATOM     30  O   UNL     1      -5.930  11.787  16.799  0.00  0.00    +0.000 OA
ATOM     31  H   UNL     1      -6.511  11.090  17.143  0.00  0.00    +0.000 HD
ENDBRANCH  24  30
ENDBRANCH  23  27
ENDBRANCH  22  23
ENDBRANCH   1  22
TORSDOF 4
ENDMDL
MODEL 8
REMARK VINA RESULT:      -6.9      8.005     10.887
REMARK  Name = 
REMARK  4 active torsions:
REMARK  status: ('A' for Active; 'I' for Inactive)
REMARK    1  A    between atoms: O_1  and  C_2
REMARK    2  A    between atoms: C_5  and  C_6
REMARK    3  A    between atoms: C_6  and  C_7
REMARK    4  A    between atoms: C_7  and  N_8
REMARK                            x       y       z     vdW  Elec       q    Type
REMARK                         _______ _______ _______ _____ _____    ______ ____
ROOT
ATOM      1  N   UNL     1       9.733  12.807  18.333  0.00  0.00    +0.000 N 
ATOM      2  C   UNL     1       8.405  12.287  17.921  0.00  0.00    +0.000 C 
ATOM      3  C   UNL     1       7.518  13.200  17.074  0.00  0.00    +0.000 C 
ATOM      4  C   UNL     1       7.238  14.467  17.801  0.00  0.00    +0.000 A 
ATOM      5  C   UNL     1       8.239  15.355  18.149  0.00  0.00    +0.000 A 
ATOM      6  N   UNL     1       7.640  16.377  18.845  0.00  0.00    +0.000 N 
ATOM      7  C   UNL     1       6.280  16.182  18.925  0.00  0.00    +0.000 A 
ATOM      8  C   UNL     1       5.290  16.976  19.517  0.00  0.00    +0.000 A 
ATOM      9  C   UNL     1       3.970  16.520  19.452  0.00  0.00    +0.000 A 
ATOM     10  C   UNL     1       3.664  15.318  18.820  0.00  0.00    +0.000 A 
ATOM     11 BR   UNL     1       1.866  14.731  18.754  0.00  0.00    +0.000 Br
ATOM     12  C   UNL     1       4.661  14.533  18.230  0.00  0.00    +0.000 A 
ATOM     13  C   UNL     1       5.998  14.978  18.280  0.00  0.00    +0.000 A 
ATOM     14  C   UNL     1       9.673  15.242  17.834  0.00  0.00    +0.000 A 
ATOM     15  C   UNL     1      10.315  13.973  17.822  0.00  0.00    +0.000 A 
ATOM     16  C   UNL     1      11.650  13.932  17.378  0.00  0.00    +0.000 A 
ATOM     17  C   UNL     1      12.333  15.102  17.097  0.00  0.00    +0.000 A 
ATOM     18  N   UNL     1      11.774  16.317  17.161  0.00  0.00    +0.000 NA
ATOM     19  C   UNL     1      10.464  16.354  17.497  0.00  0.00    +0.000 A 
ATOM     20 CL   UNL     1       9.871  17.978  17.457  0.00  0.00    +0.000 Cl
ATOM     21  H   UNL     1       8.125  17.180  19.222  0.00  0.00    +0.000 HD
ENDROOT
BRANCH   1  22
ATOM     22  C   UNL     1      10.545  11.864  19.141  0.00  0.00    +0.000 C 
BRANCH  22  23
ATOM     23  C   UNL     1      10.817  12.355  20.576  0.00  0.00    +0.000 C 
BRANCH  23  27
ATOM     24  C   UNL     1       7.182  13.228  22.692  0.00  0.00    +0.000 A 
ATOM     25  C   UNL     1       7.856  14.255  22.042  0.00  0.00    +0.000 A 
ATOM     26  C   UNL     1       9.051  13.977  21.376  0.00  0.00    +0.000 A 
ATOM     27  C   UNL     1       9.562  12.666  21.355  0.00  0.00    +0.000 A 
ATOM     28  C   UNL     1       8.880  11.650  22.024  0.00  0.00    +0.000 A 
ATOM     29  C   UNL     1       7.688  11.932  22.691  0.00  0.00    +0.000 A 
BRANCH  24  30
ATOM     30  O   UNL     1       6.006  13.451  23.344  0.00  0.00    +0.000 OA
ATOM     31  H   UNL     1       6.106  14.241  23.899  0.00  0.00    +0.000 HD
ENDBRANCH  24  30
ENDBRANCH  23  27
ENDBRANCH  22  23
ENDBRANCH   1  22
TORSDOF 4
ENDMDL
MODEL 9
REMARK VINA RESULT:      -6.6      3.842      6.231
REMARK  Name = 
REMARK  4 active torsions:
REMARK  status: ('A' for Active; 'I' for Inactive)
REMARK    1  A    between atoms: O_1  and  C_2
REMARK    2  A    between atoms: C_5  and  C_6
REMARK    3  A    between atoms: C_6  and  C_7
REMARK    4  A    between atoms: C_7  and  N_8
REMARK                            x       y       z     vdW  Elec       q    Type
REMARK                         _______ _______ _______ _____ _____    ______ ____
ROOT
ATOM      1  N   UNL     1      -1.163  11.272  18.713  0.00  0.00    +0.000 N 
ATOM      2  C   UNL     1      -1.355  12.743  18.776  0.00  0.00    +0.000 C 
ATOM      3  C   UNL     1      -0.833  13.473  20.014  0.00  0.00    +0.000 C 
ATOM      4  C   UNL     1      -1.481  12.938  21.241  0.00  0.00    +0.000 A 
ATOM      5  C   UNL     1      -1.320  11.626  21.648  0.00  0.00    +0.000 A 
ATOM      6  N   UNL     1      -2.089  11.462  22.775  0.00  0.00    +0.000 N 
ATOM      7  C   UNL     1      -2.710  12.641  23.118  0.00  0.00    +0.000 A 
ATOM      8  C   UNL     1      -3.558  12.932  24.194  0.00  0.00    +0.000 A 
ATOM      9  C   UNL     1      -4.058  14.234  24.291  0.00  0.00    +0.000 A 
ATOM     10  C   UNL     1      -3.718  15.197  23.344  0.00  0.00    +0.000 A 
ATOM     11 BR   UNL     1      -4.417  16.949  23.505  0.00  0.00    +0.000 Br
ATOM     12  C   UNL     1      -2.870  14.896  22.273  0.00  0.00    +0.000 A 
ATOM     13  C   UNL     1      -2.351  13.590  22.161  0.00  0.00    +0.000 A 
ATOM     14  C   UNL     1      -0.485  10.595  21.008  0.00  0.00    +0.000 A 
ATOM     15  C   UNL     1      -0.352  10.546  19.593  0.00  0.00    +0.000 A 
ATOM     16  C   UNL     1       0.570   9.622  19.066  0.00  0.00    +0.000 A 
ATOM     17  C   UNL     1       1.211   8.718  19.895  0.00  0.00    +0.000 A 
ATOM     18  N   UNL     1       1.057   8.699  21.225  0.00  0.00    +0.000 NA
ATOM     19  C   UNL     1       0.243   9.646  21.746  0.00  0.00    +0.000 A 
ATOM     20 CL   UNL     1       0.212   9.541  23.472  0.00  0.00    +0.000 Cl
ATOM     21  H   UNL     1      -2.165  10.603  23.301  0.00  0.00    +0.000 HD
ENDROOT
BRANCH   1  22
ATOM     22  C   UNL     1      -1.682  10.631  17.479  0.00  0.00    +0.000 C 
BRANCH  22  23
ATOM     23  C   UNL     1      -2.927   9.753  17.716  0.00  0.00    +0.000 C 
BRANCH  23  27
ATOM     24  C   UNL     1      -6.567  12.030  17.837  0.00  0.00    +0.000 A 
ATOM     25  C   UNL     1      -6.435  10.911  18.651  0.00  0.00    +0.000 A 
ATOM     26  C   UNL     1      -5.263  10.156  18.593  0.00  0.00    +0.000 A 
ATOM     27  C   UNL     1      -4.220  10.531  17.726  0.00  0.00    +0.000 A 
ATOM     28  C   UNL     1      -4.374  11.648  16.906  0.00  0.00    +0.000 A 
ATOM     29  C   UNL     1      -5.549  12.399  16.963  0.00  0.00    +0.000 A 
BRANCH  24  30
ATOM     30  O   UNL     1      -7.688  12.803  17.869  0.00  0.00    +0.000 OA
ATOM     31  H   UNL     1      -7.678  13.394  17.099  0.00  0.00    +0.000 HD
ENDBRANCH  24  30
ENDBRANCH  23  27
ENDBRANCH  22  23
ENDBRANCH   1  22
TORSDOF 4
ENDMDL
