MODEL 1
REMARK VINA RESULT:      -7.2      0.000      0.000
REMARK  Name = 
REMARK  4 active torsions:
REMARK  status: ('A' for Active; 'I' for Inactive)
REMARK    1  A    between atoms: N_1  and  C_2
REMARK    2  A    between atoms: C_2  and  C_3
REMARK    3  A    between atoms: C_2  and  C_11
REMARK    4  A    between atoms: C_3  and  C_4
REMARK                            x       y       z     vdW  Elec       q    Type
REMARK                         _______ _______ _______ _____ _____    ______ ____
ROOT
ATOM      1  C   UNL     1       5.898   4.442  16.437  0.00  0.00    +0.000 C 
ENDROOT
BRANCH   1   2
ATOM      2  C   UNL     1       6.909   5.173  15.509  0.00  0.00    +0.000 C 
ATOM      3  O   UNL     1       7.604   6.108  15.906  0.00  0.00    +0.000 OA
ATOM      4  N   UNL     1       7.000   4.679  14.219  0.00  0.00    +0.000 N 
ATOM      5  C   UNL     1       7.901   5.228  13.205  0.00  0.00    +0.000 C 
ATOM      6  C   UNL     1       7.290   4.800  11.860  0.00  0.00    +0.000 C 
ATOM      7  C   UNL     1       6.489   3.565  12.185  0.00  0.00    +0.000 C 
ATOM      8  C   UNL     1       5.108   3.663  12.777  0.00  0.00    +0.000 C 
ATOM      9  C   UNL     1       6.294   3.551  13.681  0.00  0.00    +0.000 C 
ENDBRANCH   1   2
BRANCH   1  10
ATOM     10  N   UNL     1       6.598   4.063  17.690  0.00  0.00    +0.000 NA
ATOM     11  H   UNL     1       7.047   4.892  18.081  0.00  0.00    +0.000 HD
ATOM     12  H   UNL     1       7.361   3.427  17.451  0.00  0.00    +0.000 HD
ENDBRANCH   1  10
BRANCH   1  13
ATOM     13  C   UNL     1       4.662   5.332  16.708  0.00  0.00    +0.000 C 
BRANCH  13  14
ATOM     14  C   UNL     1       3.667   4.829  17.743  0.00  0.00    +0.000 A 
ATOM     15  C   UNL     1       2.876   3.711  17.431  0.00  0.00    +0.000 A 
ATOM     16  C   UNL     1       1.965   3.193  18.359  0.00  0.00    +0.000 A 
ATOM     17  C   UNL     1       1.845   3.781  19.613  0.00  0.00    +0.000 A 
ATOM     18 CL   UNL     1       0.723   3.148  20.753  0.00  0.00    +0.000 Cl
ATOM     19  C   UNL     1       2.632   4.878  19.951  0.00  0.00    +0.000 A 
ATOM     20  C   UNL     1       3.549   5.392  19.023  0.00  0.00    +0.000 A 
ENDBRANCH  13  14
ENDBRANCH   1  13
TORSDOF 4
ENDMDL
MODEL 2
REMARK VINA RESULT:      -7.1      0.299      1.155
REMARK  Name = 
REMARK  4 active torsions:
REMARK  status: ('A' for Active; 'I' for Inactive)
REMARK    1  A    between atoms: N_1  and  C_2
REMARK    2  A    between atoms: C_2  and  C_3
REMARK    3  A    between atoms: C_2  and  C_11
REMARK    4  A    between atoms: C_3  and  C_4
REMARK                            x       y       z     vdW  Elec       q    Type
REMARK                         _______ _______ _______ _____ _____    ______ ____
ROOT
ATOM      1  C   UNL     1       5.954   4.475  16.362  0.00  0.00    +0.000 C 
ENDROOT
BRANCH   1   2
ATOM      2  C   UNL     1       6.949   5.207  15.418  0.00  0.00    +0.000 C 
ATOM      3  O   UNL     1       7.634   6.156  15.798  0.00  0.00    +0.000 OA
ATOM      4  N   UNL     1       7.038   4.698  14.133  0.00  0.00    +0.000 N 
ATOM      5  C   UNL     1       7.924   5.247  13.106  0.00  0.00    +0.000 C 
ATOM      6  C   UNL     1       7.309   4.793  11.771  0.00  0.00    +0.000 C 
ATOM      7  C   UNL     1       6.528   3.551  12.117  0.00  0.00    +0.000 C 
ATOM      8  C   UNL     1       5.149   3.638  12.719  0.00  0.00    +0.000 C 
ATOM      9  C   UNL     1       6.343   3.554  13.615  0.00  0.00    +0.000 C 
ENDBRANCH   1   2
BRANCH   1  10
ATOM     10  N   UNL     1       6.668   4.122  17.616  0.00  0.00    +0.000 NA
ATOM     11  H   UNL     1       6.127   3.416  18.116  0.00  0.00    +0.000 HD
ATOM     12  H   UNL     1       6.672   4.943  18.223  0.00  0.00    +0.000 HD
ENDBRANCH   1  10
BRANCH   1  13
ATOM     13  C   UNL     1       4.708   5.351  16.630  0.00  0.00    +0.000 C 
BRANCH  13  14
ATOM     14  C   UNL     1       3.637   4.762  17.536  0.00  0.00    +0.000 A 
ATOM     15  C   UNL     1       3.188   5.521  18.630  0.00  0.00    +0.000 A 
ATOM     16  C   UNL     1       2.185   5.034  19.477  0.00  0.00    +0.000 A 
ATOM     17  C   UNL     1       1.613   3.792  19.232  0.00  0.00    +0.000 A 
ATOM     18 CL   UNL     1       0.383   3.192  20.275  0.00  0.00    +0.000 Cl
ATOM     19  C   UNL     1       2.030   3.032  18.143  0.00  0.00    +0.000 A 
ATOM     20  C   UNL     1       3.030   3.522  17.291  0.00  0.00    +0.000 A 
ENDBRANCH  13  14
ENDBRANCH   1  13
TORSDOF 4
ENDMDL
MODEL 3
REMARK VINA RESULT:      -7.1      2.829      3.785
REMARK  Name = 
REMARK  4 active torsions:
REMARK  status: ('A' for Active; 'I' for Inactive)
REMARK    1  A    between atoms: N_1  and  C_2
REMARK    2  A    between atoms: C_2  and  C_3
REMARK    3  A    between atoms: C_2  and  C_11
REMARK    4  A    between atoms: C_3  and  C_4
REMARK                            x       y       z     vdW  Elec       q    Type
REMARK                         _______ _______ _______ _____ _____    ______ ____
ROOT
ATOM      1  C   UNL     1       3.759   2.754  17.649  0.00  0.00    +0.000 C 
ENDROOT
BRANCH   1   2
ATOM      2  C   UNL     1       4.867   3.466  18.477  0.00  0.00    +0.000 C 
ATOM      3  O   UNL     1       4.957   3.336  19.697  0.00  0.00    +0.000 OA
ATOM      4  N   UNL     1       5.763   4.226  17.746  0.00  0.00    +0.000 N 
ATOM      5  C   UNL     1       6.876   4.962  18.345  0.00  0.00    +0.000 C 
ATOM      6  C   UNL     1       7.223   6.057  17.322  0.00  0.00    +0.000 C 
ATOM      7  C   UNL     1       6.744   5.507  16.003  0.00  0.00    +0.000 C 
ATOM      8  C   UNL     1       5.295   5.594  15.600  0.00  0.00    +0.000 C 
ATOM      9  C   UNL     1       5.791   4.380  16.319  0.00  0.00    +0.000 C 
ENDBRANCH   1   2
BRANCH   1  10
ATOM     10  N   UNL     1       3.350   1.523  18.372  0.00  0.00    +0.000 NA
ATOM     11  H   UNL     1       4.184   1.059  18.734  0.00  0.00    +0.000 HD
ATOM     12  H   UNL     1       2.949   0.872  17.695  0.00  0.00    +0.000 HD
ENDBRANCH   1  10
BRANCH   1  13
ATOM     13  C   UNL     1       2.566   3.705  17.399  0.00  0.00    +0.000 C 
BRANCH  13  14
ATOM     14  C   UNL     1       2.326   4.793  18.435  0.00  0.00    +0.000 A 
ATOM     15  C   UNL     1       2.646   6.121  18.106  0.00  0.00    +0.000 A 
ATOM     16  C   UNL     1       2.419   7.161  19.015  0.00  0.00    +0.000 A 
ATOM     17  C   UNL     1       1.859   6.885  20.256  0.00  0.00    +0.000 A 
ATOM     18 CL   UNL     1       1.583   8.163  21.375  0.00  0.00    +0.000 Cl
ATOM     19  C   UNL     1       1.517   5.579  20.597  0.00  0.00    +0.000 A 
ATOM     20  C   UNL     1       1.739   4.540  19.683  0.00  0.00    +0.000 A 
ENDBRANCH  13  14
ENDBRANCH   1  13
TORSDOF 4
ENDMDL
MODEL 4
REMARK VINA RESULT:      -7.1      4.199      6.111
REMARK  Name = 
REMARK  4 active torsions:
REMARK  status: ('A' for Active; 'I' for Inactive)
REMARK    1  A    between atoms: N_1  and  C_2
REMARK    2  A    between atoms: C_2  and  C_3
REMARK    3  A    between atoms: C_2  and  C_11
REMARK    4  A    between atoms: C_3  and  C_4
REMARK                            x       y       z     vdW  Elec       q    Type
REMARK                         _______ _______ _______ _____ _____    ______ ____
ROOT
ATOM      1  C   UNL     1       4.107   5.622  18.554  0.00  0.00    +0.000 C 
ENDROOT
BRANCH   1   2
ATOM      2  C   UNL     1       3.598   4.334  17.845  0.00  0.00    +0.000 C 
ATOM      3  O   UNL     1       3.960   4.026  16.711  0.00  0.00    +0.000 OA
ATOM      4  N   UNL     1       2.741   3.542  18.590  0.00  0.00    +0.000 N 
ATOM      5  C   UNL     1       2.166   2.290  18.098  0.00  0.00    +0.000 C 
ATOM      6  C   UNL     1       0.908   2.069  18.955  0.00  0.00    +0.000 C 
ATOM      7  C   UNL     1       1.183   2.823  20.231  0.00  0.00    +0.000 C 
ATOM      8  C   UNL     1       0.977   4.312  20.319  0.00  0.00    +0.000 C 
ATOM      9  C   UNL     1       2.320   3.772  19.943  0.00  0.00    +0.000 C 
ENDBRANCH   1   2
BRANCH   1  10
ATOM     10  N   UNL     1       5.580   5.521  18.713  0.00  0.00    +0.000 NA
ATOM     11  H   UNL     1       5.944   4.875  18.011  0.00  0.00    +0.000 HD
ATOM     12  H   UNL     1       5.775   5.082  19.614  0.00  0.00    +0.000 HD
ENDBRANCH   1  10
BRANCH   1  13
ATOM     13  C   UNL     1       3.693   6.883  17.760  0.00  0.00    +0.000 C 
BRANCH  13  14
ATOM     14  C   UNL     1       2.652   7.788  18.402  0.00  0.00    +0.000 A 
ATOM     15  C   UNL     1       2.276   7.545  19.734  0.00  0.00    +0.000 A 
ATOM     16  C   UNL     1       1.342   8.365  20.377  0.00  0.00    +0.000 A 
ATOM     17  C   UNL     1       0.783   9.442  19.699  0.00  0.00    +0.000 A 
ATOM     18 CL   UNL     1      -0.367  10.449  20.489  0.00  0.00    +0.000 Cl
ATOM     19  C   UNL     1       1.155   9.713  18.385  0.00  0.00    +0.000 A 
ATOM     20  C   UNL     1       2.095   8.895  17.744  0.00  0.00    +0.000 A 
ENDBRANCH  13  14
ENDBRANCH   1  13
TORSDOF 4
ENDMDL
MODEL 5
REMARK VINA RESULT:      -7.0      4.188      6.093
REMARK  Name = 
REMARK  4 active torsions:
REMARK  status: ('A' for Active; 'I' for Inactive)
REMARK    1  A    between atoms: N_1  and  C_2
REMARK    2  A    between atoms: C_2  and  C_3
REMARK    3  A    between atoms: C_2  and  C_11
REMARK    4  A    between atoms: C_3  and  C_4
REMARK                            x       y       z     vdW  Elec       q    Type
REMARK                         _______ _______ _______ _____ _____    ______ ____
ROOT
ATOM      1  C   UNL     1       4.103   5.630  18.512  0.00  0.00    +0.000 C 
ENDROOT
BRANCH   1   2
ATOM      2  C   UNL     1       3.600   4.335  17.811  0.00  0.00    +0.000 C 
ATOM      3  O   UNL     1       3.966   4.019  16.680  0.00  0.00    +0.000 OA
ATOM      4  N   UNL     1       2.744   3.546  18.560  0.00  0.00    +0.000 N 
ATOM      5  C   UNL     1       2.175   2.287  18.076  0.00  0.00    +0.000 C 
ATOM      6  C   UNL     1       0.915   2.069  18.930  0.00  0.00    +0.000 C 
ATOM      7  C   UNL     1       1.184   2.833  20.202  0.00  0.00    +0.000 C 
ATOM      8  C   UNL     1       0.973   4.322  20.278  0.00  0.00    +0.000 C 
ATOM      9  C   UNL     1       2.318   3.784  19.910  0.00  0.00    +0.000 C 
ENDBRANCH   1   2
BRANCH   1  10
ATOM     10  N   UNL     1       5.583   5.566  18.613  0.00  0.00    +0.000 NA
ATOM     11  H   UNL     1       5.979   6.407  18.192  0.00  0.00    +0.000 HD
ATOM     12  H   UNL     1       5.910   4.792  18.034  0.00  0.00    +0.000 HD
ENDBRANCH   1  10
BRANCH   1  13
ATOM     13  C   UNL     1       3.626   6.886  17.746  0.00  0.00    +0.000 C 
BRANCH  13  14
ATOM     14  C   UNL     1       2.640   7.795  18.464  0.00  0.00    +0.000 A 
ATOM     15  C   UNL     1       2.081   8.875  17.759  0.00  0.00    +0.000 A 
ATOM     16  C   UNL     1       1.149   9.724  18.368  0.00  0.00    +0.000 A 
ATOM     17  C   UNL     1       0.757   9.495  19.681  0.00  0.00    +0.000 A 
ATOM     18 CL   UNL     1      -0.386  10.539  20.430  0.00  0.00    +0.000 Cl
ATOM     19  C   UNL     1       1.284   8.419  20.392  0.00  0.00    +0.000 A 
ATOM     20  C   UNL     1       2.212   7.566  19.780  0.00  0.00    +0.000 A 
ENDBRANCH  13  14
ENDBRANCH   1  13
TORSDOF 4
ENDMDL
MODEL 6
REMARK VINA RESULT:      -6.9      2.969      3.883
REMARK  Name = 
REMARK  4 active torsions:
REMARK  status: ('A' for Active; 'I' for Inactive)
REMARK    1  A    between atoms: N_1  and  C_2
REMARK    2  A    between atoms: C_2  and  C_3
REMARK    3  A    between atoms: C_2  and  C_11
REMARK    4  A    between atoms: C_3  and  C_4
REMARK                            x       y       z     vdW  Elec       q    Type
REMARK                         _______ _______ _______ _____ _____    ______ ____
ROOT
ATOM      1  C   UNL     1       4.007   2.906  17.600  0.00  0.00    +0.000 C 
ENDROOT
BRANCH   1   2
ATOM      2  C   UNL     1       4.935   3.687  18.576  0.00  0.00    +0.000 C 
ATOM      3  O   UNL     1       4.887   3.524  19.794  0.00  0.00    +0.000 OA
ATOM      4  N   UNL     1       5.839   4.548  17.979  0.00  0.00    +0.000 N 
ATOM      5  C   UNL     1       6.798   5.360  18.728  0.00  0.00    +0.000 C 
ATOM      6  C   UNL     1       7.163   6.516  17.782  0.00  0.00    +0.000 C 
ATOM      7  C   UNL     1       6.901   5.971  16.401  0.00  0.00    +0.000 C 
ATOM      8  C   UNL     1       5.510   5.941  15.823  0.00  0.00    +0.000 C 
ATOM      9  C   UNL     1       6.026   4.753  16.570  0.00  0.00    +0.000 C 
ENDBRANCH   1   2
BRANCH   1  10
ATOM     10  N   UNL     1       3.881   1.509  18.088  0.00  0.00    +0.000 NA
ATOM     11  H   UNL     1       3.415   0.951  17.371  0.00  0.00    +0.000 HD
ATOM     12  H   UNL     1       3.249   1.506  18.889  0.00  0.00    +0.000 HD
ENDBRANCH   1  10
BRANCH   1  13
ATOM     13  C   UNL     1       2.633   3.605  17.476  0.00  0.00    +0.000 C 
BRANCH  13  14
ATOM     14  C   UNL     1       2.374   4.780  18.407  0.00  0.00    +0.000 A 
ATOM     15  C   UNL     1       1.827   4.528  19.677  0.00  0.00    +0.000 A 
ATOM     16  C   UNL     1       1.595   5.572  20.579  0.00  0.00    +0.000 A 
ATOM     17  C   UNL     1       1.917   6.877  20.226  0.00  0.00    +0.000 A 
ATOM     18 CL   UNL     1       1.629   8.162  21.333  0.00  0.00    +0.000 Cl
ATOM     19  C   UNL     1       2.477   7.148  18.980  0.00  0.00    +0.000 A 
ATOM     20  C   UNL     1       2.715   6.100  18.080  0.00  0.00    +0.000 A 
ENDBRANCH  13  14
ENDBRANCH   1  13
TORSDOF 4
ENDMDL
MODEL 7
REMARK VINA RESULT:      -6.8      3.732      6.605
REMARK  Name = 
REMARK  4 active torsions:
REMARK  status: ('A' for Active; 'I' for Inactive)
REMARK    1  A    between atoms: N_1  and  C_2
REMARK    2  A    between atoms: C_2  and  C_3
REMARK    3  A    between atoms: C_2  and  C_11
REMARK    4  A    between atoms: C_3  and  C_4
REMARK                            x       y       z     vdW  Elec       q    Type
REMARK                         _______ _______ _______ _____ _____    ______ ____
ROOT
ATOM      1  C   UNL     1       3.022   6.483  18.064  0.00  0.00    +0.000 C 
ENDROOT
BRANCH   1   2
ATOM      2  C   UNL     1       2.360   6.001  19.386  0.00  0.00    +0.000 C 
ATOM      3  O   UNL     1       2.375   6.682  20.411  0.00  0.00    +0.000 OA
ATOM      4  N   UNL     1       1.723   4.774  19.322  0.00  0.00    +0.000 N 
ATOM      5  C   UNL     1       1.036   4.159  20.457  0.00  0.00    +0.000 C 
ATOM      6  C   UNL     1       0.995   2.657  20.130  0.00  0.00    +0.000 C 
ATOM      7  C   UNL     1       1.079   2.597  18.626  0.00  0.00    +0.000 C 
ATOM      8  C   UNL     1       2.400   2.713  17.911  0.00  0.00    +0.000 C 
ATOM      9  C   UNL     1       1.583   3.941  18.161  0.00  0.00    +0.000 C 
ENDBRANCH   1   2
BRANCH   1  10
ATOM     10  N   UNL     1       2.834   7.952  17.951  0.00  0.00    +0.000 NA
ATOM     11  H   UNL     1       2.458   8.166  17.027  0.00  0.00    +0.000 HD
ATOM     12  H   UNL     1       3.754   8.395  17.980  0.00  0.00    +0.000 HD
ENDBRANCH   1  10
BRANCH   1  13
ATOM     13  C   UNL     1       4.516   6.084  18.023  0.00  0.00    +0.000 C 
BRANCH  13  14
ATOM     14  C   UNL     1       5.017   5.428  16.745  0.00  0.00    +0.000 A 
ATOM     15  C   UNL     1       5.153   6.217  15.590  0.00  0.00    +0.000 A 
ATOM     16  C   UNL     1       5.635   5.667  14.397  0.00  0.00    +0.000 A 
ATOM     17  C   UNL     1       5.997   4.326  14.350  0.00  0.00    +0.000 A 
ATOM     18 CL   UNL     1       6.587   3.648  12.883  0.00  0.00    +0.000 Cl
ATOM     19  C   UNL     1       5.889   3.531  15.487  0.00  0.00    +0.000 A 
ATOM     20  C   UNL     1       5.412   4.084  16.683  0.00  0.00    +0.000 A 
ENDBRANCH  13  14
ENDBRANCH   1  13
TORSDOF 4
ENDMDL
MODEL 8
REMARK VINA RESULT:      -6.6      3.217      4.434
REMARK  Name = 
REMARK  4 active torsions:
REMARK  status: ('A' for Active; 'I' for Inactive)
REMARK    1  A    between atoms: N_1  and  C_2
REMARK    2  A    between atoms: C_2  and  C_3
REMARK    3  A    between atoms: C_2  and  C_11
REMARK    4  A    between atoms: C_3  and  C_4
REMARK                            x       y       z     vdW  Elec       q    Type
REMARK                         _______ _______ _______ _____ _____    ______ ____
ROOT
ATOM      1  C   UNL     1       3.407   4.567  18.621  0.00  0.00    +0.000 C 
ENDROOT
BRANCH   1   2
ATOM      2  C   UNL     1       4.931   4.260  18.563  0.00  0.00    +0.000 C 
ATOM      3  O   UNL     1       5.533   3.758  19.511  0.00  0.00    +0.000 OA
ATOM      4  N   UNL     1       5.553   4.555  17.362  0.00  0.00    +0.000 N 
ATOM      5  C   UNL     1       6.977   4.327  17.113  0.00  0.00    +0.000 C 
ATOM      6  C   UNL     1       7.332   5.275  15.955  0.00  0.00    +0.000 C 
ATOM      7  C   UNL     1       6.027   5.497  15.234  0.00  0.00    +0.000 C 
ATOM      8  C   UNL     1       5.016   6.494  15.737  0.00  0.00    +0.000 C 
ATOM      9  C   UNL     1       4.928   5.068  16.176  0.00  0.00    +0.000 C 
ENDBRANCH   1   2
BRANCH   1  10
ATOM     10  N   UNL     1       2.671   3.281  18.716  0.00  0.00    +0.000 NA
ATOM     11  H   UNL     1       2.473   3.086  19.698  0.00  0.00    +0.000 HD
ATOM     12  H   UNL     1       3.294   2.532  18.410  0.00  0.00    +0.000 HD
ENDBRANCH   1  10
BRANCH   1  13
ATOM     13  C   UNL     1       3.084   5.510  19.804  0.00  0.00    +0.000 C 
BRANCH  13  14
ATOM     14  C   UNL     1       2.443   6.847  19.462  0.00  0.00    +0.000 A 
ATOM     15  C   UNL     1       1.789   7.562  20.480  0.00  0.00    +0.000 A 
ATOM     16  C   UNL     1       1.208   8.808  20.221  0.00  0.00    +0.000 A 
ATOM     17  C   UNL     1       1.283   9.357  18.947  0.00  0.00    +0.000 A 
ATOM     18 CL   UNL     1       0.566  10.888  18.628  0.00  0.00    +0.000 Cl
ATOM     19  C   UNL     1       1.942   8.675  17.928  0.00  0.00    +0.000 A 
ATOM     20  C   UNL     1       2.531   7.429  18.189  0.00  0.00    +0.000 A 
ENDBRANCH  13  14
ENDBRANCH   1  13
TORSDOF 4
ENDMDL
MODEL 9
REMARK VINA RESULT:      -6.6      3.581      6.601
REMARK  Name = 
REMARK  4 active torsions:
REMARK  status: ('A' for Active; 'I' for Inactive)
REMARK    1  A    between atoms: N_1  and  C_2
REMARK    2  A    between atoms: C_2  and  C_3
REMARK    3  A    between atoms: C_2  and  C_11
REMARK    4  A    between atoms: C_3  and  C_4
REMARK                            x       y       z     vdW  Elec       q    Type
REMARK                         _______ _______ _______ _____ _____    ______ ____
ROOT
ATOM      1  C   UNL     1       3.469   6.100  17.805  0.00  0.00    +0.000 C 
ENDROOT
BRANCH   1   2
ATOM      2  C   UNL     1       2.709   5.820  19.134  0.00  0.00    +0.000 C 
ATOM      3  O   UNL     1       2.759   6.592  20.090  0.00  0.00    +0.000 OA
ATOM      4  N   UNL     1       1.947   4.665  19.154  0.00  0.00    +0.000 N 
ATOM      5  C   UNL     1       1.156   4.239  20.308  0.00  0.00    +0.000 C 
ATOM      6  C   UNL     1       0.965   2.725  20.119  0.00  0.00    +0.000 C 
ATOM      7  C   UNL     1       1.098   2.509  18.633  0.00  0.00    +0.000 C 
ATOM      8  C   UNL     1       2.449   2.418  17.975  0.00  0.00    +0.000 C 
ATOM      9  C   UNL     1       1.761   3.742  18.070  0.00  0.00    +0.000 C 
ENDBRANCH   1   2
BRANCH   1  10
ATOM     10  N   UNL     1       3.519   7.568  17.592  0.00  0.00    +0.000 NA
ATOM     11  H   UNL     1       3.270   8.037  18.464  0.00  0.00    +0.000 HD
ATOM     12  H   UNL     1       2.785   7.821  16.928  0.00  0.00    +0.000 HD
ENDBRANCH   1  10
BRANCH   1  13
ATOM     13  C   UNL     1       4.881   5.469  17.839  0.00  0.00    +0.000 C 
BRANCH  13  14
ATOM     14  C   UNL     1       5.495   5.088  16.500  0.00  0.00    +0.000 A 
ATOM     15  C   UNL     1       4.708   4.386  15.572  0.00  0.00    +0.000 A 
ATOM     16  C   UNL     1       5.219   4.037  14.316  0.00  0.00    +0.000 A 
ATOM     17  C   UNL     1       6.517   4.396  13.973  0.00  0.00    +0.000 A 
ATOM     18 CL   UNL     1       7.147   3.964  12.431  0.00  0.00    +0.000 Cl
ATOM     19  C   UNL     1       7.308   5.108  14.870  0.00  0.00    +0.000 A 
ATOM     20  C   UNL     1       6.793   5.463  16.124  0.00  0.00    +0.000 A 
ENDBRANCH  13  14
ENDBRANCH   1  13
TORSDOF 4
ENDMDL
