MODEL 1
REMARK VINA RESULT:      -6.6      0.000      0.000
REMARK  Name = 
REMARK  6 active torsions:
REMARK  status: ('A' for Active; 'I' for Inactive)
REMARK    1  A    between atoms: C_1  and  O_2
REMARK    2  A    between atoms: O_2  and  C_3
REMARK    3  A    between atoms: C_3  and  C_5
REMARK    4  A    between atoms: C_6  and  N_7
REMARK    5  A    between atoms: C_12  and  C_13
REMARK    6  A    between atoms: C_12  and  C_14
REMARK                            x       y       z     vdW  Elec       q    Type
REMARK                         _______ _______ _______ _____ _____    ______ ____
ROOT
ATOM      1  C   UNL     1       6.466   5.769  17.084  0.00  0.00    +0.000 A 
ATOM      2  C   UNL     1       6.669   5.282  15.794  0.00  0.00    +0.000 A 
ATOM      3  S   UNL     1       5.418   4.231  15.284  0.00  0.00    +0.000 S 
ATOM      4  C   UNL     1       4.609   4.363  16.760  0.00  0.00    +0.000 A 
ATOM      5  C   UNL     1       5.264   5.185  17.656  0.00  0.00    +0.000 A 
ATOM      6  C   UNL     1       4.677   5.391  19.028  0.00  0.00    +0.000 C 
ATOM      7  C   UNL     1       3.623   4.291  19.354  0.00  0.00    +0.000 C 
ATOM      8  C   UNL     1       2.714   4.755  20.500  0.00  0.00    +0.000 C 
ATOM      9  C   UNL     1       4.284   2.967  19.776  0.00  0.00    +0.000 C 
ATOM     10  O   UNL     1       2.738   4.099  18.228  0.00  0.00    +0.000 OA
ATOM     11  C   UNL     1       3.357   3.600  17.032  0.00  0.00    +0.000 C 
ENDROOT
BRANCH   2  12
ATOM     12  N   UNL     1       7.684   5.525  14.941  0.00  0.00    +0.000 N 
ATOM     13  H   UNL     1       7.508   5.866  13.998  0.00  0.00    +0.000 HD
ATOM     14  H   UNL     1       8.593   5.099  15.090  0.00  0.00    +0.000 HD
ENDBRANCH   2  12
BRANCH   1  15
ATOM     15  C   UNL     1       7.352   6.722  17.770  0.00  0.00    +0.000 C 
ATOM     16  O   UNL     1       7.971   6.445  18.795  0.00  0.00    +0.000 OA
BRANCH  15  18
ATOM     17  C   UNL     1       8.146   8.947  17.881  0.00  0.00    +0.000 C 
ATOM     18  O   UNL     1       7.409   7.952  17.167  0.00  0.00    +0.000 OA
ENDBRANCH  15  18
ENDBRANCH   1  15
TORSDOF 3
ENDMDL
MODEL 2
REMARK VINA RESULT:      -6.6      1.085      1.181
REMARK  Name = 
REMARK  6 active torsions:
REMARK  status: ('A' for Active; 'I' for Inactive)
REMARK    1  A    between atoms: C_1  and  O_2
REMARK    2  A    between atoms: O_2  and  C_3
REMARK    3  A    between atoms: C_3  and  C_5
REMARK    4  A    between atoms: C_6  and  N_7
REMARK    5  A    between atoms: C_12  and  C_13
REMARK    6  A    between atoms: C_12  and  C_14
REMARK                            x       y       z     vdW  Elec       q    Type
REMARK                         _______ _______ _______ _____ _____    ______ ____
ROOT
ATOM      1  C   UNL     1       6.309   5.118  18.023  0.00  0.00    +0.000 A 
ATOM      2  C   UNL     1       6.598   4.579  16.771  0.00  0.00    +0.000 A 
ATOM      3  S   UNL     1       5.217   3.915  16.008  0.00  0.00    +0.000 S 
ATOM      4  C   UNL     1       4.224   4.286  17.322  0.00  0.00    +0.000 A 
ATOM      5  C   UNL     1       4.909   4.903  18.351  0.00  0.00    +0.000 A 
ATOM      6  C   UNL     1       4.166   5.282  19.605  0.00  0.00    +0.000 C 
ATOM      7  C   UNL     1       2.807   4.526  19.697  0.00  0.00    +0.000 C 
ATOM      8  C   UNL     1       1.872   5.241  20.682  0.00  0.00    +0.000 C 
ATOM      9  C   UNL     1       2.987   3.075  20.177  0.00  0.00    +0.000 C 
ATOM     10  O   UNL     1       2.121   4.576  18.426  0.00  0.00    +0.000 OA
ATOM     11  C   UNL     1       2.782   3.909  17.339  0.00  0.00    +0.000 C 
ENDROOT
BRANCH   2  12
ATOM     12  N   UNL     1       7.777   4.517  16.120  0.00  0.00    +0.000 N 
ATOM     13  H   UNL     1       8.617   4.183  16.585  0.00  0.00    +0.000 HD
ATOM     14  H   UNL     1       7.930   5.070  15.282  0.00  0.00    +0.000 HD
ENDBRANCH   2  12
BRANCH   1  15
ATOM     15  C   UNL     1       7.287   5.793  18.890  0.00  0.00    +0.000 C 
ATOM     16  O   UNL     1       7.394   5.557  20.092  0.00  0.00    +0.000 OA
BRANCH  15  18
ATOM     17  C   UNL     1       7.345   7.852  17.728  0.00  0.00    +0.000 C 
ATOM     18  O   UNL     1       8.055   6.721  18.236  0.00  0.00    +0.000 OA
ENDBRANCH  15  18
ENDBRANCH   1  15
TORSDOF 3
ENDMDL
MODEL 3
REMARK VINA RESULT:      -6.4      3.085      5.504
REMARK  Name = 
REMARK  6 active torsions:
REMARK  status: ('A' for Active; 'I' for Inactive)
REMARK    1  A    between atoms: C_1  and  O_2
REMARK    2  A    between atoms: O_2  and  C_3
REMARK    3  A    between atoms: C_3  and  C_5
REMARK    4  A    between atoms: C_6  and  N_7
REMARK    5  A    between atoms: C_12  and  C_13
REMARK    6  A    between atoms: C_12  and  C_14
REMARK                            x       y       z     vdW  Elec       q    Type
REMARK                         _______ _______ _______ _____ _____    ______ ____
ROOT
ATOM      1  C   UNL     1       3.055   4.168  18.231  0.00  0.00    +0.000 A 
ATOM      2  C   UNL     1       2.564   5.209  19.017  0.00  0.00    +0.000 A 
ATOM      3  S   UNL     1       3.179   6.735  18.545  0.00  0.00    +0.000 S 
ATOM      4  C   UNL     1       4.132   6.053  17.329  0.00  0.00    +0.000 A 
ATOM      5  C   UNL     1       4.011   4.680  17.263  0.00  0.00    +0.000 A 
ATOM      6  C   UNL     1       4.812   3.919  16.239  0.00  0.00    +0.000 C 
ATOM      7  C   UNL     1       5.981   4.790  15.688  0.00  0.00    +0.000 C 
ATOM      8  C   UNL     1       6.481   4.218  14.354  0.00  0.00    +0.000 C 
ATOM      9  C   UNL     1       7.171   4.841  16.662  0.00  0.00    +0.000 C 
ATOM     10  O   UNL     1       5.507   6.119  15.371  0.00  0.00    +0.000 OA
ATOM     11  C   UNL     1       5.035   6.890  16.487  0.00  0.00    +0.000 C 
ENDROOT
BRANCH   2  12
ATOM     12  N   UNL     1       1.706   5.162  20.056  0.00  0.00    +0.000 N 
ATOM     13  H   UNL     1       1.853   4.520  20.831  0.00  0.00    +0.000 HD
ATOM     14  H   UNL     1       0.761   5.521  19.957  0.00  0.00    +0.000 HD
ENDBRANCH   2  12
BRANCH   1  15
ATOM     15  C   UNL     1       2.671   2.756  18.376  0.00  0.00    +0.000 C 
ATOM     16  O   UNL     1       2.140   2.109  17.476  0.00  0.00    +0.000 OA
BRANCH  15  18
ATOM     17  C   UNL     1       4.330   2.189  19.963  0.00  0.00    +0.000 C 
ATOM     18  O   UNL     1       2.946   2.234  19.614  0.00  0.00    +0.000 OA
ENDBRANCH  15  18
ENDBRANCH   1  15
TORSDOF 3
ENDMDL
MODEL 4
REMARK VINA RESULT:      -6.2      3.163      5.587
REMARK  Name = 
REMARK  6 active torsions:
REMARK  status: ('A' for Active; 'I' for Inactive)
REMARK    1  A    between atoms: C_1  and  O_2
REMARK    2  A    between atoms: O_2  and  C_3
REMARK    3  A    between atoms: C_3  and  C_5
REMARK    4  A    between atoms: C_6  and  N_7
REMARK    5  A    between atoms: C_12  and  C_13
REMARK    6  A    between atoms: C_12  and  C_14
REMARK                            x       y       z     vdW  Elec       q    Type
REMARK                         _______ _______ _______ _____ _____    ______ ____
ROOT
ATOM      1  C   UNL     1       3.387   4.065  18.973  0.00  0.00    +0.000 A 
ATOM      2  C   UNL     1       2.953   5.154  19.725  0.00  0.00    +0.000 A 
ATOM      3  S   UNL     1       3.356   6.653  19.005  0.00  0.00    +0.000 S 
ATOM      4  C   UNL     1       4.144   5.901  17.714  0.00  0.00    +0.000 A 
ATOM      5  C   UNL     1       4.123   4.524  17.806  0.00  0.00    +0.000 A 
ATOM      6  C   UNL     1       4.801   3.706  16.738  0.00  0.00    +0.000 C 
ATOM      7  C   UNL     1       5.787   4.581  15.908  0.00  0.00    +0.000 C 
ATOM      8  C   UNL     1       6.102   3.897  14.571  0.00  0.00    +0.000 C 
ATOM      9  C   UNL     1       7.115   4.813  16.650  0.00  0.00    +0.000 C 
ATOM     10  O   UNL     1       5.163   5.834  15.550  0.00  0.00    +0.000 OA
ATOM     11  C   UNL     1       4.823   6.693  16.650  0.00  0.00    +0.000 C 
ENDROOT
BRANCH   2  12
ATOM     12  N   UNL     1       2.287   5.170  20.898  0.00  0.00    +0.000 N 
ATOM     13  H   UNL     1       2.770   5.007  21.778  0.00  0.00    +0.000 HD
ATOM     14  H   UNL     1       1.280   5.036  20.918  0.00  0.00    +0.000 HD
ENDBRANCH   2  12
BRANCH   1  15
ATOM     15  C   UNL     1       3.147   2.656  19.321  0.00  0.00    +0.000 C 
ATOM     16  O   UNL     1       4.009   1.785  19.227  0.00  0.00    +0.000 OA
BRANCH  15  18
ATOM     17  C   UNL     1       0.878   2.380  18.714  0.00  0.00    +0.000 C 
ATOM     18  O   UNL     1       1.867   2.403  19.744  0.00  0.00    +0.000 OA
ENDBRANCH  15  18
ENDBRANCH   1  15
TORSDOF 3
ENDMDL
MODEL 5
REMARK VINA RESULT:      -6.1      3.189      5.589
REMARK  Name = 
REMARK  6 active torsions:
REMARK  status: ('A' for Active; 'I' for Inactive)
REMARK    1  A    between atoms: C_1  and  O_2
REMARK    2  A    between atoms: O_2  and  C_3
REMARK    3  A    between atoms: C_3  and  C_5
REMARK    4  A    between atoms: C_6  and  N_7
REMARK    5  A    between atoms: C_12  and  C_13
REMARK    6  A    between atoms: C_12  and  C_14
REMARK                            x       y       z     vdW  Elec       q    Type
REMARK                         _______ _______ _______ _____ _____    ______ ____
ROOT
ATOM      1  C   UNL     1       3.009   4.513  18.924  0.00  0.00    +0.000 A 
ATOM      2  C   UNL     1       2.589   5.696  19.529  0.00  0.00    +0.000 A 
ATOM      3  S   UNL     1       3.162   7.089  18.717  0.00  0.00    +0.000 S 
ATOM      4  C   UNL     1       4.006   6.167  17.581  0.00  0.00    +0.000 A 
ATOM      5  C   UNL     1       3.878   4.809  17.796  0.00  0.00    +0.000 A 
ATOM      6  C   UNL     1       4.588   3.849  16.877  0.00  0.00    +0.000 C 
ATOM      7  C   UNL     1       5.706   4.576  16.070  0.00  0.00    +0.000 C 
ATOM      8  C   UNL     1       6.089   3.746  14.837  0.00  0.00    +0.000 C 
ATOM      9  C   UNL     1       6.975   4.795  16.911  0.00  0.00    +0.000 C 
ATOM     10  O   UNL     1       5.207   5.825  15.540  0.00  0.00    +0.000 OA
ATOM     11  C   UNL     1       4.833   6.807  16.520  0.00  0.00    +0.000 C 
ENDROOT
BRANCH   2  12
ATOM     12  N   UNL     1       1.823   5.867  20.625  0.00  0.00    +0.000 N 
ATOM     13  H   UNL     1       1.862   6.730  21.163  0.00  0.00    +0.000 HD
ATOM     14  H   UNL     1       1.436   5.064  21.111  0.00  0.00    +0.000 HD
ENDBRANCH   2  12
BRANCH   1  15
ATOM     15  C   UNL     1       2.638   3.163  19.374  0.00  0.00    +0.000 C 
ATOM     16  O   UNL     1       2.043   2.357  18.662  0.00  0.00    +0.000 OA
BRANCH  15  18
ATOM     17  C   UNL     1       1.929   2.573  21.552  0.00  0.00    +0.000 C 
ATOM     18  O   UNL     1       3.005   2.893  20.667  0.00  0.00    +0.000 OA
ENDBRANCH  15  18
ENDBRANCH   1  15
TORSDOF 3
ENDMDL
MODEL 6
REMARK VINA RESULT:      -6.0      1.247      1.528
REMARK  Name = 
REMARK  6 active torsions:
REMARK  status: ('A' for Active; 'I' for Inactive)
REMARK    1  A    between atoms: C_1  and  O_2
REMARK    2  A    between atoms: O_2  and  C_3
REMARK    3  A    between atoms: C_3  and  C_5
REMARK    4  A    between atoms: C_6  and  N_7
REMARK    5  A    between atoms: C_12  and  C_13
REMARK    6  A    between atoms: C_12  and  C_14
REMARK                            x       y       z     vdW  Elec       q    Type
REMARK                         _______ _______ _______ _____ _____    ______ ____
ROOT
ATOM      1  C   UNL     1       6.549   4.600  17.239  0.00  0.00    +0.000 A 
ATOM      2  C   UNL     1       6.484   4.828  15.866  0.00  0.00    +0.000 A 
ATOM      3  S   UNL     1       4.910   4.599  15.235  0.00  0.00    +0.000 S 
ATOM      4  C   UNL     1       4.293   4.156  16.744  0.00  0.00    +0.000 A 
ATOM      5  C   UNL     1       5.253   4.166  17.736  0.00  0.00    +0.000 A 
ATOM      6  C   UNL     1       4.865   3.777  19.139  0.00  0.00    +0.000 C 
ATOM      7  C   UNL     1       3.506   3.015  19.148  0.00  0.00    +0.000 C 
ATOM      8  C   UNL     1       2.897   3.042  20.557  0.00  0.00    +0.000 C 
ATOM      9  C   UNL     1       3.667   1.544  18.726  0.00  0.00    +0.000 C 
ATOM     10  O   UNL     1       2.545   3.697  18.312  0.00  0.00    +0.000 OA
ATOM     11  C   UNL     1       2.869   3.750  16.914  0.00  0.00    +0.000 C 
ENDROOT
BRANCH   2  12
ATOM     12  N   UNL     1       7.465   5.188  15.014  0.00  0.00    +0.000 N 
ATOM     13  H   UNL     1       8.249   5.757  15.325  0.00  0.00    +0.000 HD
ATOM     14  H   UNL     1       7.305   5.172  14.011  0.00  0.00    +0.000 HD
ENDBRANCH   2  12
BRANCH   1  15
ATOM     15  C   UNL     1       7.759   4.760  18.059  0.00  0.00    +0.000 C 
ATOM     16  O   UNL     1       8.727   4.007  17.983  0.00  0.00    +0.000 OA
BRANCH  15  18
ATOM     17  C   UNL     1       7.929   7.102  18.345  0.00  0.00    +0.000 C 
ATOM     18  O   UNL     1       7.698   5.819  18.929  0.00  0.00    +0.000 OA
ENDBRANCH  15  18
ENDBRANCH   1  15
TORSDOF 3
ENDMDL
MODEL 7
REMARK VINA RESULT:      -6.0      2.291      3.287
REMARK  Name = 
REMARK  6 active torsions:
REMARK  status: ('A' for Active; 'I' for Inactive)
REMARK    1  A    between atoms: C_1  and  O_2
REMARK    2  A    between atoms: O_2  and  C_3
REMARK    3  A    between atoms: C_3  and  C_5
REMARK    4  A    between atoms: C_6  and  N_7
REMARK    5  A    between atoms: C_12  and  C_13
REMARK    6  A    between atoms: C_12  and  C_14
REMARK                            x       y       z     vdW  Elec       q    Type
REMARK                         _______ _______ _______ _____ _____    ______ ____
ROOT
ATOM      1  C   UNL     1       5.613   5.507  16.680  0.00  0.00    +0.000 A 
ATOM      2  C   UNL     1       6.699   6.005  17.398  0.00  0.00    +0.000 A 
ATOM      3  S   UNL     1       6.753   5.413  19.002  0.00  0.00    +0.000 S 
ATOM      4  C   UNL     1       5.331   4.525  18.798  0.00  0.00    +0.000 A 
ATOM      5  C   UNL     1       4.793   4.664  17.534  0.00  0.00    +0.000 A 
ATOM      6  C   UNL     1       3.511   3.948  17.198  0.00  0.00    +0.000 C 
ATOM      7  C   UNL     1       2.774   3.490  18.492  0.00  0.00    +0.000 C 
ATOM      8  C   UNL     1       1.761   2.386  18.159  0.00  0.00    +0.000 C 
ATOM      9  C   UNL     1       2.015   4.648  19.163  0.00  0.00    +0.000 C 
ATOM     10  O   UNL     1       3.708   2.876  19.409  0.00  0.00    +0.000 OA
ATOM     11  C   UNL     1       4.735   3.742  19.917  0.00  0.00    +0.000 C 
ENDROOT
BRANCH   2  12
ATOM     12  N   UNL     1       7.665   6.858  17.001  0.00  0.00    +0.000 N 
ATOM     13  H   UNL     1       8.630   6.735  17.300  0.00  0.00    +0.000 HD
ATOM     14  H   UNL     1       7.424   7.787  16.668  0.00  0.00    +0.000 HD
ENDBRANCH   2  12
BRANCH   1  15
ATOM     15  C   UNL     1       5.333   5.808  15.268  0.00  0.00    +0.000 C 
ATOM     16  O   UNL     1       5.147   6.948  14.847  0.00  0.00    +0.000 OA
BRANCH  15  18
ATOM     17  C   UNL     1       6.551   4.139  14.116  0.00  0.00    +0.000 C 
ATOM     18  O   UNL     1       5.283   4.695  14.467  0.00  0.00    +0.000 OA
ENDBRANCH  15  18
ENDBRANCH   1  15
TORSDOF 3
ENDMDL
MODEL 8
REMARK VINA RESULT:      -5.9      2.439      3.159
REMARK  Name = 
REMARK  6 active torsions:
REMARK  status: ('A' for Active; 'I' for Inactive)
REMARK    1  A    between atoms: C_1  and  O_2
REMARK    2  A    between atoms: O_2  and  C_3
REMARK    3  A    between atoms: C_3  and  C_5
REMARK    4  A    between atoms: C_6  and  N_7
REMARK    5  A    between atoms: C_12  and  C_13
REMARK    6  A    between atoms: C_12  and  C_14
REMARK                            x       y       z     vdW  Elec       q    Type
REMARK                         _______ _______ _______ _____ _____    ______ ____
ROOT
ATOM      1  C   UNL     1       4.775   5.320  17.657  0.00  0.00    +0.000 A 
ATOM      2  C   UNL     1       4.533   6.549  17.046  0.00  0.00    +0.000 A 
ATOM      3  S   UNL     1       3.273   7.424  17.805  0.00  0.00    +0.000 S 
ATOM      4  C   UNL     1       2.996   6.190  18.925  0.00  0.00    +0.000 A 
ATOM      5  C   UNL     1       3.832   5.107  18.743  0.00  0.00    +0.000 A 
ATOM      6  C   UNL     1       3.698   3.913  19.653  0.00  0.00    +0.000 C 
ATOM      7  C   UNL     1       2.331   3.934  20.400  0.00  0.00    +0.000 C 
ATOM      8  C   UNL     1       2.390   3.023  21.633  0.00  0.00    +0.000 C 
ATOM      9  C   UNL     1       1.177   3.451  19.504  0.00  0.00    +0.000 C 
ATOM     10  O   UNL     1       2.068   5.256  20.923  0.00  0.00    +0.000 OA
ATOM     11  C   UNL     1       1.909   6.291  19.940  0.00  0.00    +0.000 C 
ENDROOT
BRANCH   2  12
ATOM     12  N   UNL     1       5.139   7.104  15.977  0.00  0.00    +0.000 N 
ATOM     13  H   UNL     1       6.081   7.483  16.045  0.00  0.00    +0.000 HD
ATOM     14  H   UNL     1       4.590   7.434  15.189  0.00  0.00    +0.000 HD
ENDBRANCH   2  12
BRANCH   1  15
ATOM     15  C   UNL     1       5.825   4.374  17.250  0.00  0.00    +0.000 C 
ATOM     16  O   UNL     1       5.816   3.785  16.171  0.00  0.00    +0.000 OA
BRANCH  15  18
ATOM     17  C   UNL     1       7.607   5.347  18.463  0.00  0.00    +0.000 C 
ATOM     18  O   UNL     1       6.804   4.196  18.194  0.00  0.00    +0.000 OA
ENDBRANCH  15  18
ENDBRANCH   1  15
TORSDOF 3
ENDMDL
MODEL 9
REMARK VINA RESULT:      -5.9      2.453      3.231
REMARK  Name = 
REMARK  6 active torsions:
REMARK  status: ('A' for Active; 'I' for Inactive)
REMARK    1  A    between atoms: C_1  and  O_2
REMARK    2  A    between atoms: O_2  and  C_3
REMARK    3  A    between atoms: C_3  and  C_5
REMARK    4  A    between atoms: C_6  and  N_7
REMARK    5  A    between atoms: C_12  and  C_13
REMARK    6  A    between atoms: C_12  and  C_14
REMARK                            x       y       z     vdW  Elec       q    Type
REMARK                         _______ _______ _______ _____ _____    ______ ____
ROOT
ATOM      1  C   UNL     1       5.013   5.250  17.387  0.00  0.00    +0.000 A 
ATOM      2  C   UNL     1       4.717   6.499  16.846  0.00  0.00    +0.000 A 
ATOM      3  S   UNL     1       3.466   7.302  17.693  0.00  0.00    +0.000 S 
ATOM      4  C   UNL     1       3.262   6.009  18.760  0.00  0.00    +0.000 A 
ATOM      5  C   UNL     1       4.118   4.959  18.495  0.00  0.00    +0.000 A 
ATOM      6  C   UNL     1       4.048   3.719  19.349  0.00  0.00    +0.000 C 
ATOM      7  C   UNL     1       2.709   3.668  20.146  0.00  0.00    +0.000 C 
ATOM      8  C   UNL     1       2.838   2.700  21.330  0.00  0.00    +0.000 C 
ATOM      9  C   UNL     1       1.535   3.197  19.270  0.00  0.00    +0.000 C 
ATOM     10  O   UNL     1       2.434   4.955  20.742  0.00  0.00    +0.000 OA
ATOM     11  C   UNL     1       2.211   6.031  19.818  0.00  0.00    +0.000 C 
ENDROOT
BRANCH   2  12
ATOM     12  N   UNL     1       5.269   7.121  15.784  0.00  0.00    +0.000 N 
ATOM     13  H   UNL     1       5.303   6.673  14.872  0.00  0.00    +0.000 HD
ATOM     14  H   UNL     1       5.919   7.889  15.921  0.00  0.00    +0.000 HD
ENDBRANCH   2  12
BRANCH   1  15
ATOM     15  C   UNL     1       6.070   4.352  16.896  0.00  0.00    +0.000 C 
ATOM     16  O   UNL     1       7.206   4.331  17.366  0.00  0.00    +0.000 OA
BRANCH  15  18
ATOM     17  C   UNL     1       6.228   3.891  14.582  0.00  0.00    +0.000 C 
ATOM     18  O   UNL     1       5.674   3.553  15.854  0.00  0.00    +0.000 OA
ENDBRANCH  15  18
ENDBRANCH   1  15
TORSDOF 3
ENDMDL
