MODEL 1
REMARK VINA RESULT:      -8.5      0.000      0.000
REMARK  Name = 
REMARK  5 active torsions:
REMARK  status: ('A' for Active; 'I' for Inactive)
REMARK    1  A    between atoms: C_7  and  S_8
REMARK    2  A    between atoms: S_8  and  C_9
REMARK    3  A    between atoms: N_15  and  C_16
REMARK    4  A    between atoms: C_19  and  O_20
REMARK    5  A    between atoms: O_20  and  C_21
REMARK                            x       y       z     vdW  Elec       q    Type
REMARK                         _______ _______ _______ _____ _____    ______ ____
ROOT
ATOM      1  C   UNL     1       4.014   4.708  17.418  0.00  0.00    +0.000 A 
ATOM      2  N   UNL     1       5.259   4.749  16.971  0.00  0.00    +0.000 NA
ATOM      3  C   UNL     1       5.721   5.983  16.878  0.00  0.00    +0.000 A 
ATOM      4 CL   UNL     1       7.343   6.134  16.356  0.00  0.00    +0.000 Cl
ATOM      5  N   UNL     1       5.084   7.121  17.131  0.00  0.00    +0.000 NA
ATOM      6  C   UNL     1       3.854   6.953  17.583  0.00  0.00    +0.000 A 
ATOM      7  N   UNL     1       3.113   8.102  17.848  0.00  0.00    +0.000 N 
ATOM      8  N   UNL     1       3.279   5.767  17.742  0.00  0.00    +0.000 NA
ATOM      9  H   UNL     1       3.634   8.932  17.596  0.00  0.00    +0.000 HD
ENDROOT
BRANCH   7  10
ATOM     10  C   UNL     1       2.160   8.301  18.860  0.00  0.00    +0.000 A 
ATOM     11  C   UNL     1       2.105   7.518  20.018  0.00  0.00    +0.000 A 
ATOM     12  C   UNL     1       1.155   7.776  21.012  0.00  0.00    +0.000 A 
ATOM     13  C   UNL     1       0.234   8.812  20.860  0.00  0.00    +0.000 A 
ATOM     14  C   UNL     1       0.230   9.544  19.676  0.00  0.00    +0.000 A 
ATOM     15  C   UNL     1       1.205   9.311  18.699  0.00  0.00    +0.000 A 
BRANCH  13  16
ATOM     16  O   UNL     1      -0.651   8.964  21.881  0.00  0.00    +0.000 OA
BRANCH  16  17
ATOM     17  C   UNL     1      -0.365   9.909  22.905  0.00  0.00    +0.000 C 
ATOM     18  F   UNL     1       0.403   9.438  23.910  0.00  0.00    +0.000 F 
ATOM     19  F   UNL     1       0.258  10.974  22.354  0.00  0.00    +0.000 F 
ATOM     20  F   UNL     1      -1.531  10.336  23.441  0.00  0.00    +0.000 F 
ENDBRANCH  16  17
ENDBRANCH  13  16
ENDBRANCH   7  10
BRANCH   1  21
ATOM     21  S   UNL     1       3.208   3.138  17.496  0.00  0.00    +0.000 S 
BRANCH  21  28
ATOM     22  F   UNL     1       4.648   2.388  20.223  0.00  0.00    +0.000 F 
ATOM     23  C   UNL     1       3.335   2.643  20.296  0.00  0.00    +0.000 A 
ATOM     24  C   UNL     1       2.730   2.514  21.547  0.00  0.00    +0.000 A 
ATOM     25  C   UNL     1       1.370   2.771  21.696  0.00  0.00    +0.000 A 
ATOM     26  C   UNL     1       0.621   3.173  20.594  0.00  0.00    +0.000 A 
ATOM     27  C   UNL     1       1.230   3.296  19.342  0.00  0.00    +0.000 A 
ATOM     28  C   UNL     1       2.596   3.017  19.167  0.00  0.00    +0.000 A 
ENDBRANCH  21  28
ENDBRANCH   1  21
TORSDOF 5
ENDMDL
MODEL 2
REMARK VINA RESULT:      -8.5      0.815      1.282
REMARK  Name = 
REMARK  5 active torsions:
REMARK  status: ('A' for Active; 'I' for Inactive)
REMARK    1  A    between atoms: C_7  and  S_8
REMARK    2  A    between atoms: S_8  and  C_9
REMARK    3  A    between atoms: N_15  and  C_16
REMARK    4  A    between atoms: C_19  and  O_20
REMARK    5  A    between atoms: O_20  and  C_21
REMARK                            x       y       z     vdW  Elec       q    Type
REMARK                         _______ _______ _______ _____ _____    ______ ____
ROOT
ATOM      1  C   UNL     1       4.292   4.008  17.189  0.00  0.00    +0.000 A 
ATOM      2  N   UNL     1       5.469   3.994  16.585  0.00  0.00    +0.000 NA
ATOM      3  C   UNL     1       5.899   5.208  16.289  0.00  0.00    +0.000 A 
ATOM      4 CL   UNL     1       7.440   5.294  15.552  0.00  0.00    +0.000 Cl
ATOM      5  N   UNL     1       5.283   6.369  16.485  0.00  0.00    +0.000 NA
ATOM      6  C   UNL     1       4.123   6.257  17.106  0.00  0.00    +0.000 A 
ATOM      7  N   UNL     1       3.405   7.430  17.326  0.00  0.00    +0.000 N 
ATOM      8  N   UNL     1       3.589   5.098  17.476  0.00  0.00    +0.000 NA
ATOM      9  H   UNL     1       3.878   8.223  16.914  0.00  0.00    +0.000 HD
ENDROOT
BRANCH   7  10
ATOM     10  C   UNL     1       2.585   7.748  18.421  0.00  0.00    +0.000 A 
ATOM     11  C   UNL     1       1.839   8.930  18.494  0.00  0.00    +0.000 A 
ATOM     12  C   UNL     1       1.012   9.186  19.592  0.00  0.00    +0.000 A 
ATOM     13  C   UNL     1       0.926   8.274  20.644  0.00  0.00    +0.000 A 
ATOM     14  C   UNL     1       1.725   7.135  20.617  0.00  0.00    +0.000 A 
ATOM     15  C   UNL     1       2.523   6.860  19.500  0.00  0.00    +0.000 A 
BRANCH  13  16
ATOM     16  O   UNL     1       0.103   8.632  21.665  0.00  0.00    +0.000 OA
BRANCH  16  17
ATOM     17  C   UNL     1       0.608   9.479  22.690  0.00  0.00    +0.000 C 
ATOM     18  F   UNL     1       1.935   9.370  22.912  0.00  0.00    +0.000 F 
ATOM     19  F   UNL     1       0.334  10.763  22.370  0.00  0.00    +0.000 F 
ATOM     20  F   UNL     1      -0.029   9.190  23.847  0.00  0.00    +0.000 F 
ENDBRANCH  16  17
ENDBRANCH  13  16
ENDBRANCH   7  10
BRANCH   1  21
ATOM     21  S   UNL     1       3.524   2.459  17.553  0.00  0.00    +0.000 S 
BRANCH  21  28
ATOM     22  F   UNL     1       4.660   2.210  20.506  0.00  0.00    +0.000 F 
ATOM     23  C   UNL     1       3.361   2.520  20.393  0.00  0.00    +0.000 A 
ATOM     24  C   UNL     1       2.635   2.661  21.577  0.00  0.00    +0.000 A 
ATOM     25  C   UNL     1       1.283   2.990  21.534  0.00  0.00    +0.000 A 
ATOM     26  C   UNL     1       0.664   3.193  20.304  0.00  0.00    +0.000 A 
ATOM     27  C   UNL     1       1.393   3.046  19.120  0.00  0.00    +0.000 A 
ATOM     28  C   UNL     1       2.753   2.691  19.144  0.00  0.00    +0.000 A 
ENDBRANCH  21  28
ENDBRANCH   1  21
TORSDOF 5
ENDMDL
MODEL 3
REMARK VINA RESULT:      -8.4      1.245      1.594
REMARK  Name = 
REMARK  5 active torsions:
REMARK  status: ('A' for Active; 'I' for Inactive)
REMARK    1  A    between atoms: C_7  and  S_8
REMARK    2  A    between atoms: S_8  and  C_9
REMARK    3  A    between atoms: N_15  and  C_16
REMARK    4  A    between atoms: C_19  and  O_20
REMARK    5  A    between atoms: O_20  and  C_21
REMARK                            x       y       z     vdW  Elec       q    Type
REMARK                         _______ _______ _______ _____ _____    ______ ____
ROOT
ATOM      1  C   UNL     1       4.258   3.892  17.191  0.00  0.00    +0.000 A 
ATOM      2  N   UNL     1       5.439   3.876  16.595  0.00  0.00    +0.000 NA
ATOM      3  C   UNL     1       5.886   5.091  16.328  0.00  0.00    +0.000 A 
ATOM      4 CL   UNL     1       7.432   5.174  15.603  0.00  0.00    +0.000 Cl
ATOM      5  N   UNL     1       5.282   6.255  16.545  0.00  0.00    +0.000 NA
ATOM      6  C   UNL     1       4.117   6.144  17.155  0.00  0.00    +0.000 A 
ATOM      7  N   UNL     1       3.412   7.321  17.396  0.00  0.00    +0.000 N 
ATOM      8  N   UNL     1       3.566   4.985  17.497  0.00  0.00    +0.000 NA
ATOM      9  H   UNL     1       3.897   8.117  17.004  0.00  0.00    +0.000 HD
ENDROOT
BRANCH   7  10
ATOM     10  C   UNL     1       2.587   7.626  18.491  0.00  0.00    +0.000 A 
ATOM     11  C   UNL     1       2.436   6.773  19.590  0.00  0.00    +0.000 A 
ATOM     12  C   UNL     1       1.626   7.138  20.672  0.00  0.00    +0.000 A 
ATOM     13  C   UNL     1       0.943   8.353  20.668  0.00  0.00    +0.000 A 
ATOM     14  C   UNL     1       1.024   9.170  19.544  0.00  0.00    +0.000 A 
ATOM     15  C   UNL     1       1.864   8.824  18.480  0.00  0.00    +0.000 A 
BRANCH  13  16
ATOM     16  O   UNL     1       0.175   8.597  21.763  0.00  0.00    +0.000 OA
BRANCH  16  17
ATOM     17  C   UNL     1       0.647   9.513  22.743  0.00  0.00    +0.000 C 
ATOM     18  F   UNL     1       1.977   9.464  22.969  0.00  0.00    +0.000 F 
ATOM     19  F   UNL     1       0.325  10.768  22.360  0.00  0.00    +0.000 F 
ATOM     20  F   UNL     1       0.020   9.258  23.915  0.00  0.00    +0.000 F 
ENDBRANCH  16  17
ENDBRANCH  13  16
ENDBRANCH   7  10
BRANCH   1  21
ATOM     21  S   UNL     1       3.469   2.345  17.516  0.00  0.00    +0.000 S 
BRANCH  21  28
ATOM     22  F   UNL     1       0.419   2.938  18.164  0.00  0.00    +0.000 F 
ATOM     23  C   UNL     1       1.248   2.872  19.215  0.00  0.00    +0.000 A 
ATOM     24  C   UNL     1       0.696   3.109  20.476  0.00  0.00    +0.000 A 
ATOM     25  C   UNL     1       1.498   3.049  21.612  0.00  0.00    +0.000 A 
ATOM     26  C   UNL     1       2.848   2.735  21.485  0.00  0.00    +0.000 A 
ATOM     27  C   UNL     1       3.397   2.503  20.221  0.00  0.00    +0.000 A 
ATOM     28  C   UNL     1       2.609   2.583  19.061  0.00  0.00    +0.000 A 
ENDBRANCH  21  28
ENDBRANCH   1  21
TORSDOF 5
ENDMDL
MODEL 4
REMARK VINA RESULT:      -8.4      1.215      1.854
REMARK  Name = 
REMARK  5 active torsions:
REMARK  status: ('A' for Active; 'I' for Inactive)
REMARK    1  A    between atoms: C_7  and  S_8
REMARK    2  A    between atoms: S_8  and  C_9
REMARK    3  A    between atoms: N_15  and  C_16
REMARK    4  A    between atoms: C_19  and  O_20
REMARK    5  A    between atoms: O_20  and  C_21
REMARK                            x       y       z     vdW  Elec       q    Type
REMARK                         _______ _______ _______ _____ _____    ______ ____
ROOT
ATOM      1  C   UNL     1       4.353   4.001  17.222  0.00  0.00    +0.000 A 
ATOM      2  N   UNL     1       5.528   4.010  16.613  0.00  0.00    +0.000 NA
ATOM      3  C   UNL     1       5.934   5.232  16.318  0.00  0.00    +0.000 A 
ATOM      4 CL   UNL     1       7.470   5.349  15.575  0.00  0.00    +0.000 Cl
ATOM      5  N   UNL     1       5.298   6.381  16.520  0.00  0.00    +0.000 NA
ATOM      6  C   UNL     1       4.142   6.246  17.145  0.00  0.00    +0.000 A 
ATOM      7  N   UNL     1       3.404   7.405  17.372  0.00  0.00    +0.000 N 
ATOM      8  N   UNL     1       3.632   5.077  17.514  0.00  0.00    +0.000 NA
ATOM      9  H   UNL     1       3.861   8.209  16.959  0.00  0.00    +0.000 HD
ENDROOT
BRANCH   7  10
ATOM     10  C   UNL     1       2.582   7.706  18.470  0.00  0.00    +0.000 A 
ATOM     11  C   UNL     1       1.846   8.891  18.567  0.00  0.00    +0.000 A 
ATOM     12  C   UNL     1       1.016   9.130  19.669  0.00  0.00    +0.000 A 
ATOM     13  C   UNL     1       0.920   8.195  20.699  0.00  0.00    +0.000 A 
ATOM     14  C   UNL     1       1.711   7.051  20.650  0.00  0.00    +0.000 A 
ATOM     15  C   UNL     1       2.510   6.794  19.530  0.00  0.00    +0.000 A 
BRANCH  13  16
ATOM     16  O   UNL     1       0.096   8.537  21.726  0.00  0.00    +0.000 OA
BRANCH  16  17
ATOM     17  C   UNL     1       0.568   9.449  22.710  0.00  0.00    +0.000 C 
ATOM     18  F   UNL     1       0.033   9.282  23.938  0.00  0.00    +0.000 F 
ATOM     19  F   UNL     1       1.910   9.329  22.809  0.00  0.00    +0.000 F 
ATOM     20  F   UNL     1       0.288  10.709  22.306  0.00  0.00    +0.000 F 
ENDBRANCH  16  17
ENDBRANCH  13  16
ENDBRANCH   7  10
BRANCH   1  21
ATOM     21  S   UNL     1       3.616   2.437  17.585  0.00  0.00    +0.000 S 
BRANCH  21  28
ATOM     22  F   UNL     1       0.609   3.348  18.031  0.00  0.00    +0.000 F 
ATOM     23  C   UNL     1       1.338   3.146  19.136  0.00  0.00    +0.000 A 
ATOM     24  C   UNL     1       0.717   3.393  20.362  0.00  0.00    +0.000 A 
ATOM     25  C   UNL     1       1.414   3.196  21.551  0.00  0.00    +0.000 A 
ATOM     26  C   UNL     1       2.727   2.735  21.510  0.00  0.00    +0.000 A 
ATOM     27  C   UNL     1       3.346   2.494  20.281  0.00  0.00    +0.000 A 
ATOM     28  C   UNL     1       2.667   2.710  19.070  0.00  0.00    +0.000 A 
ENDBRANCH  21  28
ENDBRANCH   1  21
TORSDOF 5
ENDMDL
MODEL 5
REMARK VINA RESULT:      -8.3      5.403      8.264
REMARK  Name = 
REMARK  5 active torsions:
REMARK  status: ('A' for Active; 'I' for Inactive)
REMARK    1  A    between atoms: C_7  and  S_8
REMARK    2  A    between atoms: S_8  and  C_9
REMARK    3  A    between atoms: N_15  and  C_16
REMARK    4  A    between atoms: C_19  and  O_20
REMARK    5  A    between atoms: O_20  and  C_21
REMARK                            x       y       z     vdW  Elec       q    Type
REMARK                         _______ _______ _______ _____ _____    ______ ____
ROOT
ATOM      1  C   UNL     1       6.529   5.211  18.095  0.00  0.00    +0.000 A 
ATOM      2  N   UNL     1       6.939   6.346  18.637  0.00  0.00    +0.000 NA
ATOM      3  C   UNL     1       7.585   7.112  17.775  0.00  0.00    +0.000 A 
ATOM      4 CL   UNL     1       8.110   8.626  18.372  0.00  0.00    +0.000 Cl
ATOM      5  N   UNL     1       7.884   6.852  16.507  0.00  0.00    +0.000 NA
ATOM      6  C   UNL     1       7.412   5.696  16.076  0.00  0.00    +0.000 A 
ATOM      7  N   UNL     1       7.706   5.342  14.761  0.00  0.00    +0.000 N 
ATOM      8  N   UNL     1       6.730   4.846  16.833  0.00  0.00    +0.000 NA
ATOM      9  H   UNL     1       8.308   6.031  14.329  0.00  0.00    +0.000 HD
ENDROOT
BRANCH   7  10
ATOM     10  C   UNL     1       6.902   4.626  13.859  0.00  0.00    +0.000 A 
ATOM     11  C   UNL     1       5.612   4.187  14.173  0.00  0.00    +0.000 A 
ATOM     12  C   UNL     1       4.839   3.504  13.227  0.00  0.00    +0.000 A 
ATOM     13  C   UNL     1       5.347   3.236  11.956  0.00  0.00    +0.000 A 
ATOM     14  C   UNL     1       6.659   3.598  11.663  0.00  0.00    +0.000 A 
ATOM     15  C   UNL     1       7.417   4.315  12.595  0.00  0.00    +0.000 A 
BRANCH  13  16
ATOM     16  O   UNL     1       4.515   2.555  11.124  0.00  0.00    +0.000 OA
BRANCH  16  17
ATOM     17  C   UNL     1       3.393   3.231  10.570  0.00  0.00    +0.000 C 
ATOM     18  F   UNL     1       3.458   4.578  10.628  0.00  0.00    +0.000 F 
ATOM     19  F   UNL     1       3.259   2.866   9.276  0.00  0.00    +0.000 F 
ATOM     20  F   UNL     1       2.280   2.843  11.232  0.00  0.00    +0.000 F 
ENDBRANCH  16  17
ENDBRANCH  13  16
ENDBRANCH   7  10
BRANCH   1  21
ATOM     21  S   UNL     1       5.744   4.024  19.142  0.00  0.00    +0.000 S 
BRANCH  21  28
ATOM     22  F   UNL     1       3.724   1.642  18.574  0.00  0.00    +0.000 F 
ATOM     23  C   UNL     1       3.252   2.881  18.378  0.00  0.00    +0.000 A 
ATOM     24  C   UNL     1       1.942   2.996  17.909  0.00  0.00    +0.000 A 
ATOM     25  C   UNL     1       1.385   4.253  17.690  0.00  0.00    +0.000 A 
ATOM     26  C   UNL     1       2.136   5.393  17.959  0.00  0.00    +0.000 A 
ATOM     27  C   UNL     1       3.449   5.274  18.424  0.00  0.00    +0.000 A 
ATOM     28  C   UNL     1       4.036   4.014  18.627  0.00  0.00    +0.000 A 
ENDBRANCH  21  28
ENDBRANCH   1  21
TORSDOF 5
ENDMDL
MODEL 6
REMARK VINA RESULT:      -8.2      0.983      1.512
REMARK  Name = 
REMARK  5 active torsions:
REMARK  status: ('A' for Active; 'I' for Inactive)
REMARK    1  A    between atoms: C_7  and  S_8
REMARK    2  A    between atoms: S_8  and  C_9
REMARK    3  A    between atoms: N_15  and  C_16
REMARK    4  A    between atoms: C_19  and  O_20
REMARK    5  A    between atoms: O_20  and  C_21
REMARK                            x       y       z     vdW  Elec       q    Type
REMARK                         _______ _______ _______ _____ _____    ______ ____
ROOT
ATOM      1  C   UNL     1       4.413   4.465  17.424  0.00  0.00    +0.000 A 
ATOM      2  N   UNL     1       5.629   4.562  16.910  0.00  0.00    +0.000 NA
ATOM      3  C   UNL     1       5.993   5.816  16.711  0.00  0.00    +0.000 A 
ATOM      4 CL   UNL     1       7.573   6.045  16.097  0.00  0.00    +0.000 Cl
ATOM      5  N   UNL     1       5.286   6.921  16.921  0.00  0.00    +0.000 NA
ATOM      6  C   UNL     1       4.095   6.699  17.446  0.00  0.00    +0.000 A 
ATOM      7  N   UNL     1       3.284   7.808  17.673  0.00  0.00    +0.000 N 
ATOM      8  N   UNL     1       3.618   5.489  17.714  0.00  0.00    +0.000 NA
ATOM      9  H   UNL     1       3.729   8.653  17.339  0.00  0.00    +0.000 HD
ENDROOT
BRANCH   7  10
ATOM     10  C   UNL     1       2.368   8.009  18.718  0.00  0.00    +0.000 A 
ATOM     11  C   UNL     1       2.270   7.153  19.819  0.00  0.00    +0.000 A 
ATOM     12  C   UNL     1       1.361   7.414  20.850  0.00  0.00    +0.000 A 
ATOM     13  C   UNL     1       0.524   8.529  20.792  0.00  0.00    +0.000 A 
ATOM     14  C   UNL     1       0.558   9.340  19.662  0.00  0.00    +0.000 A 
ATOM     15  C   UNL     1       1.494   9.100  18.650  0.00  0.00    +0.000 A 
BRANCH  13  16
ATOM     16  O   UNL     1      -0.329   8.677  21.841  0.00  0.00    +0.000 OA
BRANCH  16  17
ATOM     17  C   UNL     1      -0.116   9.747  22.753  0.00  0.00    +0.000 C 
ATOM     18  F   UNL     1      -1.212  10.127  23.444  0.00  0.00    +0.000 F 
ATOM     19  F   UNL     1       0.841   9.386  23.635  0.00  0.00    +0.000 F 
ATOM     20  F   UNL     1       0.332  10.822  22.065  0.00  0.00    +0.000 F 
ENDBRANCH  16  17
ENDBRANCH  13  16
ENDBRANCH   7  10
BRANCH   1  21
ATOM     21  S   UNL     1       3.730   2.851  17.648  0.00  0.00    +0.000 S 
BRANCH  21  28
ATOM     22  F   UNL     1       0.767   3.906  18.072  0.00  0.00    +0.000 F 
ATOM     23  C   UNL     1       1.416   3.497  19.171  0.00  0.00    +0.000 A 
ATOM     24  C   UNL     1       0.741   3.614  20.388  0.00  0.00    +0.000 A 
ATOM     25  C   UNL     1       1.352   3.201  21.569  0.00  0.00    +0.000 A 
ATOM     26  C   UNL     1       2.632   2.656  21.526  0.00  0.00    +0.000 A 
ATOM     27  C   UNL     1       3.306   2.546  20.307  0.00  0.00    +0.000 A 
ATOM     28  C   UNL     1       2.715   2.979  19.108  0.00  0.00    +0.000 A 
ENDBRANCH  21  28
ENDBRANCH   1  21
TORSDOF 5
ENDMDL
MODEL 7
REMARK VINA RESULT:      -8.2      3.366      5.031
REMARK  Name = 
REMARK  5 active torsions:
REMARK  status: ('A' for Active; 'I' for Inactive)
REMARK    1  A    between atoms: C_7  and  S_8
REMARK    2  A    between atoms: S_8  and  C_9
REMARK    3  A    between atoms: N_15  and  C_16
REMARK    4  A    between atoms: C_19  and  O_20
REMARK    5  A    between atoms: O_20  and  C_21
REMARK                            x       y       z     vdW  Elec       q    Type
REMARK                         _______ _______ _______ _____ _____    ______ ____
ROOT
ATOM      1  C   UNL     1       3.209   4.558  18.980  0.00  0.00    +0.000 A 
ATOM      2  N   UNL     1       3.070   3.418  19.639  0.00  0.00    +0.000 NA
ATOM      3  C   UNL     1       2.466   3.579  20.803  0.00  0.00    +0.000 A 
ATOM      4 CL   UNL     1       2.195   2.151  21.705  0.00  0.00    +0.000 Cl
ATOM      5  N   UNL     1       2.049   4.709  21.365  0.00  0.00    +0.000 NA
ATOM      6  C   UNL     1       2.230   5.776  20.609  0.00  0.00    +0.000 A 
ATOM      7  N   UNL     1       1.840   7.003  21.140  0.00  0.00    +0.000 N 
ATOM      8  N   UNL     1       2.804   5.748  19.412  0.00  0.00    +0.000 NA
ATOM      9  H   UNL     1       1.508   6.894  22.090  0.00  0.00    +0.000 HD
ENDROOT
BRANCH   7  10
ATOM     10  C   UNL     1       1.301   8.107  20.460  0.00  0.00    +0.000 A 
ATOM     11  C   UNL     1       1.740   8.509  19.194  0.00  0.00    +0.000 A 
ATOM     12  C   UNL     1       1.148   9.598  18.544  0.00  0.00    +0.000 A 
ATOM     13  C   UNL     1       0.118  10.313  19.154  0.00  0.00    +0.000 A 
ATOM     14  C   UNL     1      -0.269   9.971  20.446  0.00  0.00    +0.000 A 
ATOM     15  C   UNL     1       0.295   8.858  21.079  0.00  0.00    +0.000 A 
BRANCH  13  16
ATOM     16  O   UNL     1      -0.372  11.360  18.438  0.00  0.00    +0.000 OA
BRANCH  16  17
ATOM     17  C   UNL     1      -1.699  11.285  17.931  0.00  0.00    +0.000 C 
ATOM     18  F   UNL     1      -1.909  11.975  16.790  0.00  0.00    +0.000 F 
ATOM     19  F   UNL     1      -2.009   9.989  17.710  0.00  0.00    +0.000 F 
ATOM     20  F   UNL     1      -2.550  11.766  18.866  0.00  0.00    +0.000 F 
ENDBRANCH  16  17
ENDBRANCH  13  16
ENDBRANCH   7  10
BRANCH   1  21
ATOM     21  S   UNL     1       4.096   4.535  17.453  0.00  0.00    +0.000 S 
BRANCH  21  28
ATOM     22  F   UNL     1       5.251   7.075  15.941  0.00  0.00    +0.000 F 
ATOM     23  C   UNL     1       5.967   6.626  16.981  0.00  0.00    +0.000 A 
ATOM     24  C   UNL     1       7.161   7.292  17.266  0.00  0.00    +0.000 A 
ATOM     25  C   UNL     1       7.951   6.884  18.337  0.00  0.00    +0.000 A 
ATOM     26  C   UNL     1       7.535   5.819  19.131  0.00  0.00    +0.000 A 
ATOM     27  C   UNL     1       6.342   5.152  18.839  0.00  0.00    +0.000 A 
ATOM     28  C   UNL     1       5.544   5.534  17.747  0.00  0.00    +0.000 A 
ENDBRANCH  21  28
ENDBRANCH   1  21
TORSDOF 5
ENDMDL
MODEL 8
REMARK VINA RESULT:      -8.1      1.574      1.938
REMARK  Name = 
REMARK  5 active torsions:
REMARK  status: ('A' for Active; 'I' for Inactive)
REMARK    1  A    between atoms: C_7  and  S_8
REMARK    2  A    between atoms: S_8  and  C_9
REMARK    3  A    between atoms: N_15  and  C_16
REMARK    4  A    between atoms: C_19  and  O_20
REMARK    5  A    between atoms: O_20  and  C_21
REMARK                            x       y       z     vdW  Elec       q    Type
REMARK                         _______ _______ _______ _____ _____    ______ ____
ROOT
ATOM      1  C   UNL     1       4.405   3.671  17.085  0.00  0.00    +0.000 A 
ATOM      2  N   UNL     1       5.464   3.616  16.293  0.00  0.00    +0.000 NA
ATOM      3  C   UNL     1       5.805   4.803  15.823  0.00  0.00    +0.000 A 
ATOM      4 CL   UNL     1       7.196   4.840  14.829  0.00  0.00    +0.000 Cl
ATOM      5  N   UNL     1       5.200   5.969  16.019  0.00  0.00    +0.000 NA
ATOM      6  C   UNL     1       4.164   5.901  16.836  0.00  0.00    +0.000 A 
ATOM      7  N   UNL     1       3.463   7.080  17.072  0.00  0.00    +0.000 N 
ATOM      8  N   UNL     1       3.732   4.774  17.391  0.00  0.00    +0.000 NA
ATOM      9  H   UNL     1       3.838   7.839  16.517  0.00  0.00    +0.000 HD
ENDROOT
BRANCH   7  10
ATOM     10  C   UNL     1       2.831   7.487  18.259  0.00  0.00    +0.000 A 
ATOM     11  C   UNL     1       2.765   6.681  19.400  0.00  0.00    +0.000 A 
ATOM     12  C   UNL     1       2.150   7.145  20.568  0.00  0.00    +0.000 A 
ATOM     13  C   UNL     1       1.578   8.416  20.611  0.00  0.00    +0.000 A 
ATOM     14  C   UNL     1       1.568   9.192  19.456  0.00  0.00    +0.000 A 
ATOM     15  C   UNL     1       2.217   8.744  18.300  0.00  0.00    +0.000 A 
BRANCH  13  16
ATOM     16  O   UNL     1       0.996   8.757  21.792  0.00  0.00    +0.000 OA
BRANCH  16  17
ATOM     17  C   UNL     1      -0.422   8.854  21.857  0.00  0.00    +0.000 C 
ATOM     18  F   UNL     1      -1.085   7.801  21.333  0.00  0.00    +0.000 F 
ATOM     19  F   UNL     1      -0.792   8.991  23.149  0.00  0.00    +0.000 F 
ATOM     20  F   UNL     1      -0.813   9.962  21.188  0.00  0.00    +0.000 F 
ENDBRANCH  16  17
ENDBRANCH  13  16
ENDBRANCH   7  10
BRANCH   1  21
ATOM     21  S   UNL     1       3.752   2.152  17.708  0.00  0.00    +0.000 S 
BRANCH  21  28
ATOM     22  F   UNL     1       0.818   3.348  17.900  0.00  0.00    +0.000 F 
ATOM     23  C   UNL     1       1.465   3.173  19.060  0.00  0.00    +0.000 A 
ATOM     24  C   UNL     1       0.804   3.569  20.224  0.00  0.00    +0.000 A 
ATOM     25  C   UNL     1       1.415   3.409  21.464  0.00  0.00    +0.000 A 
ATOM     26  C   UNL     1       2.681   2.836  21.538  0.00  0.00    +0.000 A 
ATOM     27  C   UNL     1       3.342   2.446  20.370  0.00  0.00    +0.000 A 
ATOM     28  C   UNL     1       2.752   2.622  19.108  0.00  0.00    +0.000 A 
ENDBRANCH  21  28
ENDBRANCH   1  21
TORSDOF 5
ENDMDL
MODEL 9
REMARK VINA RESULT:      -8.0      3.332      4.979
REMARK  Name = 
REMARK  5 active torsions:
REMARK  status: ('A' for Active; 'I' for Inactive)
REMARK    1  A    between atoms: C_7  and  S_8
REMARK    2  A    between atoms: S_8  and  C_9
REMARK    3  A    between atoms: N_15  and  C_16
REMARK    4  A    between atoms: C_19  and  O_20
REMARK    5  A    between atoms: O_20  and  C_21
REMARK                            x       y       z     vdW  Elec       q    Type
REMARK                         _______ _______ _______ _____ _____    ______ ____
ROOT
ATOM      1  C   UNL     1       3.159   4.562  18.944  0.00  0.00    +0.000 A 
ATOM      2  N   UNL     1       3.003   3.412  19.579  0.00  0.00    +0.000 NA
ATOM      3  C   UNL     1       2.404   3.559  20.748  0.00  0.00    +0.000 A 
ATOM      4 CL   UNL     1       2.111   2.118  21.622  0.00  0.00    +0.000 Cl
ATOM      5  N   UNL     1       2.007   4.684  21.333  0.00  0.00    +0.000 NA
ATOM      6  C   UNL     1       2.204   5.764  20.598  0.00  0.00    +0.000 A 
ATOM      7  N   UNL     1       1.835   6.986  21.154  0.00  0.00    +0.000 N 
ATOM      8  N   UNL     1       2.776   5.750  19.399  0.00  0.00    +0.000 NA
ATOM      9  H   UNL     1       1.503   6.864  22.102  0.00  0.00    +0.000 HD
ENDROOT
BRANCH   7  10
ATOM     10  C   UNL     1       1.313   8.112  20.497  0.00  0.00    +0.000 A 
ATOM     11  C   UNL     1       0.344   8.943  21.067  0.00  0.00    +0.000 A 
ATOM     12  C   UNL     1      -0.122  10.072  20.384  0.00  0.00    +0.000 A 
ATOM     13  C   UNL     1       0.363  10.382  19.114  0.00  0.00    +0.000 A 
ATOM     14  C   UNL     1       1.267   9.516  18.506  0.00  0.00    +0.000 A 
ATOM     15  C   UNL     1       1.762   8.409  19.205  0.00  0.00    +0.000 A 
BRANCH  13  16
ATOM     16  O   UNL     1      -0.169  11.493  18.538  0.00  0.00    +0.000 OA
BRANCH  16  17
ATOM     17  C   UNL     1      -1.517  11.453  18.085  0.00  0.00    +0.000 C 
ATOM     18  F   UNL     1      -2.436  11.802  19.011  0.00  0.00    +0.000 F 
ATOM     19  F   UNL     1      -1.647  12.279  17.024  0.00  0.00    +0.000 F 
ATOM     20  F   UNL     1      -1.802  10.196  17.675  0.00  0.00    +0.000 F 
ENDBRANCH  16  17
ENDBRANCH  13  16
ENDBRANCH   7  10
BRANCH   1  21
ATOM     21  S   UNL     1       4.043   4.555  17.414  0.00  0.00    +0.000 S 
BRANCH  21  28
ATOM     22  F   UNL     1       5.268   7.063  15.903  0.00  0.00    +0.000 F 
ATOM     23  C   UNL     1       5.961   6.607  16.956  0.00  0.00    +0.000 A 
ATOM     24  C   UNL     1       7.162   7.252  17.255  0.00  0.00    +0.000 A 
ATOM     25  C   UNL     1       7.929   6.835  18.340  0.00  0.00    +0.000 A 
ATOM     26  C   UNL     1       7.481   5.784  19.134  0.00  0.00    +0.000 A 
ATOM     27  C   UNL     1       6.280   5.137  18.829  0.00  0.00    +0.000 A 
ATOM     28  C   UNL     1       5.505   5.528  17.723  0.00  0.00    +0.000 A 
ENDBRANCH  21  28
ENDBRANCH   1  21
TORSDOF 5
ENDMDL
