MODEL 1
REMARK VINA RESULT:      -8.6      0.000      0.000
REMARK  Name = 
REMARK  4 active torsions:
REMARK  status: ('A' for Active; 'I' for Inactive)
REMARK    1  A    between atoms: C_1  and  C_2
REMARK    2  A    between atoms: C_6  and  C_8
REMARK    3  A    between atoms: C_12  and  S_13
REMARK    4  A    between atoms: S_13  and  N_16
REMARK                            x       y       z     vdW  Elec       q    Type
REMARK                         _______ _______ _______ _____ _____    ______ ____
ROOT
ATOM      1  C   UNL     1       2.063   5.676  20.249  0.00  0.00    +0.000 A 
ATOM      2  C   UNL     1       1.953   4.983  21.467  0.00  0.00    +0.000 A 
ATOM      3  C   UNL     1       2.216   3.613  21.539  0.00  0.00    +0.000 A 
ATOM      4  C   UNL     1       2.588   2.919  20.391  0.00  0.00    +0.000 A 
ATOM      5  C   UNL     1       2.660   3.596  19.167  0.00  0.00    +0.000 A 
ATOM      6  C   UNL     1       2.406   4.973  19.090  0.00  0.00    +0.000 A 
ENDROOT
BRANCH   1  12
ATOM      7  C   UNL     1      -1.074  11.859  22.881  0.00  0.00    +0.000 C 
ATOM      8  C   UNL     1      -0.354  10.748  22.238  0.00  0.00    +0.000 A 
ATOM      9  C   UNL     1      -0.142   9.424  22.536  0.00  0.00    +0.000 A 
ATOM     10  C   UNL     1       0.641   8.935  21.460  0.00  0.00    +0.000 A 
ATOM     11  N   UNL     1       1.061   7.617  21.342  0.00  0.00    +0.000 N 
ATOM     12  C   UNL     1       1.798   7.146  20.272  0.00  0.00    +0.000 C 
ATOM     13  O   UNL     1       2.226   7.806  19.332  0.00  0.00    +0.000 OA
ATOM     14  N   UNL     1       0.889   9.912  20.585  0.00  0.00    +0.000 NA
ATOM     15  O   UNL     1       0.264  11.042  21.067  0.00  0.00    +0.000 OA
ATOM     16  H   UNL     1       0.721   6.988  22.049  0.00  0.00    +0.000 HD
ENDBRANCH   1  12
BRANCH   5  17
ATOM     17  S   UNL     1       3.222   2.715  17.716  0.00  0.00    +0.000 S 
ATOM     18  O   UNL     1       3.516   1.361  18.139  0.00  0.00    +0.000 OA
ATOM     19  O   UNL     1       2.265   2.977  16.663  0.00  0.00    +0.000 OA
BRANCH  17  20
ATOM     20  N   UNL     1       4.693   3.490  17.329  0.00  0.00    +0.000 NA
ATOM     21  C   UNL     1       4.741   4.235  16.054  0.00  0.00    +0.000 C 
ATOM     22  C   UNL     1       6.051   3.969  15.315  0.00  0.00    +0.000 C 
ATOM     23  C   UNL     1       7.209   4.846  15.775  0.00  0.00    +0.000 C 
ATOM     24  C   UNL     1       7.602   4.642  17.232  0.00  0.00    +0.000 C 
ATOM     25  C   UNL     1       6.506   5.065  18.204  0.00  0.00    +0.000 C 
ATOM     26  C   UNL     1       5.473   3.983  18.489  0.00  0.00    +0.000 C 
ENDBRANCH  17  20
ENDBRANCH   5  17
TORSDOF 3
ENDMDL
MODEL 2
REMARK VINA RESULT:      -8.6      2.702      3.648
REMARK  Name = 
REMARK  4 active torsions:
REMARK  status: ('A' for Active; 'I' for Inactive)
REMARK    1  A    between atoms: C_1  and  C_2
REMARK    2  A    between atoms: C_6  and  C_8
REMARK    3  A    between atoms: C_12  and  S_13
REMARK    4  A    between atoms: S_13  and  N_16
REMARK                            x       y       z     vdW  Elec       q    Type
REMARK                         _______ _______ _______ _____ _____    ______ ____
ROOT
ATOM      1  C   UNL     1       3.450   6.324  18.037  0.00  0.00    +0.000 A 
ATOM      2  C   UNL     1       2.884   5.060  18.276  0.00  0.00    +0.000 A 
ATOM      3  C   UNL     1       3.567   3.892  17.933  0.00  0.00    +0.000 A 
ATOM      4  C   UNL     1       4.824   3.974  17.342  0.00  0.00    +0.000 A 
ATOM      5  C   UNL     1       5.376   5.230  17.064  0.00  0.00    +0.000 A 
ATOM      6  C   UNL     1       4.700   6.407  17.414  0.00  0.00    +0.000 A 
ENDROOT
BRANCH   1  12
ATOM      7  C   UNL     1      -0.654  10.257  22.800  0.00  0.00    +0.000 C 
ATOM      8  C   UNL     1       0.154   9.633  21.741  0.00  0.00    +0.000 A 
ATOM      9  C   UNL     1       0.955   8.519  21.655  0.00  0.00    +0.000 A 
ATOM     10  C   UNL     1       1.419   8.513  20.316  0.00  0.00    +0.000 A 
ATOM     11  N   UNL     1       2.244   7.530  19.785  0.00  0.00    +0.000 N 
ATOM     12  C   UNL     1       2.665   7.519  18.469  0.00  0.00    +0.000 C 
ATOM     13  O   UNL     1       2.433   8.373  17.620  0.00  0.00    +0.000 OA
ATOM     14  N   UNL     1       0.936   9.566  19.652  0.00  0.00    +0.000 NA
ATOM     15  O   UNL     1       0.143  10.261  20.539  0.00  0.00    +0.000 OA
ATOM     16  H   UNL     1       2.454   6.761  20.399  0.00  0.00    +0.000 HD
ENDBRANCH   1  12
BRANCH   5  17
ATOM     17  S   UNL     1       7.027   5.325  16.384  0.00  0.00    +0.000 S 
ATOM     18  O   UNL     1       7.388   6.727  16.361  0.00  0.00    +0.000 OA
ATOM     19  O   UNL     1       7.835   4.356  17.091  0.00  0.00    +0.000 OA
BRANCH  17  20
ATOM     20  N   UNL     1       6.820   4.797  14.773  0.00  0.00    +0.000 NA
ATOM     21  C   UNL     1       5.432   4.700  14.274  0.00  0.00    +0.000 C 
ATOM     22  C   UNL     1       5.226   3.415  13.476  0.00  0.00    +0.000 C 
ATOM     23  C   UNL     1       5.655   3.518  12.017  0.00  0.00    +0.000 C 
ATOM     24  C   UNL     1       7.140   3.795  11.825  0.00  0.00    +0.000 C 
ATOM     25  C   UNL     1       7.559   5.162  12.354  0.00  0.00    +0.000 C 
ATOM     26  C   UNL     1       7.903   5.179  13.837  0.00  0.00    +0.000 C 
ENDBRANCH  17  20
ENDBRANCH   5  17
TORSDOF 3
ENDMDL
MODEL 3
REMARK VINA RESULT:      -8.4      4.990      6.907
REMARK  Name = 
REMARK  4 active torsions:
REMARK  status: ('A' for Active; 'I' for Inactive)
REMARK    1  A    between atoms: C_1  and  C_2
REMARK    2  A    between atoms: C_6  and  C_8
REMARK    3  A    between atoms: C_12  and  S_13
REMARK    4  A    between atoms: S_13  and  N_16
REMARK                            x       y       z     vdW  Elec       q    Type
REMARK                         _______ _______ _______ _____ _____    ______ ____
ROOT
ATOM      1  C   UNL     1       7.756   7.499  18.049  0.00  0.00    +0.000 A 
ATOM      2  C   UNL     1       8.323   6.719  19.070  0.00  0.00    +0.000 A 
ATOM      3  C   UNL     1       8.026   5.359  19.183  0.00  0.00    +0.000 A 
ATOM      4  C   UNL     1       7.152   4.765  18.277  0.00  0.00    +0.000 A 
ATOM      5  C   UNL     1       6.553   5.546  17.281  0.00  0.00    +0.000 A 
ATOM      6  C   UNL     1       6.853   6.910  17.157  0.00  0.00    +0.000 A 
ENDROOT
BRANCH   1  12
ATOM      7  C   UNL     1      10.824  13.709  20.700  0.00  0.00    +0.000 C 
ATOM      8  C   UNL     1      10.188  12.575  20.009  0.00  0.00    +0.000 A 
ATOM      9  C   UNL     1      10.089  11.225  20.242  0.00  0.00    +0.000 A 
ATOM     10  C   UNL     1       9.312  10.730  19.164  0.00  0.00    +0.000 A 
ATOM     11  N   UNL     1       8.941   9.400  19.021  0.00  0.00    +0.000 N 
ATOM     12  C   UNL     1       8.158   8.936  17.982  0.00  0.00    +0.000 C 
ATOM     13  O   UNL     1       7.739   9.591  17.033  0.00  0.00    +0.000 OA
ATOM     14  N   UNL     1       8.984  11.724  18.335  0.00  0.00    +0.000 NA
ATOM     15  O   UNL     1       9.525  12.876  18.864  0.00  0.00    +0.000 OA
ATOM     16  H   UNL     1       9.205   8.792  19.778  0.00  0.00    +0.000 HD
ENDBRANCH   1  12
BRANCH   5  17
ATOM     17  S   UNL     1       5.500   4.756  16.071  0.00  0.00    +0.000 S 
ATOM     18  O   UNL     1       5.140   5.774  15.105  0.00  0.00    +0.000 OA
ATOM     19  O   UNL     1       6.163   3.538  15.660  0.00  0.00    +0.000 OA
BRANCH  17  20
ATOM     20  N   UNL     1       4.106   4.348  16.968  0.00  0.00    +0.000 NA
ATOM     21  C   UNL     1       4.074   3.003  17.581  0.00  0.00    +0.000 C 
ATOM     22  C   UNL     1       2.707   2.349  17.395  0.00  0.00    +0.000 C 
ATOM     23  C   UNL     1       1.679   2.759  18.442  0.00  0.00    +0.000 C 
ATOM     24  C   UNL     1       1.341   4.244  18.434  0.00  0.00    +0.000 C 
ATOM     25  C   UNL     1       2.526   5.121  18.823  0.00  0.00    +0.000 C 
ATOM     26  C   UNL     1       3.446   5.478  17.663  0.00  0.00    +0.000 C 
ENDBRANCH  17  20
ENDBRANCH   5  17
TORSDOF 3
ENDMDL
MODEL 4
REMARK VINA RESULT:      -8.4      0.480      1.285
REMARK  Name = 
REMARK  4 active torsions:
REMARK  status: ('A' for Active; 'I' for Inactive)
REMARK    1  A    between atoms: C_1  and  C_2
REMARK    2  A    between atoms: C_6  and  C_8
REMARK    3  A    between atoms: C_12  and  S_13
REMARK    4  A    between atoms: S_13  and  N_16
REMARK                            x       y       z     vdW  Elec       q    Type
REMARK                         _______ _______ _______ _____ _____    ______ ____
ROOT
ATOM      1  C   UNL     1       1.985   5.859  20.187  0.00  0.00    +0.000 A 
ATOM      2  C   UNL     1       1.785   5.102  21.354  0.00  0.00    +0.000 A 
ATOM      3  C   UNL     1       2.051   3.731  21.373  0.00  0.00    +0.000 A 
ATOM      4  C   UNL     1       2.514   3.100  20.222  0.00  0.00    +0.000 A 
ATOM      5  C   UNL     1       2.677   3.842  19.046  0.00  0.00    +0.000 A 
ATOM      6  C   UNL     1       2.421   5.220  19.022  0.00  0.00    +0.000 A 
ENDROOT
BRANCH   1  12
ATOM      7  C   UNL     1      -1.263  11.904  23.003  0.00  0.00    +0.000 C 
ATOM      8  C   UNL     1      -0.518  10.826  22.331  0.00  0.00    +0.000 A 
ATOM      9  C   UNL     1      -0.305   9.491  22.576  0.00  0.00    +0.000 A 
ATOM     10  C   UNL     1       0.509   9.054  21.501  0.00  0.00    +0.000 A 
ATOM     11  N   UNL     1       0.941   7.745  21.337  0.00  0.00    +0.000 N 
ATOM     12  C   UNL     1       1.710   7.325  20.267  0.00  0.00    +0.000 C 
ATOM     13  O   UNL     1       2.158   8.029  19.369  0.00  0.00    +0.000 OA
ATOM     14  N   UNL     1       0.774  10.070  20.677  0.00  0.00    +0.000 NA
ATOM     15  O   UNL     1       0.129  11.174  21.191  0.00  0.00    +0.000 OA
ATOM     16  H   UNL     1       0.587   7.083  22.007  0.00  0.00    +0.000 HD
ENDBRANCH   1  12
BRANCH   5  17
ATOM     17  S   UNL     1       3.354   3.041  17.598  0.00  0.00    +0.000 S 
ATOM     18  O   UNL     1       3.793   1.725  18.017  0.00  0.00    +0.000 OA
ATOM     19  O   UNL     1       2.390   3.203  16.532  0.00  0.00    +0.000 OA
BRANCH  17  20
ATOM     20  N   UNL     1       4.735   3.979  17.239  0.00  0.00    +0.000 NA
ATOM     21  C   UNL     1       5.692   4.210  18.341  0.00  0.00    +0.000 C 
ATOM     22  C   UNL     1       6.164   5.662  18.360  0.00  0.00    +0.000 C 
ATOM     23  C   UNL     1       7.319   5.949  17.408  0.00  0.00    +0.000 C 
ATOM     24  C   UNL     1       6.983   5.727  15.939  0.00  0.00    +0.000 C 
ATOM     25  C   UNL     1       6.688   4.267  15.615  0.00  0.00    +0.000 C 
ATOM     26  C   UNL     1       5.241   3.856  15.851  0.00  0.00    +0.000 C 
ENDBRANCH  17  20
ENDBRANCH   5  17
TORSDOF 3
ENDMDL
MODEL 5
REMARK VINA RESULT:      -8.3      2.103      2.962
REMARK  Name = 
REMARK  4 active torsions:
REMARK  status: ('A' for Active; 'I' for Inactive)
REMARK    1  A    between atoms: C_1  and  C_2
REMARK    2  A    between atoms: C_6  and  C_8
REMARK    3  A    between atoms: C_12  and  S_13
REMARK    4  A    between atoms: S_13  and  N_16
REMARK                            x       y       z     vdW  Elec       q    Type
REMARK                         _______ _______ _______ _____ _____    ______ ____
ROOT
ATOM      1  C   UNL     1       1.528   8.490  20.026  0.00  0.00    +0.000 A 
ATOM      2  C   UNL     1       1.722   9.218  18.839  0.00  0.00    +0.000 A 
ATOM      3  C   UNL     1       2.301   8.621  17.719  0.00  0.00    +0.000 A 
ATOM      4  C   UNL     1       2.700   7.288  17.773  0.00  0.00    +0.000 A 
ATOM      5  C   UNL     1       2.546   6.569  18.964  0.00  0.00    +0.000 A 
ATOM      6  C   UNL     1       1.956   7.160  20.091  0.00  0.00    +0.000 A 
ENDROOT
BRANCH   1  12
ATOM      7  C   UNL     1      -2.807  13.698  23.042  0.00  0.00    +0.000 C 
ATOM      8  C   UNL     1      -1.929  12.593  22.623  0.00  0.00    +0.000 A 
ATOM      9  C   UNL     1      -1.592  12.020  21.420  0.00  0.00    +0.000 A 
ATOM     10  C   UNL     1      -0.673  10.994  21.756  0.00  0.00    +0.000 A 
ATOM     11  N   UNL     1      -0.050  10.174  20.825  0.00  0.00    +0.000 N 
ATOM     12  C   UNL     1       0.868   9.198  21.164  0.00  0.00    +0.000 C 
ATOM     13  O   UNL     1       1.211   8.879  22.297  0.00  0.00    +0.000 OA
ATOM     14  N   UNL     1      -0.488  10.951  23.078  0.00  0.00    +0.000 NA
ATOM     15  O   UNL     1      -1.267  11.952  23.618  0.00  0.00    +0.000 OA
ATOM     16  H   UNL     1      -0.239  10.390  19.861  0.00  0.00    +0.000 HD
ENDBRANCH   1  12
BRANCH   5  17
ATOM     17  S   UNL     1       2.981   4.835  18.998  0.00  0.00    +0.000 S 
ATOM     18  O   UNL     1       3.080   4.458  20.393  0.00  0.00    +0.000 OA
ATOM     19  O   UNL     1       2.073   4.152  18.102  0.00  0.00    +0.000 OA
BRANCH  17  20
ATOM     20  N   UNL     1       4.547   4.809  18.320  0.00  0.00    +0.000 NA
ATOM     21  C   UNL     1       4.645   4.979  16.855  0.00  0.00    +0.000 C 
ATOM     22  C   UNL     1       5.651   3.998  16.256  0.00  0.00    +0.000 C 
ATOM     23  C   UNL     1       7.096   4.475  16.325  0.00  0.00    +0.000 C 
ATOM     24  C   UNL     1       7.621   4.666  17.742  0.00  0.00    +0.000 C 
ATOM     25  C   UNL     1       6.904   5.783  18.491  0.00  0.00    +0.000 C 
ATOM     26  C   UNL     1       5.622   5.346  19.187  0.00  0.00    +0.000 C 
ENDBRANCH  17  20
ENDBRANCH   5  17
TORSDOF 3
ENDMDL
MODEL 6
REMARK VINA RESULT:      -8.3      2.177      3.391
REMARK  Name = 
REMARK  4 active torsions:
REMARK  status: ('A' for Active; 'I' for Inactive)
REMARK    1  A    between atoms: C_1  and  C_2
REMARK    2  A    between atoms: C_6  and  C_8
REMARK    3  A    between atoms: C_12  and  S_13
REMARK    4  A    between atoms: S_13  and  N_16
REMARK                            x       y       z     vdW  Elec       q    Type
REMARK                         _______ _______ _______ _____ _____    ______ ____
ROOT
ATOM      1  C   UNL     1       1.428   8.822  20.067  0.00  0.00    +0.000 A 
ATOM      2  C   UNL     1       1.603   9.490  18.843  0.00  0.00    +0.000 A 
ATOM      3  C   UNL     1       2.134   8.828  17.735  0.00  0.00    +0.000 A 
ATOM      4  C   UNL     1       2.501   7.490  17.838  0.00  0.00    +0.000 A 
ATOM      5  C   UNL     1       2.366   6.829  19.065  0.00  0.00    +0.000 A 
ATOM      6  C   UNL     1       1.826   7.485  20.181  0.00  0.00    +0.000 A 
ENDROOT
BRANCH   1  12
ATOM      7  C   UNL     1      -3.116  13.906  22.983  0.00  0.00    +0.000 C 
ATOM      8  C   UNL     1      -2.169  12.851  22.587  0.00  0.00    +0.000 A 
ATOM      9  C   UNL     1      -1.902  12.169  21.425  0.00  0.00    +0.000 A 
ATOM     10  C   UNL     1      -0.841  11.290  21.760  0.00  0.00    +0.000 A 
ATOM     11  N   UNL     1      -0.235  10.427  20.858  0.00  0.00    +0.000 N 
ATOM     12  C   UNL     1       0.819   9.597  21.190  0.00  0.00    +0.000 C 
ATOM     13  O   UNL     1       1.319   9.458  22.301  0.00  0.00    +0.000 OA
ATOM     14  N   UNL     1      -0.510  11.432  23.045  0.00  0.00    +0.000 NA
ATOM     15  O   UNL     1      -1.334  12.409  23.560  0.00  0.00    +0.000 OA
ATOM     16  H   UNL     1      -0.552  10.500  19.906  0.00  0.00    +0.000 HD
ENDBRANCH   1  12
BRANCH   5  17
ATOM     17  S   UNL     1       2.760   5.088  19.166  0.00  0.00    +0.000 S 
ATOM     18  O   UNL     1       2.954   4.785  20.569  0.00  0.00    +0.000 OA
ATOM     19  O   UNL     1       1.772   4.383  18.379  0.00  0.00    +0.000 OA
BRANCH  17  20
ATOM     20  N   UNL     1       4.271   4.980  18.378  0.00  0.00    +0.000 NA
ATOM     21  C   UNL     1       5.439   4.638  19.215  0.00  0.00    +0.000 C 
ATOM     22  C   UNL     1       6.642   5.506  18.857  0.00  0.00    +0.000 C 
ATOM     23  C   UNL     1       7.447   4.989  17.670  0.00  0.00    +0.000 C 
ATOM     24  C   UNL     1       6.667   4.945  16.363  0.00  0.00    +0.000 C 
ATOM     25  C   UNL     1       5.514   3.948  16.397  0.00  0.00    +0.000 C 
ATOM     26  C   UNL     1       4.221   4.508  16.974  0.00  0.00    +0.000 C 
ENDBRANCH  17  20
ENDBRANCH   5  17
TORSDOF 3
ENDMDL
MODEL 7
REMARK VINA RESULT:      -8.2      3.745      6.657
REMARK  Name = 
REMARK  4 active torsions:
REMARK  status: ('A' for Active; 'I' for Inactive)
REMARK    1  A    between atoms: C_1  and  C_2
REMARK    2  A    between atoms: C_6  and  C_8
REMARK    3  A    between atoms: C_12  and  S_13
REMARK    4  A    between atoms: S_13  and  N_16
REMARK                            x       y       z     vdW  Elec       q    Type
REMARK                         _______ _______ _______ _____ _____    ______ ____
ROOT
ATOM      1  C   UNL     1       6.718   5.629  17.213  0.00  0.00    +0.000 A 
ATOM      2  C   UNL     1       7.185   5.323  15.923  0.00  0.00    +0.000 A 
ATOM      3  C   UNL     1       6.521   4.392  15.123  0.00  0.00    +0.000 A 
ATOM      4  C   UNL     1       5.384   3.750  15.606  0.00  0.00    +0.000 A 
ATOM      5  C   UNL     1       4.937   4.021  16.904  0.00  0.00    +0.000 A 
ATOM      6  C   UNL     1       5.594   4.962  17.711  0.00  0.00    +0.000 A 
ENDROOT
BRANCH   1  12
ATOM      7  C   UNL     1       9.573  12.387  18.303  0.00  0.00    +0.000 C 
ATOM      8  C   UNL     1       9.067  11.005  18.266  0.00  0.00    +0.000 A 
ATOM      9  C   UNL     1       8.203  10.306  17.458  0.00  0.00    +0.000 A 
ATOM     10  C   UNL     1       8.185   8.996  18.000  0.00  0.00    +0.000 A 
ATOM     11  N   UNL     1       7.454   7.944  17.464  0.00  0.00    +0.000 N 
ATOM     12  C   UNL     1       7.469   6.664  17.985  0.00  0.00    +0.000 C 
ATOM     13  O   UNL     1       8.058   6.293  18.994  0.00  0.00    +0.000 OA
ATOM     14  N   UNL     1       8.977   8.928  19.073  0.00  0.00    +0.000 NA
ATOM     15  O   UNL     1       9.532  10.178  19.236  0.00  0.00    +0.000 OA
ATOM     16  H   UNL     1       6.970   8.145  16.606  0.00  0.00    +0.000 HD
ENDBRANCH   1  12
BRANCH   5  17
ATOM     17  S   UNL     1       3.428   3.257  17.484  0.00  0.00    +0.000 S 
ATOM     18  O   UNL     1       2.533   3.189  16.346  0.00  0.00    +0.000 OA
ATOM     19  O   UNL     1       3.807   2.064  18.209  0.00  0.00    +0.000 OA
BRANCH  17  20
ATOM     20  N   UNL     1       2.807   4.401  18.589  0.00  0.00    +0.000 NA
ATOM     21  C   UNL     1       2.220   5.631  18.019  0.00  0.00    +0.000 C 
ATOM     22  C   UNL     1       2.659   6.863  18.808  0.00  0.00    +0.000 C 
ATOM     23  C   UNL     1       1.817   7.135  20.049  0.00  0.00    +0.000 C 
ATOM     24  C   UNL     1       1.879   6.031  21.095  0.00  0.00    +0.000 C 
ATOM     25  C   UNL     1       1.271   4.720  20.607  0.00  0.00    +0.000 C 
ATOM     26  C   UNL     1       2.238   3.834  19.834  0.00  0.00    +0.000 C 
ENDBRANCH  17  20
ENDBRANCH   5  17
TORSDOF 3
ENDMDL
MODEL 8
REMARK VINA RESULT:      -8.2      1.045      1.649
REMARK  Name = 
REMARK  4 active torsions:
REMARK  status: ('A' for Active; 'I' for Inactive)
REMARK    1  A    between atoms: C_1  and  C_2
REMARK    2  A    between atoms: C_6  and  C_8
REMARK    3  A    between atoms: C_12  and  S_13
REMARK    4  A    between atoms: S_13  and  N_16
REMARK                            x       y       z     vdW  Elec       q    Type
REMARK                         _______ _______ _______ _____ _____    ______ ____
ROOT
ATOM      1  C   UNL     1       1.782   5.607  20.168  0.00  0.00    +0.000 A 
ATOM      2  C   UNL     1       0.746   4.816  20.695  0.00  0.00    +0.000 A 
ATOM      3  C   UNL     1       0.804   3.423  20.630  0.00  0.00    +0.000 A 
ATOM      4  C   UNL     1       1.898   2.803  20.033  0.00  0.00    +0.000 A 
ATOM      5  C   UNL     1       2.914   3.586  19.472  0.00  0.00    +0.000 A 
ATOM      6  C   UNL     1       2.867   4.986  19.541  0.00  0.00    +0.000 A 
ENDROOT
BRANCH   1  12
ATOM      7  C   UNL     1      -1.139  11.818  22.979  0.00  0.00    +0.000 C 
ATOM      8  C   UNL     1      -0.434  10.701  22.329  0.00  0.00    +0.000 A 
ATOM      9  C   UNL     1      -0.393   9.340  22.509  0.00  0.00    +0.000 A 
ATOM     10  C   UNL     1       0.497   8.872  21.509  0.00  0.00    +0.000 A 
ATOM     11  N   UNL     1       0.807   7.533  21.311  0.00  0.00    +0.000 N 
ATOM     12  C   UNL     1       1.654   7.088  20.313  0.00  0.00    +0.000 C 
ATOM     13  O   UNL     1       2.282   7.785  19.522  0.00  0.00    +0.000 OA
ATOM     14  N   UNL     1       0.968   9.895  20.792  0.00  0.00    +0.000 NA
ATOM     15  O   UNL     1       0.383  11.035  21.299  0.00  0.00    +0.000 OA
ATOM     16  H   UNL     1       0.305   6.881  21.888  0.00  0.00    +0.000 HD
ENDBRANCH   1  12
BRANCH   5  17
ATOM     17  S   UNL     1       4.355   2.780  18.785  0.00  0.00    +0.000 S 
ATOM     18  O   UNL     1       5.227   2.467  19.899  0.00  0.00    +0.000 OA
ATOM     19  O   UNL     1       3.879   1.745  17.894  0.00  0.00    +0.000 OA
BRANCH  17  20
ATOM     20  N   UNL     1       5.089   4.011  17.857  0.00  0.00    +0.000 NA
ATOM     21  C   UNL     1       6.430   4.462  18.284  0.00  0.00    +0.000 C 
ATOM     22  C   UNL     1       6.540   5.984  18.227  0.00  0.00    +0.000 C 
ATOM     23  C   UNL     1       6.889   6.527  16.847  0.00  0.00    +0.000 C 
ATOM     24  C   UNL     1       5.845   6.228  15.780  0.00  0.00    +0.000 C 
ATOM     25  C   UNL     1       5.710   4.738  15.486  0.00  0.00    +0.000 C 
ATOM     26  C   UNL     1       4.752   4.003  16.414  0.00  0.00    +0.000 C 
ENDBRANCH  17  20
ENDBRANCH   5  17
TORSDOF 3
ENDMDL
MODEL 9
REMARK VINA RESULT:      -8.1      5.052      7.083
REMARK  Name = 
REMARK  4 active torsions:
REMARK  status: ('A' for Active; 'I' for Inactive)
REMARK    1  A    between atoms: C_1  and  C_2
REMARK    2  A    between atoms: C_6  and  C_8
REMARK    3  A    between atoms: C_12  and  S_13
REMARK    4  A    between atoms: S_13  and  N_16
REMARK                            x       y       z     vdW  Elec       q    Type
REMARK                         _______ _______ _______ _____ _____    ______ ____
ROOT
ATOM      1  C   UNL     1       7.782   7.626  18.162  0.00  0.00    +0.000 A 
ATOM      2  C   UNL     1       8.447   6.836  19.115  0.00  0.00    +0.000 A 
ATOM      3  C   UNL     1       8.122   5.489  19.283  0.00  0.00    +0.000 A 
ATOM      4  C   UNL     1       7.123   4.916  18.501  0.00  0.00    +0.000 A 
ATOM      5  C   UNL     1       6.429   5.707  17.577  0.00  0.00    +0.000 A 
ATOM      6  C   UNL     1       6.756   7.059  17.397  0.00  0.00    +0.000 A 
ENDROOT
BRANCH   1  12
ATOM      7  C   UNL     1      11.046  13.864  20.491  0.00  0.00    +0.000 C 
ATOM      8  C   UNL     1      10.372  12.718  19.860  0.00  0.00    +0.000 A 
ATOM      9  C   UNL     1      10.242  11.383  20.154  0.00  0.00    +0.000 A 
ATOM     10  C   UNL     1       9.436  10.861  19.111  0.00  0.00    +0.000 A 
ATOM     11  N   UNL     1       9.029   9.536  19.032  0.00  0.00    +0.000 N 
ATOM     12  C   UNL     1       8.218   9.048  18.025  0.00  0.00    +0.000 C 
ATOM     13  O   UNL     1       7.802   9.671  17.055  0.00  0.00    +0.000 OA
ATOM     14  N   UNL     1       9.120  11.826  18.243  0.00  0.00    +0.000 NA
ATOM     15  O   UNL     1       9.698  12.985  18.713  0.00  0.00    +0.000 OA
ATOM     16  H   UNL     1       9.290   8.955  19.811  0.00  0.00    +0.000 HD
ENDBRANCH   1  12
BRANCH   5  17
ATOM     17  S   UNL     1       5.209   4.942  16.518  0.00  0.00    +0.000 S 
ATOM     18  O   UNL     1       4.828   5.936  15.536  0.00  0.00    +0.000 OA
ATOM     19  O   UNL     1       5.740   3.659  16.114  0.00  0.00    +0.000 OA
BRANCH  17  20
ATOM     20  N   UNL     1       3.885   4.685  17.565  0.00  0.00    +0.000 NA
ATOM     21  C   UNL     1       3.379   5.860  18.304  0.00  0.00    +0.000 C 
ATOM     22  C   UNL     1       3.083   5.505  19.759  0.00  0.00    +0.000 C 
ATOM     23  C   UNL     1       1.709   4.881  19.976  0.00  0.00    +0.000 C 
ATOM     24  C   UNL     1       1.511   3.551  19.262  0.00  0.00    +0.000 C 
ATOM     25  C   UNL     1       1.539   3.686  17.744  0.00  0.00    +0.000 C 
ATOM     26  C   UNL     1       2.934   3.631  17.137  0.00  0.00    +0.000 C 
ENDBRANCH  17  20
ENDBRANCH   5  17
TORSDOF 3
ENDMDL
