MODEL 1
REMARK VINA RESULT:      -5.8      0.000      0.000
REMARK  Name = 
REMARK  2 active torsions:
REMARK  status: ('A' for Active; 'I' for Inactive)
REMARK    1  A    between atoms: C_2  and  C_4
REMARK    2  A    between atoms: N_6  and  C_7
REMARK                            x       y       z     vdW  Elec       q    Type
REMARK                         _______ _______ _______ _____ _____    ______ ____
ROOT
ATOM      1  C   UNL     1       5.270   4.558  18.374  0.00  0.00    +0.000 C 
ATOM      2  O   UNL     1       5.345   5.454  19.211  0.00  0.00    +0.000 OA
ATOM      3  N   UNL     1       4.341   3.535  18.374  0.00  0.00    +0.000 N 
ATOM      4  H   UNL     1       4.481   2.790  17.700  0.00  0.00    +0.000 HD
ENDROOT
BRANCH   3   5
ATOM      5  C   UNL     1       3.273   3.376  19.283  0.00  0.00    +0.000 A 
ATOM      6  C   UNL     1       1.978   3.840  19.028  0.00  0.00    +0.000 A 
ATOM      7  C   UNL     1       0.963   3.680  19.973  0.00  0.00    +0.000 A 
ATOM      8  C   UNL     1       1.231   3.055  21.187  0.00  0.00    +0.000 A 
ATOM      9  C   UNL     1       2.510   2.571  21.446  0.00  0.00    +0.000 A 
ATOM     10  C   UNL     1       3.525   2.720  20.493  0.00  0.00    +0.000 A 
ENDBRANCH   3   5
BRANCH   1  12
ATOM     11  C   UNL     1       7.579   4.611  17.572  0.00  0.00    +0.000 C 
ATOM     12  C   UNL     1       6.280   4.494  17.255  0.00  0.00    +0.000 C 
ATOM     13 BR   UNL     1       5.732   4.280  15.482  0.00  0.00    +0.000 Br
ENDBRANCH   1  12
TORSDOF 2
ENDMDL
MODEL 2
REMARK VINA RESULT:      -5.8      1.224      1.239
REMARK  Name = 
REMARK  2 active torsions:
REMARK  status: ('A' for Active; 'I' for Inactive)
REMARK    1  A    between atoms: C_2  and  C_4
REMARK    2  A    between atoms: N_6  and  C_7
REMARK                            x       y       z     vdW  Elec       q    Type
REMARK                         _______ _______ _______ _____ _____    ______ ____
ROOT
ATOM      1  C   UNL     1       4.880   4.445  17.116  0.00  0.00    +0.000 C 
ATOM      2  O   UNL     1       4.243   5.496  17.123  0.00  0.00    +0.000 OA
ATOM      3  N   UNL     1       4.536   3.293  17.796  0.00  0.00    +0.000 N 
ATOM      4  H   UNL     1       5.223   2.547  17.808  0.00  0.00    +0.000 HD
ENDROOT
BRANCH   3   5
ATOM      5  C   UNL     1       3.363   3.088  18.555  0.00  0.00    +0.000 A 
ATOM      6  C   UNL     1       2.139   2.726  17.987  0.00  0.00    +0.000 A 
ATOM      7  C   UNL     1       1.002   2.563  18.780  0.00  0.00    +0.000 A 
ATOM      8  C   UNL     1       1.077   2.761  20.155  0.00  0.00    +0.000 A 
ATOM      9  C   UNL     1       2.294   3.103  20.738  0.00  0.00    +0.000 A 
ATOM     10  C   UNL     1       3.436   3.255  19.943  0.00  0.00    +0.000 A 
ENDBRANCH   3   5
BRANCH   1  12
ATOM     11  C   UNL     1       7.321   4.543  17.033  0.00  0.00    +0.000 C 
ATOM     12  C   UNL     1       6.179   4.364  16.352  0.00  0.00    +0.000 C 
ATOM     13 BR   UNL     1       6.188   4.044  14.512  0.00  0.00    +0.000 Br
ENDBRANCH   1  12
TORSDOF 2
ENDMDL
MODEL 3
REMARK VINA RESULT:      -5.7      1.715      1.857
REMARK  Name = 
REMARK  2 active torsions:
REMARK  status: ('A' for Active; 'I' for Inactive)
REMARK    1  A    between atoms: C_2  and  C_4
REMARK    2  A    between atoms: N_6  and  C_7
REMARK                            x       y       z     vdW  Elec       q    Type
REMARK                         _______ _______ _______ _____ _____    ______ ____
ROOT
ATOM      1  C   UNL     1       5.400   4.502  18.236  0.00  0.00    +0.000 C 
ATOM      2  O   UNL     1       5.788   3.982  19.280  0.00  0.00    +0.000 OA
ATOM      3  N   UNL     1       4.085   4.580  17.819  0.00  0.00    +0.000 N 
ATOM      4  H   UNL     1       3.925   4.915  16.876  0.00  0.00    +0.000 HD
ENDROOT
BRANCH   3   5
ATOM      5  C   UNL     1       2.952   4.149  18.541  0.00  0.00    +0.000 A 
ATOM      6  C   UNL     1       2.459   4.823  19.663  0.00  0.00    +0.000 A 
ATOM      7  C   UNL     1       1.349   4.339  20.357  0.00  0.00    +0.000 A 
ATOM      8  C   UNL     1       0.718   3.172  19.939  0.00  0.00    +0.000 A 
ATOM      9  C   UNL     1       1.186   2.501  18.812  0.00  0.00    +0.000 A 
ATOM     10  C   UNL     1       2.291   2.994  18.109  0.00  0.00    +0.000 A 
ENDBRANCH   3   5
BRANCH   1  12
ATOM     11  C   UNL     1       6.670   4.389  16.151  0.00  0.00    +0.000 C 
ATOM     12  C   UNL     1       6.405   5.081  17.271  0.00  0.00    +0.000 C 
ATOM     13 BR   UNL     1       7.264   6.697  17.638  0.00  0.00    +0.000 Br
ENDBRANCH   1  12
TORSDOF 2
ENDMDL
MODEL 4
REMARK VINA RESULT:      -5.7      2.046      2.263
REMARK  Name = 
REMARK  2 active torsions:
REMARK  status: ('A' for Active; 'I' for Inactive)
REMARK    1  A    between atoms: C_2  and  C_4
REMARK    2  A    between atoms: N_6  and  C_7
REMARK                            x       y       z     vdW  Elec       q    Type
REMARK                         _______ _______ _______ _____ _____    ______ ____
ROOT
ATOM      1  C   UNL     1       4.868   5.594  18.158  0.00  0.00    +0.000 C 
ATOM      2  O   UNL     1       5.402   5.228  19.203  0.00  0.00    +0.000 OA
ATOM      3  N   UNL     1       3.569   5.313  17.779  0.00  0.00    +0.000 N 
ATOM      4  H   UNL     1       3.306   5.563  16.832  0.00  0.00    +0.000 HD
ENDROOT
BRANCH   3   5
ATOM      5  C   UNL     1       2.604   4.626  18.546  0.00  0.00    +0.000 A 
ATOM      6  C   UNL     1       2.151   5.081  19.788  0.00  0.00    +0.000 A 
ATOM      7  C   UNL     1       1.213   4.348  20.518  0.00  0.00    +0.000 A 
ATOM      8  C   UNL     1       0.717   3.150  20.015  0.00  0.00    +0.000 A 
ATOM      9  C   UNL     1       1.145   2.695  18.771  0.00  0.00    +0.000 A 
ATOM     10  C   UNL     1       2.076   3.436  18.033  0.00  0.00    +0.000 A 
ENDBRANCH   3   5
BRANCH   1  12
ATOM     11  C   UNL     1       5.121   6.584  15.938  0.00  0.00    +0.000 C 
ATOM     12  C   UNL     1       5.665   6.382  17.148  0.00  0.00    +0.000 C 
ATOM     13 BR   UNL     1       7.364   7.034  17.567  0.00  0.00    +0.000 Br
ENDBRANCH   1  12
TORSDOF 2
ENDMDL
MODEL 5
REMARK VINA RESULT:      -5.7      1.687      2.040
REMARK  Name = 
REMARK  2 active torsions:
REMARK  status: ('A' for Active; 'I' for Inactive)
REMARK    1  A    between atoms: C_2  and  C_4
REMARK    2  A    between atoms: N_6  and  C_7
REMARK                            x       y       z     vdW  Elec       q    Type
REMARK                         _______ _______ _______ _____ _____    ______ ____
ROOT
ATOM      1  C   UNL     1       6.101   5.175  18.826  0.00  0.00    +0.000 C 
ATOM      2  O   UNL     1       6.604   5.163  19.948  0.00  0.00    +0.000 OA
ATOM      3  N   UNL     1       4.811   4.782  18.521  0.00  0.00    +0.000 N 
ATOM      4  H   UNL     1       4.575   4.717  17.537  0.00  0.00    +0.000 HD
ENDROOT
BRANCH   3   5
ATOM      5  C   UNL     1       3.822   4.372  19.440  0.00  0.00    +0.000 A 
ATOM      6  C   UNL     1       3.722   3.064  19.922  0.00  0.00    +0.000 A 
ATOM      7  C   UNL     1       2.707   2.705  20.810  0.00  0.00    +0.000 A 
ATOM      8  C   UNL     1       1.777   3.651  21.228  0.00  0.00    +0.000 A 
ATOM      9  C   UNL     1       1.876   4.963  20.771  0.00  0.00    +0.000 A 
ATOM     10  C   UNL     1       2.901   5.326  19.890  0.00  0.00    +0.000 A 
ENDBRANCH   3   5
BRANCH   1  12
ATOM     11  C   UNL     1       7.224   4.677  16.713  0.00  0.00    +0.000 C 
ATOM     12  C   UNL     1       6.929   5.602  17.640  0.00  0.00    +0.000 C 
ATOM     13 BR   UNL     1       7.539   7.360  17.482  0.00  0.00    +0.000 Br
ENDBRANCH   1  12
TORSDOF 2
ENDMDL
MODEL 6
REMARK VINA RESULT:      -5.7      1.702      1.712
REMARK  Name = 
REMARK  2 active torsions:
REMARK  status: ('A' for Active; 'I' for Inactive)
REMARK    1  A    between atoms: C_2  and  C_4
REMARK    2  A    between atoms: N_6  and  C_7
REMARK                            x       y       z     vdW  Elec       q    Type
REMARK                         _______ _______ _______ _____ _____    ______ ____
ROOT
ATOM      1  C   UNL     1       6.092   5.200  18.836  0.00  0.00    +0.000 C 
ATOM      2  O   UNL     1       6.591   5.162  19.959  0.00  0.00    +0.000 OA
ATOM      3  N   UNL     1       4.792   4.852  18.524  0.00  0.00    +0.000 N 
ATOM      4  H   UNL     1       4.556   4.803  17.539  0.00  0.00    +0.000 HD
ENDROOT
BRANCH   3   5
ATOM      5  C   UNL     1       3.787   4.464  19.437  0.00  0.00    +0.000 A 
ATOM      6  C   UNL     1       2.820   5.346  19.928  0.00  0.00    +0.000 A 
ATOM      7  C   UNL     1       1.865   4.918  20.851  0.00  0.00    +0.000 A 
ATOM      8  C   UNL     1       1.865   3.600  21.295  0.00  0.00    +0.000 A 
ATOM      9  C   UNL     1       2.810   2.705  20.800  0.00  0.00    +0.000 A 
ATOM     10  C   UNL     1       3.760   3.132  19.865  0.00  0.00    +0.000 A 
ENDBRANCH   3   5
BRANCH   1  12
ATOM     11  C   UNL     1       7.247   4.675  16.748  0.00  0.00    +0.000 C 
ATOM     12  C   UNL     1       6.937   5.613  17.657  0.00  0.00    +0.000 C 
ATOM     13 BR   UNL     1       7.546   7.370  17.483  0.00  0.00    +0.000 Br
ENDBRANCH   1  12
TORSDOF 2
ENDMDL
MODEL 7
REMARK VINA RESULT:      -5.7      1.519      1.646
REMARK  Name = 
REMARK  2 active torsions:
REMARK  status: ('A' for Active; 'I' for Inactive)
REMARK    1  A    between atoms: C_2  and  C_4
REMARK    2  A    between atoms: N_6  and  C_7
REMARK                            x       y       z     vdW  Elec       q    Type
REMARK                         _______ _______ _______ _____ _____    ______ ____
ROOT
ATOM      1  C   UNL     1       5.587   4.856  18.102  0.00  0.00    +0.000 C 
ATOM      2  O   UNL     1       6.013   4.149  19.012  0.00  0.00    +0.000 OA
ATOM      3  N   UNL     1       4.255   5.130  17.854  0.00  0.00    +0.000 N 
ATOM      4  H   UNL     1       4.043   5.617  16.990  0.00  0.00    +0.000 HD
ENDROOT
BRANCH   3   5
ATOM      5  C   UNL     1       3.157   4.715  18.636  0.00  0.00    +0.000 A 
ATOM      6  C   UNL     1       2.305   3.671  18.264  0.00  0.00    +0.000 A 
ATOM      7  C   UNL     1       1.215   3.318  19.062  0.00  0.00    +0.000 A 
ATOM      8  C   UNL     1       0.964   4.006  20.244  0.00  0.00    +0.000 A 
ATOM      9  C   UNL     1       1.815   5.036  20.637  0.00  0.00    +0.000 A 
ATOM     10  C   UNL     1       2.914   5.381  19.843  0.00  0.00    +0.000 A 
ENDBRANCH   3   5
BRANCH   1  12
ATOM     11  C   UNL     1       7.223   6.567  17.491  0.00  0.00    +0.000 C 
ATOM     12  C   UNL     1       6.552   5.466  17.115  0.00  0.00    +0.000 C 
ATOM     13 BR   UNL     1       6.786   4.721  15.419  0.00  0.00    +0.000 Br
ENDBRANCH   1  12
TORSDOF 2
ENDMDL
MODEL 8
REMARK VINA RESULT:      -5.7      1.888      2.043
REMARK  Name = 
REMARK  2 active torsions:
REMARK  status: ('A' for Active; 'I' for Inactive)
REMARK    1  A    between atoms: C_2  and  C_4
REMARK    2  A    between atoms: N_6  and  C_7
REMARK                            x       y       z     vdW  Elec       q    Type
REMARK                         _______ _______ _______ _____ _____    ______ ____
ROOT
ATOM      1  C   UNL     1       5.019   5.093  18.125  0.00  0.00    +0.000 C 
ATOM      2  O   UNL     1       5.601   4.317  18.880  0.00  0.00    +0.000 OA
ATOM      3  N   UNL     1       3.650   5.170  17.951  0.00  0.00    +0.000 N 
ATOM      4  H   UNL     1       3.319   5.762  17.198  0.00  0.00    +0.000 HD
ENDROOT
BRANCH   3   5
ATOM      5  C   UNL     1       2.675   4.433  18.656  0.00  0.00    +0.000 A 
ATOM      6  C   UNL     1       2.032   3.312  18.124  0.00  0.00    +0.000 A 
ATOM      7  C   UNL     1       1.054   2.635  18.855  0.00  0.00    +0.000 A 
ATOM      8  C   UNL     1       0.707   3.071  20.129  0.00  0.00    +0.000 A 
ATOM      9  C   UNL     1       1.353   4.175  20.680  0.00  0.00    +0.000 A 
ATOM     10  C   UNL     1       2.342   4.847  19.951  0.00  0.00    +0.000 A 
ENDBRANCH   3   5
BRANCH   1  12
ATOM     11  C   UNL     1       5.317   6.364  16.058  0.00  0.00    +0.000 C 
ATOM     12  C   UNL     1       5.820   6.033  17.258  0.00  0.00    +0.000 C 
ATOM     13 BR   UNL     1       7.469   6.694  17.832  0.00  0.00    +0.000 Br
ENDBRANCH   1  12
TORSDOF 2
ENDMDL
MODEL 9
REMARK VINA RESULT:      -5.7      1.422      1.626
REMARK  Name = 
REMARK  2 active torsions:
REMARK  status: ('A' for Active; 'I' for Inactive)
REMARK    1  A    between atoms: C_2  and  C_4
REMARK    2  A    between atoms: N_6  and  C_7
REMARK                            x       y       z     vdW  Elec       q    Type
REMARK                         _______ _______ _______ _____ _____    ______ ____
ROOT
ATOM      1  C   UNL     1       5.446   4.624  18.112  0.00  0.00    +0.000 C 
ATOM      2  O   UNL     1       5.871   4.007  19.087  0.00  0.00    +0.000 OA
ATOM      3  N   UNL     1       4.114   4.861  17.830  0.00  0.00    +0.000 N 
ATOM      4  H   UNL     1       3.904   5.265  16.924  0.00  0.00    +0.000 HD
ENDROOT
BRANCH   3   5
ATOM      5  C   UNL     1       3.013   4.509  18.639  0.00  0.00    +0.000 A 
ATOM      6  C   UNL     1       2.686   5.181  19.820  0.00  0.00    +0.000 A 
ATOM      7  C   UNL     1       1.601   4.774  20.598  0.00  0.00    +0.000 A 
ATOM      8  C   UNL     1       0.828   3.687  20.204  0.00  0.00    +0.000 A 
ATOM      9  C   UNL     1       1.130   3.019  19.020  0.00  0.00    +0.000 A 
ATOM     10  C   UNL     1       2.211   3.436  18.234  0.00  0.00    +0.000 A 
ENDBRANCH   3   5
BRANCH   1  12
ATOM     11  C   UNL     1       7.228   6.156  17.439  0.00  0.00    +0.000 C 
ATOM     12  C   UNL     1       6.414   5.151  17.081  0.00  0.00    +0.000 C 
ATOM     13 BR   UNL     1       6.458   4.436  15.356  0.00  0.00    +0.000 Br
ENDBRANCH   1  12
TORSDOF 2
ENDMDL
