MODEL 1
REMARK VINA RESULT:      -6.8      0.000      0.000
REMARK  Name = 
REMARK  9 active torsions:
REMARK  status: ('A' for Active; 'I' for Inactive)
REMARK    1  A    between atoms: C_1  and  C_2
REMARK    2  A    between atoms: C_2  and  C_3
REMARK    3  A    between atoms: C_3  and  C_4
REMARK    4  A    between atoms: C_3  and  C_5
REMARK    5  A    between atoms: C_3  and  C_6
REMARK    6  A    between atoms: N_8  and  C_9
REMARK    7  A    between atoms: C_9  and  C_10
REMARK    8  A    between atoms: C_9  and  C_11
REMARK    9  A    between atoms: C_9  and  C_12
REMARK                            x       y       z     vdW  Elec       q    Type
REMARK                         _______ _______ _______ _____ _____    ______ ____
ROOT
ATOM      1  C   UNL     1       5.562   5.095  18.635  0.00  0.00    +0.000 C 
ATOM      2  O   UNL     1       5.400   3.980  19.122  0.00  0.00    +0.000 OA
ATOM      3  N   UNL     1       4.535   6.005  18.491  0.00  0.00    +0.000 N 
ATOM      4  H   UNL     1       4.725   6.894  18.055  0.00  0.00    +0.000 HD
ENDROOT
BRANCH   1   5
ATOM      5  C   UNL     1       6.941   5.563  18.126  0.00  0.00    +0.000 C 
ATOM      6  C   UNL     1       7.888   5.745  19.331  0.00  0.00    +0.000 C 
ATOM      7  C   UNL     1       6.785   6.929  17.431  0.00  0.00    +0.000 C 
BRANCH   5   9
ATOM      8  C   UNL     1       6.779   4.423  15.800  0.00  0.00    +0.000 C 
ATOM      9  C   UNL     1       7.531   4.539  17.123  0.00  0.00    +0.000 C 
ENDBRANCH   5   9
ENDBRANCH   1   5
BRANCH   3  10
ATOM     10  C   UNL     1       3.135   5.751  18.877  0.00  0.00    +0.000 C 
ATOM     11  C   UNL     1       2.450   4.848  17.825  0.00  0.00    +0.000 C 
ATOM     12  C   UNL     1       3.081   5.001  20.229  0.00  0.00    +0.000 C 
BRANCH  10  13
ATOM     13  C   UNL     1       2.439   7.132  18.983  0.00  0.00    +0.000 A 
ATOM     14  C   UNL     1       1.850   7.578  20.184  0.00  0.00    +0.000 A 
ATOM     15  C   UNL     1       1.204   8.817  20.265  0.00  0.00    +0.000 A 
ATOM     16  C   UNL     1       1.121   9.639  19.146  0.00  0.00    +0.000 A 
ATOM     17  C   UNL     1       1.677   9.217  17.944  0.00  0.00    +0.000 A 
ATOM     18  C   UNL     1       2.318   7.977  17.864  0.00  0.00    +0.000 A 
ENDBRANCH  10  13
ENDBRANCH   3  10
TORSDOF 4
ENDMDL
MODEL 2
REMARK VINA RESULT:      -6.6      3.158      6.306
REMARK  Name = 
REMARK  9 active torsions:
REMARK  status: ('A' for Active; 'I' for Inactive)
REMARK    1  A    between atoms: C_1  and  C_2
REMARK    2  A    between atoms: C_2  and  C_3
REMARK    3  A    between atoms: C_3  and  C_4
REMARK    4  A    between atoms: C_3  and  C_5
REMARK    5  A    between atoms: C_3  and  C_6
REMARK    6  A    between atoms: N_8  and  C_9
REMARK    7  A    between atoms: C_9  and  C_10
REMARK    8  A    between atoms: C_9  and  C_11
REMARK    9  A    between atoms: C_9  and  C_12
REMARK                            x       y       z     vdW  Elec       q    Type
REMARK                         _______ _______ _______ _____ _____    ______ ____
ROOT
ATOM      1  C   UNL     1       4.700   3.907  18.258  0.00  0.00    +0.000 C 
ATOM      2  O   UNL     1       5.435   4.196  19.197  0.00  0.00    +0.000 OA
ATOM      3  N   UNL     1       4.995   4.229  16.950  0.00  0.00    +0.000 N 
ATOM      4  H   UNL     1       4.335   3.991  16.225  0.00  0.00    +0.000 HD
ENDROOT
BRANCH   1   5
ATOM      5  C   UNL     1       3.365   3.165  18.475  0.00  0.00    +0.000 C 
ATOM      6  C   UNL     1       3.557   1.671  18.138  0.00  0.00    +0.000 C 
ATOM      7  C   UNL     1       2.307   3.739  17.513  0.00  0.00    +0.000 C 
BRANCH   5   9
ATOM      8  C   UNL     1       1.371   3.525  20.097  0.00  0.00    +0.000 C 
ATOM      9  C   UNL     1       2.876   3.333  19.936  0.00  0.00    +0.000 C 
ENDBRANCH   5   9
ENDBRANCH   1   5
BRANCH   3  10
ATOM     10  C   UNL     1       6.198   4.966  16.523  0.00  0.00    +0.000 C 
ATOM     11  C   UNL     1       6.003   6.483  16.762  0.00  0.00    +0.000 C 
ATOM     12  C   UNL     1       7.421   4.524  17.361  0.00  0.00    +0.000 C 
BRANCH  10  13
ATOM     13  C   UNL     1       6.413   4.649  15.021  0.00  0.00    +0.000 A 
ATOM     14  C   UNL     1       7.454   5.241  14.277  0.00  0.00    +0.000 A 
ATOM     15  C   UNL     1       7.627   4.965  12.916  0.00  0.00    +0.000 A 
ATOM     16  C   UNL     1       6.760   4.098  12.260  0.00  0.00    +0.000 A 
ATOM     17  C   UNL     1       5.713   3.515  12.963  0.00  0.00    +0.000 A 
ATOM     18  C   UNL     1       5.538   3.795  14.322  0.00  0.00    +0.000 A 
ENDBRANCH  10  13
ENDBRANCH   3  10
TORSDOF 4
ENDMDL
MODEL 3
REMARK VINA RESULT:      -6.6      2.251      3.360
REMARK  Name = 
REMARK  9 active torsions:
REMARK  status: ('A' for Active; 'I' for Inactive)
REMARK    1  A    between atoms: C_1  and  C_2
REMARK    2  A    between atoms: C_2  and  C_3
REMARK    3  A    between atoms: C_3  and  C_4
REMARK    4  A    between atoms: C_3  and  C_5
REMARK    5  A    between atoms: C_3  and  C_6
REMARK    6  A    between atoms: N_8  and  C_9
REMARK    7  A    between atoms: C_9  and  C_10
REMARK    8  A    between atoms: C_9  and  C_11
REMARK    9  A    between atoms: C_9  and  C_12
REMARK                            x       y       z     vdW  Elec       q    Type
REMARK                         _______ _______ _______ _____ _____    ______ ____
ROOT
ATOM      1  C   UNL     1       5.305   4.145  17.310  0.00  0.00    +0.000 C 
ATOM      2  O   UNL     1       4.354   4.016  16.545  0.00  0.00    +0.000 OA
ATOM      3  N   UNL     1       5.340   3.572  18.565  0.00  0.00    +0.000 N 
ATOM      4  H   UNL     1       6.138   3.741  19.159  0.00  0.00    +0.000 HD
ENDROOT
BRANCH   1   5
ATOM      5  C   UNL     1       6.545   4.980  16.926  0.00  0.00    +0.000 C 
ATOM      6  C   UNL     1       6.919   4.681  15.458  0.00  0.00    +0.000 C 
ATOM      7  C   UNL     1       7.731   4.561  17.815  0.00  0.00    +0.000 C 
BRANCH   5   9
ATOM      8  C   UNL     1       7.477   7.325  17.531  0.00  0.00    +0.000 C 
ATOM      9  C   UNL     1       6.267   6.492  17.118  0.00  0.00    +0.000 C 
ENDBRANCH   5   9
ENDBRANCH   1   5
BRANCH   3  10
ATOM     10  C   UNL     1       4.250   2.767  19.144  0.00  0.00    +0.000 C 
ATOM     11  C   UNL     1       3.677   1.804  18.078  0.00  0.00    +0.000 C 
ATOM     12  C   UNL     1       4.788   1.897  20.305  0.00  0.00    +0.000 C 
BRANCH  10  13
ATOM     13  C   UNL     1       3.175   3.761  19.652  0.00  0.00    +0.000 A 
ATOM     14  C   UNL     1       1.863   3.345  19.959  0.00  0.00    +0.000 A 
ATOM     15  C   UNL     1       0.892   4.254  20.396  0.00  0.00    +0.000 A 
ATOM     16  C   UNL     1       1.203   5.603  20.527  0.00  0.00    +0.000 A 
ATOM     17  C   UNL     1       2.483   6.044  20.213  0.00  0.00    +0.000 A 
ATOM     18  C   UNL     1       3.450   5.137  19.773  0.00  0.00    +0.000 A 
ENDBRANCH  10  13
ENDBRANCH   3  10
TORSDOF 4
ENDMDL
MODEL 4
REMARK VINA RESULT:      -6.6      2.950      6.267
REMARK  Name = 
REMARK  9 active torsions:
REMARK  status: ('A' for Active; 'I' for Inactive)
REMARK    1  A    between atoms: C_1  and  C_2
REMARK    2  A    between atoms: C_2  and  C_3
REMARK    3  A    between atoms: C_3  and  C_4
REMARK    4  A    between atoms: C_3  and  C_5
REMARK    5  A    between atoms: C_3  and  C_6
REMARK    6  A    between atoms: N_8  and  C_9
REMARK    7  A    between atoms: C_9  and  C_10
REMARK    8  A    between atoms: C_9  and  C_11
REMARK    9  A    between atoms: C_9  and  C_12
REMARK                            x       y       z     vdW  Elec       q    Type
REMARK                         _______ _______ _______ _____ _____    ______ ____
ROOT
ATOM      1  C   UNL     1       4.293   4.297  18.228  0.00  0.00    +0.000 C 
ATOM      2  O   UNL     1       4.708   5.030  19.121  0.00  0.00    +0.000 OA
ATOM      3  N   UNL     1       4.889   4.219  16.986  0.00  0.00    +0.000 N 
ATOM      4  H   UNL     1       4.481   3.620  16.283  0.00  0.00    +0.000 HD
ENDROOT
BRANCH   1   5
ATOM      5  C   UNL     1       3.048   3.407  18.425  0.00  0.00    +0.000 C 
ATOM      6  C   UNL     1       3.357   1.985  17.910  0.00  0.00    +0.000 C 
ATOM      7  C   UNL     1       1.885   3.975  17.589  0.00  0.00    +0.000 C 
BRANCH   5   9
ATOM      8  C   UNL     1       1.309   4.048  20.242  0.00  0.00    +0.000 C 
ATOM      9  C   UNL     1       2.636   3.366  19.918  0.00  0.00    +0.000 C 
ENDBRANCH   5   9
ENDBRANCH   1   5
BRANCH   3  10
ATOM     10  C   UNL     1       6.064   5.006  16.573  0.00  0.00    +0.000 C 
ATOM     11  C   UNL     1       5.806   6.512  16.816  0.00  0.00    +0.000 C 
ATOM     12  C   UNL     1       7.297   4.611  17.421  0.00  0.00    +0.000 C 
BRANCH  10  13
ATOM     13  C   UNL     1       6.306   4.704  15.073  0.00  0.00    +0.000 A 
ATOM     14  C   UNL     1       5.463   3.841  14.343  0.00  0.00    +0.000 A 
ATOM     15  C   UNL     1       5.702   3.557  12.993  0.00  0.00    +0.000 A 
ATOM     16  C   UNL     1       6.793   4.118  12.340  0.00  0.00    +0.000 A 
ATOM     17  C   UNL     1       7.652   4.958  13.040  0.00  0.00    +0.000 A 
ATOM     18  C   UNL     1       7.415   5.238  14.389  0.00  0.00    +0.000 A 
ENDBRANCH  10  13
ENDBRANCH   3  10
TORSDOF 4
ENDMDL
MODEL 5
REMARK VINA RESULT:      -6.6      2.850      5.546
REMARK  Name = 
REMARK  9 active torsions:
REMARK  status: ('A' for Active; 'I' for Inactive)
REMARK    1  A    between atoms: C_1  and  C_2
REMARK    2  A    between atoms: C_2  and  C_3
REMARK    3  A    between atoms: C_3  and  C_4
REMARK    4  A    between atoms: C_3  and  C_5
REMARK    5  A    between atoms: C_3  and  C_6
REMARK    6  A    between atoms: N_8  and  C_9
REMARK    7  A    between atoms: C_9  and  C_10
REMARK    8  A    between atoms: C_9  and  C_11
REMARK    9  A    between atoms: C_9  and  C_12
REMARK                            x       y       z     vdW  Elec       q    Type
REMARK                         _______ _______ _______ _____ _____    ______ ____
ROOT
ATOM      1  C   UNL     1       3.743   4.832  17.578  0.00  0.00    +0.000 C 
ATOM      2  O   UNL     1       3.633   6.054  17.618  0.00  0.00    +0.000 OA
ATOM      3  N   UNL     1       4.751   4.193  16.885  0.00  0.00    +0.000 N 
ATOM      4  H   UNL     1       4.770   3.185  16.865  0.00  0.00    +0.000 HD
ENDROOT
BRANCH   1   5
ATOM      5  C   UNL     1       2.740   3.906  18.297  0.00  0.00    +0.000 C 
ATOM      6  C   UNL     1       3.160   2.437  18.073  0.00  0.00    +0.000 C 
ATOM      7  C   UNL     1       1.342   4.101  17.681  0.00  0.00    +0.000 C 
BRANCH   5   9
ATOM      8  C   UNL     1       1.317   4.045  20.462  0.00  0.00    +0.000 C 
ATOM      9  C   UNL     1       2.685   4.229  19.811  0.00  0.00    +0.000 C 
ENDBRANCH   5   9
ENDBRANCH   1   5
BRANCH   3  10
ATOM     10  C   UNL     1       5.792   4.883  16.102  0.00  0.00    +0.000 C 
ATOM     11  C   UNL     1       6.633   3.852  15.313  0.00  0.00    +0.000 C 
ATOM     12  C   UNL     1       5.141   5.831  15.066  0.00  0.00    +0.000 C 
BRANCH  10  13
ATOM     13  C   UNL     1       6.661   5.679  17.108  0.00  0.00    +0.000 A 
ATOM     14  C   UNL     1       6.963   7.042  16.915  0.00  0.00    +0.000 A 
ATOM     15  C   UNL     1       7.768   7.747  17.819  0.00  0.00    +0.000 A 
ATOM     16  C   UNL     1       8.299   7.107  18.932  0.00  0.00    +0.000 A 
ATOM     17  C   UNL     1       8.034   5.758  19.137  0.00  0.00    +0.000 A 
ATOM     18  C   UNL     1       7.235   5.054  18.233  0.00  0.00    +0.000 A 
ENDBRANCH  10  13
ENDBRANCH   3  10
TORSDOF 4
ENDMDL
MODEL 6
REMARK VINA RESULT:      -6.6      2.346      3.536
REMARK  Name = 
REMARK  9 active torsions:
REMARK  status: ('A' for Active; 'I' for Inactive)
REMARK    1  A    between atoms: C_1  and  C_2
REMARK    2  A    between atoms: C_2  and  C_3
REMARK    3  A    between atoms: C_3  and  C_4
REMARK    4  A    between atoms: C_3  and  C_5
REMARK    5  A    between atoms: C_3  and  C_6
REMARK    6  A    between atoms: N_8  and  C_9
REMARK    7  A    between atoms: C_9  and  C_10
REMARK    8  A    between atoms: C_9  and  C_11
REMARK    9  A    between atoms: C_9  and  C_12
REMARK                            x       y       z     vdW  Elec       q    Type
REMARK                         _______ _______ _______ _____ _____    ______ ____
ROOT
ATOM      1  C   UNL     1       4.780   3.880  17.048  0.00  0.00    +0.000 C 
ATOM      2  O   UNL     1       3.669   3.783  16.535  0.00  0.00    +0.000 OA
ATOM      3  N   UNL     1       5.085   3.344  18.282  0.00  0.00    +0.000 N 
ATOM      4  H   UNL     1       6.008   3.485  18.664  0.00  0.00    +0.000 HD
ENDROOT
BRANCH   1   5
ATOM      5  C   UNL     1       5.930   4.633  16.348  0.00  0.00    +0.000 C 
ATOM      6  C   UNL     1       5.459   6.062  15.998  0.00  0.00    +0.000 C 
ATOM      7  C   UNL     1       6.279   3.911  15.032  0.00  0.00    +0.000 C 
BRANCH   5   9
ATOM      8  C   UNL     1       7.434   6.024  17.940  0.00  0.00    +0.000 C 
ATOM      9  C   UNL     1       7.184   4.683  17.255  0.00  0.00    +0.000 C 
ENDBRANCH   5   9
ENDBRANCH   1   5
BRANCH   3  10
ATOM     10  C   UNL     1       4.127   2.618  19.135  0.00  0.00    +0.000 C 
ATOM     11  C   UNL     1       3.461   1.476  18.333  0.00  0.00    +0.000 C 
ATOM     12  C   UNL     1       4.863   1.969  20.331  0.00  0.00    +0.000 C 
BRANCH  10  13
ATOM     13  C   UNL     1       3.084   3.654  19.626  0.00  0.00    +0.000 A 
ATOM     14  C   UNL     1       3.415   5.012  19.811  0.00  0.00    +0.000 A 
ATOM     15  C   UNL     1       2.472   5.937  20.275  0.00  0.00    +0.000 A 
ATOM     16  C   UNL     1       1.177   5.528  20.575  0.00  0.00    +0.000 A 
ATOM     17  C   UNL     1       0.828   4.192  20.419  0.00  0.00    +0.000 A 
ATOM     18  C   UNL     1       1.772   3.268  19.960  0.00  0.00    +0.000 A 
ENDBRANCH  10  13
ENDBRANCH   3  10
TORSDOF 4
ENDMDL
MODEL 7
REMARK VINA RESULT:      -6.5      0.766      2.060
REMARK  Name = 
REMARK  9 active torsions:
REMARK  status: ('A' for Active; 'I' for Inactive)
REMARK    1  A    between atoms: C_1  and  C_2
REMARK    2  A    between atoms: C_2  and  C_3
REMARK    3  A    between atoms: C_3  and  C_4
REMARK    4  A    between atoms: C_3  and  C_5
REMARK    5  A    between atoms: C_3  and  C_6
REMARK    6  A    between atoms: N_8  and  C_9
REMARK    7  A    between atoms: C_9  and  C_10
REMARK    8  A    between atoms: C_9  and  C_11
REMARK    9  A    between atoms: C_9  and  C_12
REMARK                            x       y       z     vdW  Elec       q    Type
REMARK                         _______ _______ _______ _____ _____    ______ ____
ROOT
ATOM      1  C   UNL     1       5.027   4.990  17.746  0.00  0.00    +0.000 C 
ATOM      2  O   UNL     1       4.741   3.804  17.885  0.00  0.00    +0.000 OA
ATOM      3  N   UNL     1       4.197   6.013  18.155  0.00  0.00    +0.000 N 
ATOM      4  H   UNL     1       4.475   6.968  17.985  0.00  0.00    +0.000 HD
ENDROOT
BRANCH   1   5
ATOM      5  C   UNL     1       6.348   5.430  17.082  0.00  0.00    +0.000 C 
ATOM      6  C   UNL     1       6.318   5.037  15.589  0.00  0.00    +0.000 C 
ATOM      7  C   UNL     1       7.520   4.685  17.748  0.00  0.00    +0.000 C 
BRANCH   5   9
ATOM      8  C   UNL     1       7.848   7.368  17.936  0.00  0.00    +0.000 C 
ATOM      9  C   UNL     1       6.555   6.958  17.236  0.00  0.00    +0.000 C 
ENDBRANCH   5   9
ENDBRANCH   1   5
BRANCH   3  10
ATOM     10  C   UNL     1       2.876   5.817  18.779  0.00  0.00    +0.000 C 
ATOM     11  C   UNL     1       2.009   4.882  17.902  0.00  0.00    +0.000 C 
ATOM     12  C   UNL     1       3.032   5.136  20.159  0.00  0.00    +0.000 C 
BRANCH  10  13
ATOM     13  C   UNL     1       2.233   7.220  18.924  0.00  0.00    +0.000 A 
ATOM     14  C   UNL     1       2.154   8.118  17.841  0.00  0.00    +0.000 A 
ATOM     15  C   UNL     1       1.591   9.391  17.987  0.00  0.00    +0.000 A 
ATOM     16  C   UNL     1       1.102   9.804  19.221  0.00  0.00    +0.000 A 
ATOM     17  C   UNL     1       1.184   8.947  20.311  0.00  0.00    +0.000 A 
ATOM     18  C   UNL     1       1.751   7.677  20.166  0.00  0.00    +0.000 A 
ENDBRANCH  10  13
ENDBRANCH   3  10
TORSDOF 4
ENDMDL
MODEL 8
REMARK VINA RESULT:      -6.5      0.565      1.502
REMARK  Name = 
REMARK  9 active torsions:
REMARK  status: ('A' for Active; 'I' for Inactive)
REMARK    1  A    between atoms: C_1  and  C_2
REMARK    2  A    between atoms: C_2  and  C_3
REMARK    3  A    between atoms: C_3  and  C_4
REMARK    4  A    between atoms: C_3  and  C_5
REMARK    5  A    between atoms: C_3  and  C_6
REMARK    6  A    between atoms: N_8  and  C_9
REMARK    7  A    between atoms: C_9  and  C_10
REMARK    8  A    between atoms: C_9  and  C_11
REMARK    9  A    between atoms: C_9  and  C_12
REMARK                            x       y       z     vdW  Elec       q    Type
REMARK                         _______ _______ _______ _____ _____    ______ ____
ROOT
ATOM      1  C   UNL     1       5.216   5.148  18.165  0.00  0.00    +0.000 C 
ATOM      2  O   UNL     1       4.836   4.024  17.850  0.00  0.00    +0.000 OA
ATOM      3  N   UNL     1       4.383   6.088  18.737  0.00  0.00    +0.000 N 
ATOM      4  H   UNL     1       4.747   7.005  18.944  0.00  0.00    +0.000 HD
ENDROOT
BRANCH   1   5
ATOM      5  C   UNL     1       6.671   5.606  17.930  0.00  0.00    +0.000 C 
ATOM      6  C   UNL     1       7.404   4.540  17.087  0.00  0.00    +0.000 C 
ATOM      7  C   UNL     1       7.390   5.718  19.287  0.00  0.00    +0.000 C 
BRANCH   5   9
ATOM      8  C   UNL     1       7.831   7.910  17.652  0.00  0.00    +0.000 C 
ATOM      9  C   UNL     1       6.703   6.979  17.215  0.00  0.00    +0.000 C 
ENDBRANCH   5   9
ENDBRANCH   1   5
BRANCH   3  10
ATOM     10  C   UNL     1       2.951   5.873  19.016  0.00  0.00    +0.000 C 
ATOM     11  C   UNL     1       2.318   5.004  17.903  0.00  0.00    +0.000 C 
ATOM     12  C   UNL     1       2.776   5.109  20.350  0.00  0.00    +0.000 C 
BRANCH  10  13
ATOM     13  C   UNL     1       2.291   7.273  19.090  0.00  0.00    +0.000 A 
ATOM     14  C   UNL     1       1.708   7.759  20.278  0.00  0.00    +0.000 A 
ATOM     15  C   UNL     1       1.095   9.016  20.331  0.00  0.00    +0.000 A 
ATOM     16  C   UNL     1       1.039   9.817  19.195  0.00  0.00    +0.000 A 
ATOM     17  C   UNL     1       1.589   9.356  18.005  0.00  0.00    +0.000 A 
ATOM     18  C   UNL     1       2.197   8.098  17.953  0.00  0.00    +0.000 A 
ENDBRANCH  10  13
ENDBRANCH   3  10
TORSDOF 4
ENDMDL
MODEL 9
REMARK VINA RESULT:      -6.5      1.028      2.174
REMARK  Name = 
REMARK  9 active torsions:
REMARK  status: ('A' for Active; 'I' for Inactive)
REMARK    1  A    between atoms: C_1  and  C_2
REMARK    2  A    between atoms: C_2  and  C_3
REMARK    3  A    between atoms: C_3  and  C_4
REMARK    4  A    between atoms: C_3  and  C_5
REMARK    5  A    between atoms: C_3  and  C_6
REMARK    6  A    between atoms: N_8  and  C_9
REMARK    7  A    between atoms: C_9  and  C_10
REMARK    8  A    between atoms: C_9  and  C_11
REMARK    9  A    between atoms: C_9  and  C_12
REMARK                            x       y       z     vdW  Elec       q    Type
REMARK                         _______ _______ _______ _____ _____    ______ ____
ROOT
ATOM      1  C   UNL     1       5.571   5.482  18.508  0.00  0.00    +0.000 C 
ATOM      2  O   UNL     1       5.676   5.476  19.731  0.00  0.00    +0.000 OA
ATOM      3  N   UNL     1       4.382   5.227  17.858  0.00  0.00    +0.000 N 
ATOM      4  H   UNL     1       4.366   5.215  16.849  0.00  0.00    +0.000 HD
ENDROOT
BRANCH   1   5
ATOM      5  C   UNL     1       6.782   5.763  17.594  0.00  0.00    +0.000 C 
ATOM      6  C   UNL     1       6.275   6.288  16.233  0.00  0.00    +0.000 C 
ATOM      7  C   UNL     1       7.541   4.446  17.344  0.00  0.00    +0.000 C 
BRANCH   5   9
ATOM      8  C   UNL     1       7.746   8.172  17.601  0.00  0.00    +0.000 C 
ATOM      9  C   UNL     1       7.736   6.791  18.251  0.00  0.00    +0.000 C 
ENDBRANCH   5   9
ENDBRANCH   1   5
BRANCH   3  10
ATOM     10  C   UNL     1       3.114   4.900  18.535  0.00  0.00    +0.000 C 
ATOM     11  C   UNL     1       2.169   4.156  17.562  0.00  0.00    +0.000 C 
ATOM     12  C   UNL     1       3.375   3.955  19.732  0.00  0.00    +0.000 C 
BRANCH  10  13
ATOM     13  C   UNL     1       2.500   6.240  19.014  0.00  0.00    +0.000 A 
ATOM     14  C   UNL     1       2.449   7.375  18.179  0.00  0.00    +0.000 A 
ATOM     15  C   UNL     1       1.912   8.588  18.627  0.00  0.00    +0.000 A 
ATOM     16  C   UNL     1       1.421   8.702  19.923  0.00  0.00    +0.000 A 
ATOM     17  C   UNL     1       1.476   7.605  20.774  0.00  0.00    +0.000 A 
ATOM     18  C   UNL     1       2.017   6.395  20.327  0.00  0.00    +0.000 A 
ENDBRANCH  10  13
ENDBRANCH   3  10
TORSDOF 4
ENDMDL
