MODEL 1
REMARK VINA RESULT:      -6.8      0.000      0.000
REMARK  Name = 
REMARK  7 active torsions:
REMARK  status: ('A' for Active; 'I' for Inactive)
REMARK    1  A    between atoms: C_1  and  C_2
REMARK    2  A    between atoms: C_2  and  O_3
REMARK    3  A    between atoms: O_3  and  C_4
REMARK    4  A    between atoms: C_4  and  C_5
REMARK    5  A    between atoms: N_7  and  C_8
REMARK    6  A    between atoms: C_8  and  C_9
REMARK    7  A    between atoms: C_12  and  C_13
REMARK                            x       y       z     vdW  Elec       q    Type
REMARK                         _______ _______ _______ _____ _____    ______ ____
ROOT
ATOM      1  C   UNL     1       3.056   3.797  18.363  0.00  0.00    +0.000 C 
ATOM      2  C   UNL     1       2.308   5.015  17.786  0.00  0.00    +0.000 C 
ATOM      3  N   UNL     1       2.813   6.334  18.146  0.00  0.00    +0.000 NA
ATOM      4  C   UNL     1       4.115   6.738  17.605  0.00  0.00    +0.000 C 
ATOM      5  C   UNL     1       4.798   5.845  16.614  0.00  0.00    +0.000 A 
ATOM      6  N   UNL     1       5.461   6.278  15.559  0.00  0.00    +0.000 NA
ATOM      7  C   UNL     1       5.983   5.173  14.952  0.00  0.00    +0.000 A 
ATOM      8  C   UNL     1       5.630   4.038  15.638  0.00  0.00    +0.000 A 
ATOM      9  N   UNL     1       4.901   4.474  16.718  0.00  0.00    +0.000 N 
ATOM     10  C   UNL     1       4.476   3.621  17.806  0.00  0.00    +0.000 C 
ENDROOT
BRANCH   1  11
ATOM     11  C   UNL     1       2.206   2.521  18.158  0.00  0.00    +0.000 C 
BRANCH  11  12
ATOM     12  O   UNL     1       1.605   1.948  19.317  0.00  0.00    +0.000 OA
BRANCH  12  14
ATOM     13  C   UNL     1       1.890   2.777  21.636  0.00  0.00    +0.000 C 
ATOM     14  C   UNL     1       1.129   2.834  20.321  0.00  0.00    +0.000 C 
ENDBRANCH  12  14
ENDBRANCH  11  12
ENDBRANCH   1  11
BRANCH   3  15
ATOM     15  C   UNL     1       2.689   6.697  19.565  0.00  0.00    +0.000 C 
BRANCH  15  16
ATOM     16  C   UNL     1       1.882   7.951  19.746  0.00  0.00    +0.000 A 
ATOM     17  C   UNL     1       1.578   8.866  18.751  0.00  0.00    +0.000 A 
ATOM     18  S   UNL     1       0.659  10.155  19.391  0.00  0.00    +0.000 S 
ATOM     19  C   UNL     1       0.712   9.412  20.939  0.00  0.00    +0.000 A 
ATOM     20  C   UNL     1       0.013  10.040  22.093  0.00  0.00    +0.000 C 
ATOM     21  N   UNL     1       1.399   8.288  21.007  0.00  0.00    +0.000 NA
ENDBRANCH  15  16
ENDBRANCH   3  15
TORSDOF 5
ENDMDL
MODEL 2
REMARK VINA RESULT:      -6.7      0.929      1.194
REMARK  Name = 
REMARK  7 active torsions:
REMARK  status: ('A' for Active; 'I' for Inactive)
REMARK    1  A    between atoms: C_1  and  C_2
REMARK    2  A    between atoms: C_2  and  O_3
REMARK    3  A    between atoms: O_3  and  C_4
REMARK    4  A    between atoms: C_4  and  C_5
REMARK    5  A    between atoms: N_7  and  C_8
REMARK    6  A    between atoms: C_8  and  C_9
REMARK    7  A    between atoms: C_12  and  C_13
REMARK                            x       y       z     vdW  Elec       q    Type
REMARK                         _______ _______ _______ _____ _____    ______ ____
ROOT
ATOM      1  C   UNL     1       2.967   3.811  18.331  0.00  0.00    +0.000 C 
ATOM      2  C   UNL     1       2.258   5.086  17.836  0.00  0.00    +0.000 C 
ATOM      3  N   UNL     1       2.825   6.364  18.250  0.00  0.00    +0.000 NA
ATOM      4  C   UNL     1       4.130   6.742  17.696  0.00  0.00    +0.000 C 
ATOM      5  C   UNL     1       4.751   5.874  16.644  0.00  0.00    +0.000 A 
ATOM      6  N   UNL     1       5.407   6.334  15.595  0.00  0.00    +0.000 NA
ATOM      7  C   UNL     1       5.868   5.241  14.920  0.00  0.00    +0.000 A 
ATOM      8  C   UNL     1       5.484   4.088  15.556  0.00  0.00    +0.000 A 
ATOM      9  N   UNL     1       4.799   4.497  16.676  0.00  0.00    +0.000 N 
ATOM     10  C   UNL     1       4.365   3.606  17.730  0.00  0.00    +0.000 C 
ENDROOT
BRANCH   1  11
ATOM     11  C   UNL     1       2.060   2.582  18.084  0.00  0.00    +0.000 C 
BRANCH  11  12
ATOM     12  O   UNL     1       1.328   2.080  19.199  0.00  0.00    +0.000 OA
BRANCH  12  14
ATOM     13  C   UNL     1       1.688   2.689  21.575  0.00  0.00    +0.000 C 
ATOM     14  C   UNL     1       1.014   2.989  20.246  0.00  0.00    +0.000 C 
ENDBRANCH  12  14
ENDBRANCH  11  12
ENDBRANCH   1  11
BRANCH   3  15
ATOM     15  C   UNL     1       2.750   6.657  19.687  0.00  0.00    +0.000 C 
BRANCH  15  16
ATOM     16  C   UNL     1       1.856   7.831  19.965  0.00  0.00    +0.000 A 
ATOM     17  C   UNL     1       1.179   8.067  21.150  0.00  0.00    +0.000 A 
ATOM     18  S   UNL     1       0.261   9.503  21.033  0.00  0.00    +0.000 S 
ATOM     19  C   UNL     1       0.830   9.724  19.428  0.00  0.00    +0.000 A 
ATOM     20  C   UNL     1       0.415  10.922  18.647  0.00  0.00    +0.000 C 
ATOM     21  N   UNL     1       1.628   8.779  18.972  0.00  0.00    +0.000 NA
ENDBRANCH  15  16
ENDBRANCH   3  15
TORSDOF 5
ENDMDL
MODEL 3
REMARK VINA RESULT:      -6.7      2.432      4.110
REMARK  Name = 
REMARK  7 active torsions:
REMARK  status: ('A' for Active; 'I' for Inactive)
REMARK    1  A    between atoms: C_1  and  C_2
REMARK    2  A    between atoms: C_2  and  O_3
REMARK    3  A    between atoms: O_3  and  C_4
REMARK    4  A    between atoms: C_4  and  C_5
REMARK    5  A    between atoms: N_7  and  C_8
REMARK    6  A    between atoms: C_8  and  C_9
REMARK    7  A    between atoms: C_12  and  C_13
REMARK                            x       y       z     vdW  Elec       q    Type
REMARK                         _______ _______ _______ _____ _____    ______ ____
ROOT
ATOM      1  C   UNL     1       5.201   5.434  18.291  0.00  0.00    +0.000 C 
ATOM      2  C   UNL     1       4.099   5.825  19.294  0.00  0.00    +0.000 C 
ATOM      3  N   UNL     1       2.835   6.296  18.740  0.00  0.00    +0.000 NA
ATOM      4  C   UNL     1       1.997   5.324  18.029  0.00  0.00    +0.000 C 
ATOM      5  C   UNL     1       2.407   3.883  18.019  0.00  0.00    +0.000 A 
ATOM      6  N   UNL     1       1.567   2.871  18.128  0.00  0.00    +0.000 NA
ATOM      7  C   UNL     1       2.313   1.736  18.010  0.00  0.00    +0.000 A 
ATOM      8  C   UNL     1       3.637   2.049  17.834  0.00  0.00    +0.000 A 
ATOM      9  N   UNL     1       3.689   3.422  17.807  0.00  0.00    +0.000 N 
ATOM     10  C   UNL     1       4.872   4.182  17.465  0.00  0.00    +0.000 C 
ENDROOT
BRANCH   1  11
ATOM     11  C   UNL     1       6.549   5.284  19.033  0.00  0.00    +0.000 C 
BRANCH  11  12
ATOM     12  O   UNL     1       7.627   6.109  18.597  0.00  0.00    +0.000 OA
BRANCH  12  14
ATOM     13  C   UNL     1       7.901   8.415  17.728  0.00  0.00    +0.000 C 
ATOM     14  C   UNL     1       7.381   7.002  17.519  0.00  0.00    +0.000 C 
ENDBRANCH  12  14
ENDBRANCH  11  12
ENDBRANCH   1  11
BRANCH   3  15
ATOM     15  C   UNL     1       2.893   7.577  18.022  0.00  0.00    +0.000 C 
BRANCH  15  16
ATOM     16  C   UNL     1       1.946   8.583  18.609  0.00  0.00    +0.000 A 
ATOM     17  C   UNL     1       1.401   9.666  17.939  0.00  0.00    +0.000 A 
ATOM     18  S   UNL     1       0.392  10.564  18.983  0.00  0.00    +0.000 S 
ATOM     19  C   UNL     1       0.732   9.455  20.250  0.00  0.00    +0.000 A 
ATOM     20  C   UNL     1       0.093   9.626  21.583  0.00  0.00    +0.000 C 
ATOM     21  N   UNL     1       1.573   8.485  19.946  0.00  0.00    +0.000 NA
ENDBRANCH  15  16
ENDBRANCH   3  15
TORSDOF 5
ENDMDL
MODEL 4
REMARK VINA RESULT:      -6.5      3.079      5.838
REMARK  Name = 
REMARK  7 active torsions:
REMARK  status: ('A' for Active; 'I' for Inactive)
REMARK    1  A    between atoms: C_1  and  C_2
REMARK    2  A    between atoms: C_2  and  O_3
REMARK    3  A    between atoms: O_3  and  C_4
REMARK    4  A    between atoms: C_4  and  C_5
REMARK    5  A    between atoms: N_7  and  C_8
REMARK    6  A    between atoms: C_8  and  C_9
REMARK    7  A    between atoms: C_12  and  C_13
REMARK                            x       y       z     vdW  Elec       q    Type
REMARK                         _______ _______ _______ _____ _____    ______ ____
ROOT
ATOM      1  C   UNL     1       4.619   3.668  18.719  0.00  0.00    +0.000 C 
ATOM      2  C   UNL     1       5.632   4.712  19.227  0.00  0.00    +0.000 C 
ATOM      3  N   UNL     1       6.417   5.418  18.221  0.00  0.00    +0.000 NA
ATOM      4  C   UNL     1       5.714   6.363  17.347  0.00  0.00    +0.000 C 
ATOM      5  C   UNL     1       4.268   6.657  17.609  0.00  0.00    +0.000 A 
ATOM      6  N   UNL     1       3.721   7.853  17.501  0.00  0.00    +0.000 NA
ATOM      7  C   UNL     1       2.391   7.693  17.756  0.00  0.00    +0.000 A 
ATOM      8  C   UNL     1       2.111   6.379  18.035  0.00  0.00    +0.000 A 
ATOM      9  N   UNL     1       3.307   5.714  17.908  0.00  0.00    +0.000 N 
ATOM     10  C   UNL     1       3.441   4.275  17.944  0.00  0.00    +0.000 C 
ENDROOT
BRANCH   1  11
ATOM     11  C   UNL     1       4.130   2.800  19.903  0.00  0.00    +0.000 C 
BRANCH  11  12
ATOM     12  O   UNL     1       2.810   2.269  19.817  0.00  0.00    +0.000 OA
BRANCH  12  14
ATOM     13  C   UNL     1       1.963   4.042  21.328  0.00  0.00    +0.000 C 
ATOM     14  C   UNL     1       1.897   2.599  20.854  0.00  0.00    +0.000 C 
ENDBRANCH  12  14
ENDBRANCH  11  12
ENDBRANCH   1  11
BRANCH   3  15
ATOM     15  C   UNL     1       7.367   4.594  17.461  0.00  0.00    +0.000 C 
BRANCH  15  16
ATOM     16  C   UNL     1       6.978   4.496  16.014  0.00  0.00    +0.000 A 
ATOM     17  C   UNL     1       5.917   3.762  15.511  0.00  0.00    +0.000 A 
ATOM     18  S   UNL     1       5.844   3.910  13.812  0.00  0.00    +0.000 S 
ATOM     19  C   UNL     1       7.215   4.945  13.854  0.00  0.00    +0.000 A 
ATOM     20  C   UNL     1       7.741   5.538  12.594  0.00  0.00    +0.000 C 
ATOM     21  N   UNL     1       7.734   5.153  15.048  0.00  0.00    +0.000 NA
ENDBRANCH  15  16
ENDBRANCH   3  15
TORSDOF 5
ENDMDL
MODEL 5
REMARK VINA RESULT:      -6.5      2.204      4.228
REMARK  Name = 
REMARK  7 active torsions:
REMARK  status: ('A' for Active; 'I' for Inactive)
REMARK    1  A    between atoms: C_1  and  C_2
REMARK    2  A    between atoms: C_2  and  O_3
REMARK    3  A    between atoms: O_3  and  C_4
REMARK    4  A    between atoms: C_4  and  C_5
REMARK    5  A    between atoms: N_7  and  C_8
REMARK    6  A    between atoms: C_8  and  C_9
REMARK    7  A    between atoms: C_12  and  C_13
REMARK                            x       y       z     vdW  Elec       q    Type
REMARK                         _______ _______ _______ _____ _____    ______ ____
ROOT
ATOM      1  C   UNL     1       5.074   4.891  17.301  0.00  0.00    +0.000 C 
ATOM      2  C   UNL     1       4.721   5.568  18.639  0.00  0.00    +0.000 C 
ATOM      3  N   UNL     1       3.409   6.199  18.737  0.00  0.00    +0.000 NA
ATOM      4  C   UNL     1       2.231   5.326  18.742  0.00  0.00    +0.000 C 
ATOM      5  C   UNL     1       2.428   3.841  18.778  0.00  0.00    +0.000 A 
ATOM      6  N   UNL     1       1.680   3.010  19.480  0.00  0.00    +0.000 NA
ATOM      7  C   UNL     1       2.133   1.754  19.200  0.00  0.00    +0.000 A 
ATOM      8  C   UNL     1       3.183   1.809  18.318  0.00  0.00    +0.000 A 
ATOM      9  N   UNL     1       3.347   3.141  18.025  0.00  0.00    +0.000 N 
ATOM     10  C   UNL     1       4.234   3.642  16.998  0.00  0.00    +0.000 C 
ENDROOT
BRANCH   1  11
ATOM     11  C   UNL     1       6.588   4.577  17.261  0.00  0.00    +0.000 C 
BRANCH  11  12
ATOM     12  O   UNL     1       7.309   5.003  16.107  0.00  0.00    +0.000 OA
BRANCH  12  14
ATOM     13  C   UNL     1       6.409   3.954  14.049  0.00  0.00    +0.000 C 
ATOM     14  C   UNL     1       6.577   5.199  14.905  0.00  0.00    +0.000 C 
ENDBRANCH  12  14
ENDBRANCH  11  12
ENDBRANCH   1  11
BRANCH   3  15
ATOM     15  C   UNL     1       3.202   7.372  17.877  0.00  0.00    +0.000 C 
BRANCH  15  16
ATOM     16  C   UNL     1       2.225   8.337  18.485  0.00  0.00    +0.000 A 
ATOM     17  C   UNL     1       1.625   9.399  17.829  0.00  0.00    +0.000 A 
ATOM     18  S   UNL     1       0.600  10.252  18.894  0.00  0.00    +0.000 S 
ATOM     19  C   UNL     1       1.008   9.154  20.151  0.00  0.00    +0.000 A 
ATOM     20  C   UNL     1       0.387   9.295  21.496  0.00  0.00    +0.000 C 
ATOM     21  N   UNL     1       1.881   8.220  19.828  0.00  0.00    +0.000 NA
ENDBRANCH  15  16
ENDBRANCH   3  15
TORSDOF 5
ENDMDL
MODEL 6
REMARK VINA RESULT:      -6.4      3.276      6.909
REMARK  Name = 
REMARK  7 active torsions:
REMARK  status: ('A' for Active; 'I' for Inactive)
REMARK    1  A    between atoms: C_1  and  C_2
REMARK    2  A    between atoms: C_2  and  O_3
REMARK    3  A    between atoms: O_3  and  C_4
REMARK    4  A    between atoms: C_4  and  C_5
REMARK    5  A    between atoms: N_7  and  C_8
REMARK    6  A    between atoms: C_8  and  C_9
REMARK    7  A    between atoms: C_12  and  C_13
REMARK                            x       y       z     vdW  Elec       q    Type
REMARK                         _______ _______ _______ _____ _____    ______ ____
ROOT
ATOM      1  C   UNL     1       3.377   6.322  18.387  0.00  0.00    +0.000 C 
ATOM      2  C   UNL     1       3.485   5.074  17.490  0.00  0.00    +0.000 C 
ATOM      3  N   UNL     1       4.677   4.247  17.646  0.00  0.00    +0.000 NA
ATOM      4  C   UNL     1       4.828   3.498  18.898  0.00  0.00    +0.000 C 
ATOM      5  C   UNL     1       3.705   3.509  19.891  0.00  0.00    +0.000 A 
ATOM      6  N   UNL     1       3.326   2.458  20.594  0.00  0.00    +0.000 NA
ATOM      7  C   UNL     1       2.329   2.887  21.420  0.00  0.00    +0.000 A 
ATOM      8  C   UNL     1       2.082   4.222  21.220  0.00  0.00    +0.000 A 
ATOM      9  N   UNL     1       2.986   4.623  20.266  0.00  0.00    +0.000 N 
ATOM     10  C   UNL     1       3.197   6.001  19.878  0.00  0.00    +0.000 C 
ENDROOT
BRANCH   1  11
ATOM     11  C   UNL     1       2.246   7.239  17.866  0.00  0.00    +0.000 C 
BRANCH  11  12
ATOM     12  O   UNL     1       1.932   8.391  18.645  0.00  0.00    +0.000 OA
BRANCH  12  14
ATOM     13  C   UNL     1       1.114  10.731  18.683  0.00  0.00    +0.000 C 
ATOM     14  C   UNL     1       1.930   9.652  17.989  0.00  0.00    +0.000 C 
ENDBRANCH  12  14
ENDBRANCH  11  12
ENDBRANCH   1  11
BRANCH   3  15
ATOM     15  C   UNL     1       5.943   4.874  17.244  0.00  0.00    +0.000 C 
BRANCH  15  16
ATOM     16  C   UNL     1       6.231   4.650  15.787  0.00  0.00    +0.000 A 
ATOM     17  C   UNL     1       5.584   3.741  14.967  0.00  0.00    +0.000 A 
ATOM     18  S   UNL     1       6.236   3.796  13.389  0.00  0.00    +0.000 S 
ATOM     19  C   UNL     1       7.322   5.028  13.892  0.00  0.00    +0.000 A 
ATOM     20  C   UNL     1       8.267   5.635  12.914  0.00  0.00    +0.000 C 
ATOM     21  N   UNL     1       7.247   5.369  15.163  0.00  0.00    +0.000 NA
ENDBRANCH  15  16
ENDBRANCH   3  15
TORSDOF 5
ENDMDL
MODEL 7
REMARK VINA RESULT:      -6.4      3.145      6.864
REMARK  Name = 
REMARK  7 active torsions:
REMARK  status: ('A' for Active; 'I' for Inactive)
REMARK    1  A    between atoms: C_1  and  C_2
REMARK    2  A    between atoms: C_2  and  O_3
REMARK    3  A    between atoms: O_3  and  C_4
REMARK    4  A    between atoms: C_4  and  C_5
REMARK    5  A    between atoms: N_7  and  C_8
REMARK    6  A    between atoms: C_8  and  C_9
REMARK    7  A    between atoms: C_12  and  C_13
REMARK                            x       y       z     vdW  Elec       q    Type
REMARK                         _______ _______ _______ _____ _____    ______ ____
ROOT
ATOM      1  C   UNL     1       3.787   6.183  18.352  0.00  0.00    +0.000 C 
ATOM      2  C   UNL     1       3.623   5.078  17.291  0.00  0.00    +0.000 C 
ATOM      3  N   UNL     1       4.392   3.854  17.484  0.00  0.00    +0.000 NA
ATOM      4  C   UNL     1       4.021   2.985  18.606  0.00  0.00    +0.000 C 
ATOM      5  C   UNL     1       2.803   3.320  19.412  0.00  0.00    +0.000 A 
ATOM      6  N   UNL     1       1.949   2.426  19.872  0.00  0.00    +0.000 NA
ATOM      7  C   UNL     1       1.025   3.116  20.602  0.00  0.00    +0.000 A 
ATOM      8  C   UNL     1       1.308   4.458  20.586  0.00  0.00    +0.000 A 
ATOM      9  N   UNL     1       2.464   4.581  19.853  0.00  0.00    +0.000 N 
ATOM     10  C   UNL     1       3.217   5.810  19.728  0.00  0.00    +0.000 C 
ENDROOT
BRANCH   1  11
ATOM     11  C   UNL     1       3.176   7.503  17.826  0.00  0.00    +0.000 C 
BRANCH  11  12
ATOM     12  O   UNL     1       2.215   8.150  18.656  0.00  0.00    +0.000 OA
BRANCH  12  14
ATOM     13  C   UNL     1       0.939  10.237  19.061  0.00  0.00    +0.000 C 
ATOM     14  C   UNL     1       1.435   9.188  18.078  0.00  0.00    +0.000 C 
ENDBRANCH  12  14
ENDBRANCH  11  12
ENDBRANCH   1  11
BRANCH   3  15
ATOM     15  C   UNL     1       5.850   3.996  17.378  0.00  0.00    +0.000 C 
BRANCH  15  16
ATOM     16  C   UNL     1       6.280   4.242  15.960  0.00  0.00    +0.000 A 
ATOM     17  C   UNL     1       7.224   5.170  15.552  0.00  0.00    +0.000 A 
ATOM     18  S   UNL     1       7.395   5.136  13.854  0.00  0.00    +0.000 S 
ATOM     19  C   UNL     1       6.218   3.887  13.770  0.00  0.00    +0.000 A 
ATOM     20  C   UNL     1       5.856   3.289  12.456  0.00  0.00    +0.000 C 
ATOM     21  N   UNL     1       5.689   3.526  14.923  0.00  0.00    +0.000 NA
ENDBRANCH  15  16
ENDBRANCH   3  15
TORSDOF 5
ENDMDL
MODEL 8
REMARK VINA RESULT:      -6.3      2.417      4.102
REMARK  Name = 
REMARK  7 active torsions:
REMARK  status: ('A' for Active; 'I' for Inactive)
REMARK    1  A    between atoms: C_1  and  C_2
REMARK    2  A    between atoms: C_2  and  O_3
REMARK    3  A    between atoms: O_3  and  C_4
REMARK    4  A    between atoms: C_4  and  C_5
REMARK    5  A    between atoms: N_7  and  C_8
REMARK    6  A    between atoms: C_8  and  C_9
REMARK    7  A    between atoms: C_12  and  C_13
REMARK                            x       y       z     vdW  Elec       q    Type
REMARK                         _______ _______ _______ _____ _____    ______ ____
ROOT
ATOM      1  C   UNL     1       4.675   5.643  17.062  0.00  0.00    +0.000 C 
ATOM      2  C   UNL     1       4.325   6.106  18.489  0.00  0.00    +0.000 C 
ATOM      3  N   UNL     1       2.921   6.388  18.769  0.00  0.00    +0.000 NA
ATOM      4  C   UNL     1       1.989   5.255  18.788  0.00  0.00    +0.000 C 
ATOM      5  C   UNL     1       2.532   3.865  18.654  0.00  0.00    +0.000 A 
ATOM      6  N   UNL     1       2.084   2.824  19.330  0.00  0.00    +0.000 NA
ATOM      7  C   UNL     1       2.785   1.743  18.883  0.00  0.00    +0.000 A 
ATOM      8  C   UNL     1       3.688   2.122  17.921  0.00  0.00    +0.000 A 
ATOM      9  N   UNL     1       3.500   3.473  17.754  0.00  0.00    +0.000 N 
ATOM     10  C   UNL     1       4.124   4.254  16.709  0.00  0.00    +0.000 C 
ENDROOT
BRANCH   1  11
ATOM     11  C   UNL     1       6.207   5.713  16.855  0.00  0.00    +0.000 C 
BRANCH  11  12
ATOM     12  O   UNL     1       6.784   7.008  16.708  0.00  0.00    +0.000 OA
BRANCH  12  14
ATOM     13  C   UNL     1       7.963   6.434  18.812  0.00  0.00    +0.000 C 
ATOM     14  C   UNL     1       7.742   7.418  17.675  0.00  0.00    +0.000 C 
ENDBRANCH  12  14
ENDBRANCH  11  12
ENDBRANCH   1  11
BRANCH   3  15
ATOM     15  C   UNL     1       2.349   7.538  18.055  0.00  0.00    +0.000 C 
BRANCH  15  16
ATOM     16  C   UNL     1       1.720   8.518  19.003  0.00  0.00    +0.000 A 
ATOM     17  C   UNL     1       1.232   9.769  18.664  0.00  0.00    +0.000 A 
ATOM     18  S   UNL     1       0.620  10.563  20.046  0.00  0.00    +0.000 S 
ATOM     19  C   UNL     1       1.030   9.195  21.001  0.00  0.00    +0.000 A 
ATOM     20  C   UNL     1       0.718   9.179  22.456  0.00  0.00    +0.000 C 
ATOM     21  N   UNL     1       1.622   8.208  20.356  0.00  0.00    +0.000 NA
ENDBRANCH  15  16
ENDBRANCH   3  15
TORSDOF 5
ENDMDL
MODEL 9
REMARK VINA RESULT:      -6.3      3.583      5.438
REMARK  Name = 
REMARK  7 active torsions:
REMARK  status: ('A' for Active; 'I' for Inactive)
REMARK    1  A    between atoms: C_1  and  C_2
REMARK    2  A    between atoms: C_2  and  O_3
REMARK    3  A    between atoms: O_3  and  C_4
REMARK    4  A    between atoms: C_4  and  C_5
REMARK    5  A    between atoms: N_7  and  C_8
REMARK    6  A    between atoms: C_8  and  C_9
REMARK    7  A    between atoms: C_12  and  C_13
REMARK                            x       y       z     vdW  Elec       q    Type
REMARK                         _______ _______ _______ _____ _____    ______ ____
ROOT
ATOM      1  C   UNL     1       5.090   4.768  15.920  0.00  0.00    +0.000 C 
ATOM      2  C   UNL     1       4.731   6.147  16.506  0.00  0.00    +0.000 C 
ATOM      3  N   UNL     1       3.988   6.161  17.761  0.00  0.00    +0.000 NA
ATOM      4  C   UNL     1       4.682   5.705  18.970  0.00  0.00    +0.000 C 
ATOM      5  C   UNL     1       6.142   5.376  18.888  0.00  0.00    +0.000 A 
ATOM      6  N   UNL     1       7.023   5.671  19.826  0.00  0.00    +0.000 NA
ATOM      7  C   UNL     1       8.215   5.153  19.411  0.00  0.00    +0.000 A 
ATOM      8  C   UNL     1       8.071   4.536  18.194  0.00  0.00    +0.000 A 
ATOM      9  N   UNL     1       6.738   4.650  17.879  0.00  0.00    +0.000 N 
ATOM     10  C   UNL     1       6.111   3.985  16.759  0.00  0.00    +0.000 C 
ENDROOT
BRANCH   1  11
ATOM     11  C   UNL     1       5.568   4.934  14.458  0.00  0.00    +0.000 C 
BRANCH  11  12
ATOM     12  O   UNL     1       6.391   3.900  13.922  0.00  0.00    +0.000 OA
BRANCH  12  14
ATOM     13  C   UNL     1       4.992   3.279  11.972  0.00  0.00    +0.000 C 
ATOM     14  C   UNL     1       6.352   3.686  12.518  0.00  0.00    +0.000 C 
ENDBRANCH  12  14
ENDBRANCH  11  12
ENDBRANCH   1  11
BRANCH   3  15
ATOM     15  C   UNL     1       2.621   5.626  17.696  0.00  0.00    +0.000 C 
BRANCH  15  16
ATOM     16  C   UNL     1       2.498   4.332  18.447  0.00  0.00    +0.000 A 
ATOM     17  C   UNL     1       2.792   3.076  17.943  0.00  0.00    +0.000 A 
ATOM     18  S   UNL     1       2.493   1.878  19.124  0.00  0.00    +0.000 S 
ATOM     19  C   UNL     1       2.006   3.101  20.227  0.00  0.00    +0.000 A 
ATOM     20  C   UNL     1       1.601   2.738  21.612  0.00  0.00    +0.000 C 
ATOM     21  N   UNL     1       2.023   4.332  19.755  0.00  0.00    +0.000 NA
ENDBRANCH  15  16
ENDBRANCH   3  15
TORSDOF 5
ENDMDL
