MODEL 1
REMARK VINA RESULT:      -8.2      0.000      0.000
REMARK  Name = 
REMARK  5 active torsions:
REMARK  status: ('A' for Active; 'I' for Inactive)
REMARK    1  A    between atoms: C_4  and  O_5
REMARK    2  A    between atoms: O_5  and  C_6
REMARK    3  A    between atoms: C_10  and  C_11
REMARK    4  A    between atoms: C_11  and  N_12
REMARK    5  A    between atoms: C_15  and  N_16
REMARK                            x       y       z     vdW  Elec       q    Type
REMARK                         _______ _______ _______ _____ _____    ______ ____
ROOT
ATOM      1  C   UNL     1       1.729   6.253  20.346  0.00  0.00    +0.000 C 
ENDROOT
BRANCH   1   6
ATOM      2  C   UNL     1       3.937   4.761  17.592  0.00  0.00    +0.000 A 
ATOM      3  C   UNL     1       3.198   3.633  17.218  0.00  0.00    +0.000 A 
ATOM      4  C   UNL     1       2.009   3.341  17.880  0.00  0.00    +0.000 A 
ATOM      5  C   UNL     1       1.559   4.162  18.918  0.00  0.00    +0.000 A 
ATOM      6  C   UNL     1       2.277   5.307  19.294  0.00  0.00    +0.000 A 
ATOM      7  C   UNL     1       3.463   5.611  18.600  0.00  0.00    +0.000 A 
BRANCH   2   8
ATOM      8  O   UNL     1       5.066   5.032  16.850  0.00  0.00    +0.000 OA
BRANCH   8  12
ATOM      9  C   UNL     1       8.240   7.007  18.701  0.00  0.00    +0.000 A 
ATOM     10  C   UNL     1       7.660   7.588  17.575  0.00  0.00    +0.000 A 
ATOM     11  C   UNL     1       6.589   6.961  16.939  0.00  0.00    +0.000 A 
ATOM     12  C   UNL     1       6.110   5.734  17.402  0.00  0.00    +0.000 A 
ATOM     13  C   UNL     1       6.675   5.171  18.551  0.00  0.00    +0.000 A 
ATOM     14  C   UNL     1       7.739   5.805  19.199  0.00  0.00    +0.000 A 
ENDBRANCH   8  12
ENDBRANCH   2   8
ENDBRANCH   1   6
BRANCH   1  15
ATOM     15  N   UNL     1       1.953   7.698  20.095  0.00  0.00    +0.000 NA
ATOM     16  C   UNL     1       1.645   8.046  18.699  0.00  0.00    +0.000 C 
ATOM     17  C   UNL     1       1.682   9.555  18.419  0.00  0.00    +0.000 C 
ATOM     18  C   UNL     1       0.793  10.413  19.362  0.00  0.00    +0.000 C 
ATOM     19  C   UNL     1       1.190   9.983  20.791  0.00  0.00    +0.000 C 
ATOM     20  C   UNL     1       1.110   8.475  21.022  0.00  0.00    +0.000 C 
BRANCH  18  21
ATOM     21  N   UNL     1      -0.680  10.416  19.032  0.00  0.00    +0.000 NA
ATOM     22  C   UNL     1      -1.248  11.780  18.977  0.00  0.00    +0.000 C 
ATOM     23  C   UNL     1      -2.771  11.844  19.201  0.00  0.00    +0.000 C 
ATOM     24  C   UNL     1      -3.664  11.502  18.015  0.00  0.00    +0.000 C 
ATOM     25  C   UNL     1      -3.396  10.143  17.394  0.00  0.00    +0.000 C 
ATOM     26  C   UNL     1      -2.008  10.075  16.782  0.00  0.00    +0.000 C 
ATOM     27  C   UNL     1      -0.900   9.673  17.763  0.00  0.00    +0.000 C 
ENDBRANCH  18  21
ENDBRANCH   1  15
TORSDOF 5
ENDMDL
MODEL 2
REMARK VINA RESULT:      -8.2      0.698      1.156
REMARK  Name = 
REMARK  5 active torsions:
REMARK  status: ('A' for Active; 'I' for Inactive)
REMARK    1  A    between atoms: C_4  and  O_5
REMARK    2  A    between atoms: O_5  and  C_6
REMARK    3  A    between atoms: C_10  and  C_11
REMARK    4  A    between atoms: C_11  and  N_12
REMARK    5  A    between atoms: C_15  and  N_16
REMARK                            x       y       z     vdW  Elec       q    Type
REMARK                         _______ _______ _______ _____ _____    ______ ____
ROOT
ATOM      1  C   UNL     1       1.678   6.560  20.787  0.00  0.00    +0.000 C 
ENDROOT
BRANCH   1   6
ATOM      2  C   UNL     1       4.085   4.207  18.956  0.00  0.00    +0.000 A 
ATOM      3  C   UNL     1       3.200   3.288  18.383  0.00  0.00    +0.000 A 
ATOM      4  C   UNL     1       1.833   3.411  18.619  0.00  0.00    +0.000 A 
ATOM      5  C   UNL     1       1.349   4.441  19.430  0.00  0.00    +0.000 A 
ATOM      6  C   UNL     1       2.220   5.383  19.998  0.00  0.00    +0.000 A 
ATOM      7  C   UNL     1       3.596   5.267  19.730  0.00  0.00    +0.000 A 
BRANCH   2   8
ATOM      8  O   UNL     1       5.416   4.070  18.625  0.00  0.00    +0.000 OA
BRANCH   8  12
ATOM      9  C   UNL     1       7.622   7.461  17.607  0.00  0.00    +0.000 A 
ATOM     10  C   UNL     1       8.017   6.718  18.718  0.00  0.00    +0.000 A 
ATOM     11  C   UNL     1       7.310   5.571  19.078  0.00  0.00    +0.000 A 
ATOM     12  C   UNL     1       6.184   5.176  18.355  0.00  0.00    +0.000 A 
ATOM     13  C   UNL     1       5.809   5.908  17.223  0.00  0.00    +0.000 A 
ATOM     14  C   UNL     1       6.526   7.049  16.851  0.00  0.00    +0.000 A 
ENDBRANCH   8  12
ENDBRANCH   2   8
ENDBRANCH   1   6
BRANCH   1  15
ATOM     15  N   UNL     1       1.915   7.899  20.193  0.00  0.00    +0.000 NA
ATOM     16  C   UNL     1       1.489   7.936  18.786  0.00  0.00    +0.000 C 
ATOM     17  C   UNL     1       1.538   9.340  18.165  0.00  0.00    +0.000 C 
ATOM     18  C   UNL     1       0.762  10.428  18.957  0.00  0.00    +0.000 C 
ATOM     19  C   UNL     1       1.278  10.315  20.408  0.00  0.00    +0.000 C 
ATOM     20  C   UNL     1       1.181   8.903  20.985  0.00  0.00    +0.000 C 
BRANCH  18  21
ATOM     21  N   UNL     1      -0.735  10.425  18.760  0.00  0.00    +0.000 NA
ATOM     22  C   UNL     1      -1.325  11.777  18.856  0.00  0.00    +0.000 C 
ATOM     23  C   UNL     1      -2.822  11.792  19.218  0.00  0.00    +0.000 C 
ATOM     24  C   UNL     1      -3.814  11.518  18.094  0.00  0.00    +0.000 C 
ATOM     25  C   UNL     1      -3.583  10.213  17.353  0.00  0.00    +0.000 C 
ATOM     26  C   UNL     1      -2.254  10.219  16.617  0.00  0.00    +0.000 C 
ATOM     27  C   UNL     1      -1.057   9.771  17.464  0.00  0.00    +0.000 C 
ENDBRANCH  18  21
ENDBRANCH   1  15
TORSDOF 5
ENDMDL
MODEL 3
REMARK VINA RESULT:      -8.0      3.049      5.509
REMARK  Name = 
REMARK  5 active torsions:
REMARK  status: ('A' for Active; 'I' for Inactive)
REMARK    1  A    between atoms: C_4  and  O_5
REMARK    2  A    between atoms: O_5  and  C_6
REMARK    3  A    between atoms: C_10  and  C_11
REMARK    4  A    between atoms: C_11  and  N_12
REMARK    5  A    between atoms: C_15  and  N_16
REMARK                            x       y       z     vdW  Elec       q    Type
REMARK                         _______ _______ _______ _____ _____    ______ ____
ROOT
ATOM      1  C   UNL     1       0.049   9.753  21.178  0.00  0.00    +0.000 C 
ENDROOT
BRANCH   1   6
ATOM      2  C   UNL     1       2.354   7.503  19.103  0.00  0.00    +0.000 A 
ATOM      3  C   UNL     1       2.595   8.304  17.981  0.00  0.00    +0.000 A 
ATOM      4  C   UNL     1       1.984   9.551  17.883  0.00  0.00    +0.000 A 
ATOM      5  C   UNL     1       1.129   9.998  18.895  0.00  0.00    +0.000 A 
ATOM      6  C   UNL     1       0.891   9.216  20.035  0.00  0.00    +0.000 A 
ATOM      7  C   UNL     1       1.535   7.970  20.139  0.00  0.00    +0.000 A 
BRANCH   2   8
ATOM      8  O   UNL     1       3.045   6.312  19.170  0.00  0.00    +0.000 OA
BRANCH   8  12
ATOM      9  C   UNL     1       1.112   2.752  20.165  0.00  0.00    +0.000 A 
ATOM     10  C   UNL     1       1.097   3.169  18.836  0.00  0.00    +0.000 A 
ATOM     11  C   UNL     1       1.745   4.347  18.466  0.00  0.00    +0.000 A 
ATOM     12  C   UNL     1       2.383   5.136  19.424  0.00  0.00    +0.000 A 
ATOM     13  C   UNL     1       2.420   4.698  20.752  0.00  0.00    +0.000 A 
ATOM     14  C   UNL     1       1.785   3.509  21.123  0.00  0.00    +0.000 A 
ENDBRANCH   8  12
ENDBRANCH   2   8
ENDBRANCH   1   6
BRANCH   1  15
ATOM     15  N   UNL     1      -0.311  11.190  21.095  0.00  0.00    +0.000 NA
ATOM     16  C   UNL     1      -1.462  11.396  20.202  0.00  0.00    +0.000 C 
ATOM     17  C   UNL     1      -1.998  12.835  20.213  0.00  0.00    +0.000 C 
ATOM     18  C   UNL     1      -2.346  13.389  21.623  0.00  0.00    +0.000 C 
ATOM     19  C   UNL     1      -1.086  13.133  22.477  0.00  0.00    +0.000 C 
ATOM     20  C   UNL     1      -0.611  11.681  22.452  0.00  0.00    +0.000 C 
BRANCH  18  21
ATOM     21  N   UNL     1      -3.665  12.923  22.191  0.00  0.00    +0.000 NA
ATOM     22  C   UNL     1      -3.902  13.422  23.562  0.00  0.00    +0.000 C 
ATOM     23  C   UNL     1      -4.895  12.578  24.382  0.00  0.00    +0.000 C 
ATOM     24  C   UNL     1      -6.381  12.801  24.123  0.00  0.00    +0.000 C 
ATOM     25  C   UNL     1      -6.799  12.635  22.673  0.00  0.00    +0.000 C 
ATOM     26  C   UNL     1      -6.154  13.684  21.784  0.00  0.00    +0.000 C 
ATOM     27  C   UNL     1      -4.761  13.308  21.264  0.00  0.00    +0.000 C 
ENDBRANCH  18  21
ENDBRANCH   1  15
TORSDOF 5
ENDMDL
MODEL 4
REMARK VINA RESULT:      -8.0      2.494      8.637
REMARK  Name = 
REMARK  5 active torsions:
REMARK  status: ('A' for Active; 'I' for Inactive)
REMARK    1  A    between atoms: C_4  and  O_5
REMARK    2  A    between atoms: O_5  and  C_6
REMARK    3  A    between atoms: C_10  and  C_11
REMARK    4  A    between atoms: C_11  and  N_12
REMARK    5  A    between atoms: C_15  and  N_16
REMARK                            x       y       z     vdW  Elec       q    Type
REMARK                         _______ _______ _______ _____ _____    ______ ____
ROOT
ATOM      1  C   UNL     1       1.446   8.690  21.516  0.00  0.00    +0.000 C 
ENDROOT
BRANCH   1   6
ATOM      2  C   UNL     1      -1.208  11.352  20.774  0.00  0.00    +0.000 A 
ATOM      3  C   UNL     1      -1.690  11.635  22.057  0.00  0.00    +0.000 A 
ATOM      4  C   UNL     1      -1.182  10.940  23.150  0.00  0.00    +0.000 A 
ATOM      5  C   UNL     1      -0.202   9.960  22.969  0.00  0.00    +0.000 A 
ATOM      6  C   UNL     1       0.307   9.677  21.693  0.00  0.00    +0.000 A 
ATOM      7  C   UNL     1      -0.192  10.404  20.597  0.00  0.00    +0.000 A 
BRANCH   2   8
ATOM      8  O   UNL     1      -1.702  12.125  19.745  0.00  0.00    +0.000 OA
BRANCH   8  12
ATOM      9  C   UNL     1      -3.523  10.273  16.481  0.00  0.00    +0.000 A 
ATOM     10  C   UNL     1      -4.299  11.087  17.303  0.00  0.00    +0.000 A 
ATOM     11  C   UNL     1      -3.720  11.732  18.396  0.00  0.00    +0.000 A 
ATOM     12  C   UNL     1      -2.370  11.543  18.696  0.00  0.00    +0.000 A 
ATOM     13  C   UNL     1      -1.588  10.749  17.850  0.00  0.00    +0.000 A 
ATOM     14  C   UNL     1      -2.163  10.114  16.745  0.00  0.00    +0.000 A 
ENDBRANCH   8  12
ENDBRANCH   2   8
ENDBRANCH   1   6
BRANCH   1  15
ATOM     15  N   UNL     1       1.355   7.806  20.328  0.00  0.00    +0.000 NA
ATOM     16  C   UNL     1       1.929   8.455  19.140  0.00  0.00    +0.000 C 
ATOM     17  C   UNL     1       2.031   7.527  17.921  0.00  0.00    +0.000 C 
ATOM     18  C   UNL     1       2.783   6.192  18.180  0.00  0.00    +0.000 C 
ATOM     19  C   UNL     1       2.111   5.589  19.432  0.00  0.00    +0.000 C 
ATOM     20  C   UNL     1       2.060   6.545  20.623  0.00  0.00    +0.000 C 
BRANCH  18  21
ATOM     21  N   UNL     1       4.290   6.293  18.194  0.00  0.00    +0.000 NA
ATOM     22  C   UNL     1       4.935   5.102  18.785  0.00  0.00    +0.000 C 
ATOM     23  C   UNL     1       6.353   5.353  19.330  0.00  0.00    +0.000 C 
ATOM     24  C   UNL     1       7.494   5.379  18.320  0.00  0.00    +0.000 C 
ATOM     25  C   UNL     1       7.308   6.369  17.184  0.00  0.00    +0.000 C 
ATOM     26  C   UNL     1       6.116   6.004  16.317  0.00  0.00    +0.000 C 
ATOM     27  C   UNL     1       4.775   6.558  16.814  0.00  0.00    +0.000 C 
ENDBRANCH  18  21
ENDBRANCH   1  15
TORSDOF 5
ENDMDL
MODEL 5
REMARK VINA RESULT:      -7.9      1.513      1.867
REMARK  Name = 
REMARK  5 active torsions:
REMARK  status: ('A' for Active; 'I' for Inactive)
REMARK    1  A    between atoms: C_4  and  O_5
REMARK    2  A    between atoms: O_5  and  C_6
REMARK    3  A    between atoms: C_10  and  C_11
REMARK    4  A    between atoms: C_11  and  N_12
REMARK    5  A    between atoms: C_15  and  N_16
REMARK                            x       y       z     vdW  Elec       q    Type
REMARK                         _______ _______ _______ _____ _____    ______ ____
ROOT
ATOM      1  C   UNL     1       1.375   6.841  21.146  0.00  0.00    +0.000 C 
ENDROOT
BRANCH   1   6
ATOM      2  C   UNL     1       3.718   4.476  19.248  0.00  0.00    +0.000 A 
ATOM      3  C   UNL     1       2.867   3.401  18.968  0.00  0.00    +0.000 A 
ATOM      4  C   UNL     1       1.552   3.429  19.423  0.00  0.00    +0.000 A 
ATOM      5  C   UNL     1       1.086   4.519  20.163  0.00  0.00    +0.000 A 
ATOM      6  C   UNL     1       1.919   5.614  20.437  0.00  0.00    +0.000 A 
ATOM      7  C   UNL     1       3.237   5.590  19.948  0.00  0.00    +0.000 A 
BRANCH   2   8
ATOM      8  O   UNL     1       4.984   4.417  18.708  0.00  0.00    +0.000 OA
BRANCH   8  12
ATOM      9  C   UNL     1       5.717   5.232  14.683  0.00  0.00    +0.000 A 
ATOM     10  C   UNL     1       5.288   6.272  15.506  0.00  0.00    +0.000 A 
ATOM     11  C   UNL     1       5.047   6.037  16.859  0.00  0.00    +0.000 A 
ATOM     12  C   UNL     1       5.198   4.757  17.395  0.00  0.00    +0.000 A 
ATOM     13  C   UNL     1       5.658   3.724  16.571  0.00  0.00    +0.000 A 
ATOM     14  C   UNL     1       5.915   3.960  15.218  0.00  0.00    +0.000 A 
ENDBRANCH   8  12
ENDBRANCH   2   8
ENDBRANCH   1   6
BRANCH   1  15
ATOM     15  N   UNL     1       1.640   8.141  20.480  0.00  0.00    +0.000 NA
ATOM     16  C   UNL     1       1.296   8.083  19.051  0.00  0.00    +0.000 C 
ATOM     17  C   UNL     1       1.375   9.444  18.345  0.00  0.00    +0.000 C 
ATOM     18  C   UNL     1       0.549  10.576  19.019  0.00  0.00    +0.000 C 
ATOM     19  C   UNL     1       0.981  10.560  20.501  0.00  0.00    +0.000 C 
ATOM     20  C   UNL     1       0.857   9.188  21.162  0.00  0.00    +0.000 C 
BRANCH  18  21
ATOM     21  N   UNL     1      -0.934  10.547  18.737  0.00  0.00    +0.000 NA
ATOM     22  C   UNL     1      -1.545  11.893  18.765  0.00  0.00    +0.000 C 
ATOM     23  C   UNL     1      -3.060  11.897  19.040  0.00  0.00    +0.000 C 
ATOM     24  C   UNL     1      -3.982  11.583  17.868  0.00  0.00    +0.000 C 
ATOM     25  C   UNL     1      -3.694  10.263  17.176  0.00  0.00    +0.000 C 
ATOM     26  C   UNL     1      -2.325  10.268  16.517  0.00  0.00    +0.000 C 
ATOM     27  C   UNL     1      -1.173   9.857  17.442  0.00  0.00    +0.000 C 
ENDBRANCH  18  21
ENDBRANCH   1  15
TORSDOF 5
ENDMDL
MODEL 6
REMARK VINA RESULT:      -7.9      5.464      8.969
REMARK  Name = 
REMARK  5 active torsions:
REMARK  status: ('A' for Active; 'I' for Inactive)
REMARK    1  A    between atoms: C_4  and  O_5
REMARK    2  A    between atoms: O_5  and  C_6
REMARK    3  A    between atoms: C_10  and  C_11
REMARK    4  A    between atoms: C_11  and  N_12
REMARK    5  A    between atoms: C_15  and  N_16
REMARK                            x       y       z     vdW  Elec       q    Type
REMARK                         _______ _______ _______ _____ _____    ______ ____
ROOT
ATOM      1  C   UNL     1       8.238   9.686  17.898  0.00  0.00    +0.000 C 
ENDROOT
BRANCH   1   6
ATOM      2  C   UNL     1       6.607   6.284  17.226  0.00  0.00    +0.000 A 
ATOM      3  C   UNL     1       7.167   5.498  18.239  0.00  0.00    +0.000 A 
ATOM      4  C   UNL     1       8.094   6.060  19.112  0.00  0.00    +0.000 A 
ATOM      5  C   UNL     1       8.471   7.399  18.973  0.00  0.00    +0.000 A 
ATOM      6  C   UNL     1       7.906   8.207  17.975  0.00  0.00    +0.000 A 
ATOM      7  C   UNL     1       6.949   7.638  17.116  0.00  0.00    +0.000 A 
BRANCH   2   8
ATOM      8  O   UNL     1       5.644   5.685  16.443  0.00  0.00    +0.000 OA
BRANCH   8  12
ATOM      9  C   UNL     1       2.039   4.281  18.002  0.00  0.00    +0.000 A 
ATOM     10  C   UNL     1       2.364   5.623  18.182  0.00  0.00    +0.000 A 
ATOM     11  C   UNL     1       3.556   6.129  17.662  0.00  0.00    +0.000 A 
ATOM     12  C   UNL     1       4.447   5.293  16.989  0.00  0.00    +0.000 A 
ATOM     13  C   UNL     1       4.102   3.953  16.785  0.00  0.00    +0.000 A 
ATOM     14  C   UNL     1       2.901   3.447  17.291  0.00  0.00    +0.000 A 
ENDBRANCH   8  12
ENDBRANCH   2   8
ENDBRANCH   1   6
BRANCH   1  15
ATOM     15  N   UNL     1       9.411  10.126  18.692  0.00  0.00    +0.000 NA
ATOM     16  C   UNL     1      10.296  10.989  17.895  0.00  0.00    +0.000 C 
ATOM     17  C   UNL     1      11.432  11.625  18.711  0.00  0.00    +0.000 C 
ATOM     18  C   UNL     1      10.969  12.404  19.973  0.00  0.00    +0.000 C 
ATOM     19  C   UNL     1      10.057  11.421  20.740  0.00  0.00    +0.000 C 
ATOM     20  C   UNL     1       8.929  10.839  19.890  0.00  0.00    +0.000 C 
BRANCH  18  21
ATOM     21  N   UNL     1      10.420  13.786  19.713  0.00  0.00    +0.000 NA
ATOM     22  C   UNL     1      10.111  14.519  20.958  0.00  0.00    +0.000 C 
ATOM     23  C   UNL     1       9.074  15.645  20.791  0.00  0.00    +0.000 C 
ATOM     24  C   UNL     1       9.568  16.969  20.221  0.00  0.00    +0.000 C 
ATOM     25  C   UNL     1      10.272  16.855  18.880  0.00  0.00    +0.000 C 
ATOM     26  C   UNL     1      11.555  16.052  18.992  0.00  0.00    +0.000 C 
ATOM     27  C   UNL     1      11.371  14.535  18.850  0.00  0.00    +0.000 C 
ENDBRANCH  18  21
ENDBRANCH   1  15
TORSDOF 5
ENDMDL
MODEL 7
REMARK VINA RESULT:      -7.8      2.214      4.483
REMARK  Name = 
REMARK  5 active torsions:
REMARK  status: ('A' for Active; 'I' for Inactive)
REMARK    1  A    between atoms: C_4  and  O_5
REMARK    2  A    between atoms: O_5  and  C_6
REMARK    3  A    between atoms: C_10  and  C_11
REMARK    4  A    between atoms: C_11  and  N_12
REMARK    5  A    between atoms: C_15  and  N_16
REMARK                            x       y       z     vdW  Elec       q    Type
REMARK                         _______ _______ _______ _____ _____    ______ ____
ROOT
ATOM      1  C   UNL     1       3.457   8.099  18.032  0.00  0.00    +0.000 C 
ENDROOT
BRANCH   1   6
ATOM      2  C   UNL     1       3.635   4.335  17.337  0.00  0.00    +0.000 A 
ATOM      3  C   UNL     1       4.669   4.270  16.396  0.00  0.00    +0.000 A 
ATOM      4  C   UNL     1       5.279   5.444  15.964  0.00  0.00    +0.000 A 
ATOM      5  C   UNL     1       4.857   6.681  16.460  0.00  0.00    +0.000 A 
ATOM      6  C   UNL     1       3.836   6.764  17.418  0.00  0.00    +0.000 A 
ATOM      7  C   UNL     1       3.244   5.571  17.870  0.00  0.00    +0.000 A 
BRANCH   2   8
ATOM      8  O   UNL     1       3.123   3.132  17.774  0.00  0.00    +0.000 OA
BRANCH   8  12
ATOM      9  C   UNL     1       1.539   2.769  21.616  0.00  0.00    +0.000 A 
ATOM     10  C   UNL     1       0.673   3.057  20.563  0.00  0.00    +0.000 A 
ATOM     11  C   UNL     1       1.167   3.173  19.264  0.00  0.00    +0.000 A 
ATOM     12  C   UNL     1       2.532   3.035  19.010  0.00  0.00    +0.000 A 
ATOM     13  C   UNL     1       3.393   2.716  20.066  0.00  0.00    +0.000 A 
ATOM     14  C   UNL     1       2.898   2.584  21.366  0.00  0.00    +0.000 A 
ENDBRANCH   8  12
ENDBRANCH   2   8
ENDBRANCH   1   6
BRANCH   1  15
ATOM     15  N   UNL     1       2.038   8.242  18.441  0.00  0.00    +0.000 NA
ATOM     16  C   UNL     1       1.926   8.463  19.891  0.00  0.00    +0.000 C 
ATOM     17  C   UNL     1       0.500   8.799  20.352  0.00  0.00    +0.000 C 
ATOM     18  C   UNL     1      -0.161   9.991  19.606  0.00  0.00    +0.000 C 
ATOM     19  C   UNL     1       0.002   9.666  18.105  0.00  0.00    +0.000 C 
ATOM     20  C   UNL     1       1.443   9.367  17.696  0.00  0.00    +0.000 C 
BRANCH  18  21
ATOM     21  N   UNL     1       0.279  11.361  20.062  0.00  0.00    +0.000 NA
ATOM     22  C   UNL     1      -0.265  12.445  19.216  0.00  0.00    +0.000 C 
ATOM     23  C   UNL     1       0.547  13.752  19.260  0.00  0.00    +0.000 C 
ATOM     24  C   UNL     1       0.324  14.672  20.454  0.00  0.00    +0.000 C 
ATOM     25  C   UNL     1       0.533  14.013  21.806  0.00  0.00    +0.000 C 
ATOM     26  C   UNL     1      -0.484  12.912  22.051  0.00  0.00    +0.000 C 
ATOM     27  C   UNL     1      -0.084  11.541  21.493  0.00  0.00    +0.000 C 
ENDBRANCH  18  21
ENDBRANCH   1  15
TORSDOF 5
ENDMDL
MODEL 8
REMARK VINA RESULT:      -7.8      2.670      5.098
REMARK  Name = 
REMARK  5 active torsions:
REMARK  status: ('A' for Active; 'I' for Inactive)
REMARK    1  A    between atoms: C_4  and  O_5
REMARK    2  A    between atoms: O_5  and  C_6
REMARK    3  A    between atoms: C_10  and  C_11
REMARK    4  A    between atoms: C_11  and  N_12
REMARK    5  A    between atoms: C_15  and  N_16
REMARK                            x       y       z     vdW  Elec       q    Type
REMARK                         _______ _______ _______ _____ _____    ______ ____
ROOT
ATOM      1  C   UNL     1       0.667   9.824  20.704  0.00  0.00    +0.000 C 
ENDROOT
BRANCH   1   6
ATOM      2  C   UNL     1       2.619   6.822  19.339  0.00  0.00    +0.000 A 
ATOM      3  C   UNL     1       2.919   7.248  18.040  0.00  0.00    +0.000 A 
ATOM      4  C   UNL     1       2.460   8.486  17.599  0.00  0.00    +0.000 A 
ATOM      5  C   UNL     1       1.696   9.296  18.445  0.00  0.00    +0.000 A 
ATOM      6  C   UNL     1       1.402   8.894  19.757  0.00  0.00    +0.000 A 
ATOM      7  C   UNL     1       1.895   7.654  20.203  0.00  0.00    +0.000 A 
BRANCH   2   8
ATOM      8  O   UNL     1       3.163   5.620  19.735  0.00  0.00    +0.000 OA
BRANCH   8  12
ATOM      9  C   UNL     1       1.251   2.049  18.737  0.00  0.00    +0.000 A 
ATOM     10  C   UNL     1       2.440   2.372  18.087  0.00  0.00    +0.000 A 
ATOM     11  C   UNL     1       3.113   3.552  18.405  0.00  0.00    +0.000 A 
ATOM     12  C   UNL     1       2.587   4.434  19.350  0.00  0.00    +0.000 A 
ATOM     13  C   UNL     1       1.408   4.091  20.021  0.00  0.00    +0.000 A 
ATOM     14  C   UNL     1       0.741   2.902  19.715  0.00  0.00    +0.000 A 
ENDBRANCH   8  12
ENDBRANCH   2   8
ENDBRANCH   1   6
BRANCH   1  15
ATOM     15  N   UNL     1       0.012  10.998  20.076  0.00  0.00    +0.000 NA
ATOM     16  C   UNL     1      -1.296  10.634  19.511  0.00  0.00    +0.000 C 
ATOM     17  C   UNL     1      -2.105  11.839  19.007  0.00  0.00    +0.000 C 
ATOM     18  C   UNL     1      -2.303  12.972  20.053  0.00  0.00    +0.000 C 
ATOM     19  C   UNL     1      -0.886  13.284  20.580  0.00  0.00    +0.000 C 
ATOM     20  C   UNL     1      -0.137  12.055  21.093  0.00  0.00    +0.000 C 
BRANCH  18  21
ATOM     21  N   UNL     1      -3.377  12.717  21.083  0.00  0.00    +0.000 NA
ATOM     22  C   UNL     1      -3.104  13.395  22.368  0.00  0.00    +0.000 C 
ATOM     23  C   UNL     1      -3.810  12.762  23.582  0.00  0.00    +0.000 C 
ATOM     24  C   UNL     1      -5.279  13.110  23.794  0.00  0.00    +0.000 C 
ATOM     25  C   UNL     1      -6.173  12.821  22.601  0.00  0.00    +0.000 C 
ATOM     26  C   UNL     1      -5.806  13.685  21.408  0.00  0.00    +0.000 C 
ATOM     27  C   UNL     1      -4.697  13.106  20.521  0.00  0.00    +0.000 C 
ENDBRANCH  18  21
ENDBRANCH   1  15
TORSDOF 5
ENDMDL
MODEL 9
REMARK VINA RESULT:      -7.8      2.445      8.820
REMARK  Name = 
REMARK  5 active torsions:
REMARK  status: ('A' for Active; 'I' for Inactive)
REMARK    1  A    between atoms: C_4  and  O_5
REMARK    2  A    between atoms: O_5  and  C_6
REMARK    3  A    between atoms: C_10  and  C_11
REMARK    4  A    between atoms: C_11  and  N_12
REMARK    5  A    between atoms: C_15  and  N_16
REMARK                            x       y       z     vdW  Elec       q    Type
REMARK                         _______ _______ _______ _____ _____    ______ ____
ROOT
ATOM      1  C   UNL     1       2.326   7.899  19.429  0.00  0.00    +0.000 C 
ENDROOT
BRANCH   1   6
ATOM      2  C   UNL     1      -0.433  10.448  20.188  0.00  0.00    +0.000 A 
ATOM      3  C   UNL     1      -0.659  10.222  21.550  0.00  0.00    +0.000 A 
ATOM      4  C   UNL     1       0.055   9.225  22.209  0.00  0.00    +0.000 A 
ATOM      5  C   UNL     1       0.985   8.448  21.513  0.00  0.00    +0.000 A 
ATOM      6  C   UNL     1       1.238   8.672  20.151  0.00  0.00    +0.000 A 
ATOM      7  C   UNL     1       0.533   9.701  19.501  0.00  0.00    +0.000 A 
BRANCH   2   8
ATOM      8  O   UNL     1      -1.121  11.495  19.615  0.00  0.00    +0.000 OA
BRANCH   8  12
ATOM      9  C   UNL     1      -4.157  10.892  16.818  0.00  0.00    +0.000 A 
ATOM     10  C   UNL     1      -2.911  10.314  16.584  0.00  0.00    +0.000 A 
ATOM     11  C   UNL     1      -1.878  10.484  17.505  0.00  0.00    +0.000 A 
ATOM     12  C   UNL     1      -2.068  11.261  18.648  0.00  0.00    +0.000 A 
ATOM     13  C   UNL     1      -3.330  11.814  18.894  0.00  0.00    +0.000 A 
ATOM     14  C   UNL     1      -4.372  11.632  17.980  0.00  0.00    +0.000 A 
ENDBRANCH   8  12
ENDBRANCH   2   8
ENDBRANCH   1   6
BRANCH   1  15
ATOM     15  N   UNL     1       2.109   6.436  19.315  0.00  0.00    +0.000 NA
ATOM     16  C   UNL     1       2.159   6.001  17.911  0.00  0.00    +0.000 C 
ATOM     17  C   UNL     1       2.123   4.475  17.738  0.00  0.00    +0.000 C 
ATOM     18  C   UNL     1       3.204   3.704  18.544  0.00  0.00    +0.000 C 
ATOM     19  C   UNL     1       3.070   4.221  19.993  0.00  0.00    +0.000 C 
ATOM     20  C   UNL     1       3.140   5.743  20.110  0.00  0.00    +0.000 C 
BRANCH  18  21
ATOM     21  N   UNL     1       4.588   3.712  17.939  0.00  0.00    +0.000 NA
ATOM     22  C   UNL     1       4.610   4.284  16.576  0.00  0.00    +0.000 C 
ATOM     23  C   UNL     1       5.804   3.831  15.717  0.00  0.00    +0.000 C 
ATOM     24  C   UNL     1       7.138   4.531  15.953  0.00  0.00    +0.000 C 
ATOM     25  C   UNL     1       7.626   4.489  17.390  0.00  0.00    +0.000 C 
ATOM     26  C   UNL     1       6.694   5.250  18.316  0.00  0.00    +0.000 C 
ATOM     27  C   UNL     1       5.518   4.424  18.854  0.00  0.00    +0.000 C 
ENDBRANCH  18  21
ENDBRANCH   1  15
TORSDOF 5
ENDMDL
