MODEL 1
REMARK VINA RESULT:      -7.0      0.000      0.000
REMARK  Name = 
REMARK  3 active torsions:
REMARK  status: ('A' for Active; 'I' for Inactive)
REMARK    1  A    between atoms: C_1  and  C_2
REMARK    2  A    between atoms: C_6  and  N_7
REMARK    3  A    between atoms: C_13  and  N_14
REMARK                            x       y       z     vdW  Elec       q    Type
REMARK                         _______ _______ _______ _____ _____    ______ ____
ROOT
ATOM      1  C   UNL     1       2.491   5.069  19.814  0.00  0.00    +0.000 C 
ATOM      2  C   UNL     1       3.445   5.054  18.649  0.00  0.00    +0.000 A 
ATOM      3  C   UNL     1       3.689   6.189  17.858  0.00  0.00    +0.000 A 
ATOM      4 CL   UNL     1       2.918   7.708  18.159  0.00  0.00    +0.000 Cl
ATOM      5  C   UNL     1       4.574   6.142  16.769  0.00  0.00    +0.000 A 
ATOM      6  C   UNL     1       5.237   4.953  16.429  0.00  0.00    +0.000 A 
ATOM      7  C   UNL     1       5.015   3.806  17.195  0.00  0.00    +0.000 A 
ATOM      8  C   UNL     1       4.141   3.880  18.295  0.00  0.00    +0.000 A 
ENDROOT
BRANCH   6   9
ATOM      9  N   UNL     1       6.124   4.938  15.326  0.00  0.00    +0.000 N 
ATOM     10  C   UNL     1       6.044   4.246  14.145  0.00  0.00    +0.000 A 
ATOM     11  N   UNL     1       7.105   4.507  13.416  0.00  0.00    +0.000 NA
ATOM     12  N   UNL     1       7.854   5.386  14.151  0.00  0.00    +0.000 NA
ATOM     13  N   UNL     1       7.266   5.662  15.307  0.00  0.00    +0.000 NA
ENDBRANCH   6   9
BRANCH   8  14
ATOM     14  N   UNL     1       3.988   2.661  19.081  0.00  0.00    +0.000 N 
ATOM     15  O   UNL     1       3.046   1.915  18.797  0.00  0.00    +0.000 OA
ATOM     16  O   UNL     1       4.792   2.494  20.009  0.00  0.00    +0.000 OA
ENDBRANCH   8  14
TORSDOF 2
ENDMDL
MODEL 2
REMARK VINA RESULT:      -6.9      1.891      2.450
REMARK  Name = 
REMARK  3 active torsions:
REMARK  status: ('A' for Active; 'I' for Inactive)
REMARK    1  A    between atoms: C_1  and  C_2
REMARK    2  A    between atoms: C_6  and  N_7
REMARK    3  A    between atoms: C_13  and  N_14
REMARK                            x       y       z     vdW  Elec       q    Type
REMARK                         _______ _______ _______ _____ _____    ______ ____
ROOT
ATOM      1  C   UNL     1       1.000   5.161  20.456  0.00  0.00    +0.000 C 
ATOM      2  C   UNL     1       2.348   5.025  19.798  0.00  0.00    +0.000 A 
ATOM      3  C   UNL     1       2.943   6.071  19.074  0.00  0.00    +0.000 A 
ATOM      4 CL   UNL     1       2.182   7.612  18.883  0.00  0.00    +0.000 Cl
ATOM      5  C   UNL     1       4.195   5.911  18.460  0.00  0.00    +0.000 A 
ATOM      6  C   UNL     1       4.888   4.694  18.540  0.00  0.00    +0.000 A 
ATOM      7  C   UNL     1       4.323   3.634  19.251  0.00  0.00    +0.000 A 
ATOM      8  C   UNL     1       3.077   3.821  19.878  0.00  0.00    +0.000 A 
ENDROOT
BRANCH   6   9
ATOM      9  N   UNL     1       6.150   4.564  17.909  0.00  0.00    +0.000 N 
ATOM     10  C   UNL     1       6.460   4.478  16.577  0.00  0.00    +0.000 A 
ATOM     11  N   UNL     1       7.758   4.338  16.441  0.00  0.00    +0.000 NA
ATOM     12  N   UNL     1       8.268   4.348  17.712  0.00  0.00    +0.000 NA
ATOM     13  N   UNL     1       7.304   4.494  18.610  0.00  0.00    +0.000 NA
ENDBRANCH   6   9
BRANCH   8  14
ATOM     14  N   UNL     1       2.564   2.691  20.644  0.00  0.00    +0.000 N 
ATOM     15  O   UNL     1       2.806   2.667  21.855  0.00  0.00    +0.000 OA
ATOM     16  O   UNL     1       1.963   1.814  20.007  0.00  0.00    +0.000 OA
ENDBRANCH   8  14
TORSDOF 2
ENDMDL
MODEL 3
REMARK VINA RESULT:      -6.9      0.758      1.105
REMARK  Name = 
REMARK  3 active torsions:
REMARK  status: ('A' for Active; 'I' for Inactive)
REMARK    1  A    between atoms: C_1  and  C_2
REMARK    2  A    between atoms: C_6  and  N_7
REMARK    3  A    between atoms: C_13  and  N_14
REMARK                            x       y       z     vdW  Elec       q    Type
REMARK                         _______ _______ _______ _____ _____    ______ ____
ROOT
ATOM      1  C   UNL     1       1.810   5.078  20.178  0.00  0.00    +0.000 C 
ATOM      2  C   UNL     1       2.859   5.126  19.099  0.00  0.00    +0.000 A 
ATOM      3  C   UNL     1       3.197   6.311  18.427  0.00  0.00    +0.000 A 
ATOM      4 CL   UNL     1       2.441   7.825  18.787  0.00  0.00    +0.000 Cl
ATOM      5  C   UNL     1       4.170   6.323  17.415  0.00  0.00    +0.000 A 
ATOM      6  C   UNL     1       4.830   5.145  17.035  0.00  0.00    +0.000 A 
ATOM      7  C   UNL     1       4.516   3.949  17.683  0.00  0.00    +0.000 A 
ATOM      8  C   UNL     1       3.554   3.962  18.709  0.00  0.00    +0.000 A 
ENDROOT
BRANCH   6   9
ATOM      9  N   UNL     1       5.808   5.190  16.012  0.00  0.00    +0.000 N 
ATOM     10  C   UNL     1       5.785   4.650  14.752  0.00  0.00    +0.000 A 
ATOM     11  N   UNL     1       6.920   4.911  14.146  0.00  0.00    +0.000 NA
ATOM     12  N   UNL     1       7.660   5.637  15.041  0.00  0.00    +0.000 NA
ATOM     13  N   UNL     1       6.993   5.820  16.172  0.00  0.00    +0.000 NA
ENDBRANCH   6   9
BRANCH   8  14
ATOM     14  N   UNL     1       3.305   2.690  19.378  0.00  0.00    +0.000 N 
ATOM     15  O   UNL     1       4.010   2.413  20.354  0.00  0.00    +0.000 OA
ATOM     16  O   UNL     1       2.435   1.961  18.881  0.00  0.00    +0.000 OA
ENDBRANCH   8  14
TORSDOF 2
ENDMDL
MODEL 4
REMARK VINA RESULT:      -6.8      1.259      1.445
REMARK  Name = 
REMARK  3 active torsions:
REMARK  status: ('A' for Active; 'I' for Inactive)
REMARK    1  A    between atoms: C_1  and  C_2
REMARK    2  A    between atoms: C_6  and  N_7
REMARK    3  A    between atoms: C_13  and  N_14
REMARK                            x       y       z     vdW  Elec       q    Type
REMARK                         _______ _______ _______ _____ _____    ______ ____
ROOT
ATOM      1  C   UNL     1       1.468   5.063  20.468  0.00  0.00    +0.000 C 
ATOM      2  C   UNL     1       2.572   5.098  19.443  0.00  0.00    +0.000 A 
ATOM      3  C   UNL     1       2.964   6.281  18.796  0.00  0.00    +0.000 A 
ATOM      4 CL   UNL     1       2.217   7.806  19.127  0.00  0.00    +0.000 Cl
ATOM      5  C   UNL     1       3.987   6.281  17.835  0.00  0.00    +0.000 A 
ATOM      6  C   UNL     1       4.645   5.094  17.482  0.00  0.00    +0.000 A 
ATOM      7  C   UNL     1       4.277   3.900  18.106  0.00  0.00    +0.000 A 
ATOM      8  C   UNL     1       3.265   3.924  19.082  0.00  0.00    +0.000 A 
ENDROOT
BRANCH   6   9
ATOM      9  N   UNL     1       5.673   5.127  16.509  0.00  0.00    +0.000 N 
ATOM     10  C   UNL     1       6.915   4.545  16.524  0.00  0.00    +0.000 A 
ATOM     11  N   UNL     1       7.557   4.862  15.423  0.00  0.00    +0.000 NA
ATOM     12  N   UNL     1       6.696   5.648  14.704  0.00  0.00    +0.000 NA
ATOM     13  N   UNL     1       5.548   5.808  15.348  0.00  0.00    +0.000 NA
ENDBRANCH   6   9
BRANCH   8  14
ATOM     14  N   UNL     1       2.960   2.654  19.729  0.00  0.00    +0.000 N 
ATOM     15  O   UNL     1       2.146   1.912  19.171  0.00  0.00    +0.000 OA
ATOM     16  O   UNL     1       3.509   2.439  20.818  0.00  0.00    +0.000 OA
ENDBRANCH   8  14
TORSDOF 2
ENDMDL
MODEL 5
REMARK VINA RESULT:      -6.7      2.348      5.364
REMARK  Name = 
REMARK  3 active torsions:
REMARK  status: ('A' for Active; 'I' for Inactive)
REMARK    1  A    between atoms: C_1  and  C_2
REMARK    2  A    between atoms: C_6  and  N_7
REMARK    3  A    between atoms: C_13  and  N_14
REMARK                            x       y       z     vdW  Elec       q    Type
REMARK                         _______ _______ _______ _____ _____    ______ ____
ROOT
ATOM      1  C   UNL     1       5.115   6.881  16.004  0.00  0.00    +0.000 C 
ATOM      2  C   UNL     1       4.556   6.072  17.144  0.00  0.00    +0.000 A 
ATOM      3  C   UNL     1       3.493   6.526  17.942  0.00  0.00    +0.000 A 
ATOM      4 CL   UNL     1       2.726   8.054  17.677  0.00  0.00    +0.000 Cl
ATOM      5  C   UNL     1       3.000   5.755  19.007  0.00  0.00    +0.000 A 
ATOM      6  C   UNL     1       3.564   4.508  19.317  0.00  0.00    +0.000 A 
ATOM      7  C   UNL     1       4.623   4.029  18.544  0.00  0.00    +0.000 A 
ATOM      8  C   UNL     1       5.088   4.806  17.467  0.00  0.00    +0.000 A 
ENDROOT
BRANCH   6   9
ATOM      9  N   UNL     1       3.045   3.755  20.397  0.00  0.00    +0.000 N 
ATOM     10  C   UNL     1       1.961   4.004  21.199  0.00  0.00    +0.000 A 
ATOM     11  N   UNL     1       1.859   3.054  22.100  0.00  0.00    +0.000 NA
ATOM     12  N   UNL     1       2.893   2.191  21.848  0.00  0.00    +0.000 NA
ATOM     13  N   UNL     1       3.612   2.601  20.813  0.00  0.00    +0.000 NA
ENDBRANCH   6   9
BRANCH   8  14
ATOM     14  N   UNL     1       6.165   4.229  16.671  0.00  0.00    +0.000 N 
ATOM     15  O   UNL     1       5.846   3.577  15.671  0.00  0.00    +0.000 OA
ATOM     16  O   UNL     1       7.318   4.397  17.089  0.00  0.00    +0.000 OA
ENDBRANCH   8  14
TORSDOF 2
ENDMDL
MODEL 6
REMARK VINA RESULT:      -6.6      1.993      2.154
REMARK  Name = 
REMARK  3 active torsions:
REMARK  status: ('A' for Active; 'I' for Inactive)
REMARK    1  A    between atoms: C_1  and  C_2
REMARK    2  A    between atoms: C_6  and  N_7
REMARK    3  A    between atoms: C_13  and  N_14
REMARK                            x       y       z     vdW  Elec       q    Type
REMARK                         _______ _______ _______ _____ _____    ______ ____
ROOT
ATOM      1  C   UNL     1       4.409   4.109  19.759  0.00  0.00    +0.000 C 
ATOM      2  C   UNL     1       5.028   4.243  18.393  0.00  0.00    +0.000 A 
ATOM      3  C   UNL     1       6.246   4.908  18.177  0.00  0.00    +0.000 A 
ATOM      4 CL   UNL     1       7.146   5.627  19.467  0.00  0.00    +0.000 Cl
ATOM      5  C   UNL     1       6.792   5.028  16.890  0.00  0.00    +0.000 A 
ATOM      6  C   UNL     1       6.132   4.496  15.773  0.00  0.00    +0.000 A 
ATOM      7  C   UNL     1       4.918   3.829  15.953  0.00  0.00    +0.000 A 
ATOM      8  C   UNL     1       4.398   3.700  17.254  0.00  0.00    +0.000 A 
ENDROOT
BRANCH   6   9
ATOM      9  N   UNL     1       6.710   4.633  14.488  0.00  0.00    +0.000 N 
ATOM     10  C   UNL     1       6.416   3.980  13.319  0.00  0.00    +0.000 A 
ATOM     11  N   UNL     1       7.222   4.399  12.371  0.00  0.00    +0.000 NA
ATOM     12  N   UNL     1       8.027   5.339  12.958  0.00  0.00    +0.000 NA
ATOM     13  N   UNL     1       7.720   5.496  14.238  0.00  0.00    +0.000 NA
ENDBRANCH   6   9
BRANCH   8  14
ATOM     14  N   UNL     1       3.152   2.953  17.380  0.00  0.00    +0.000 N 
ATOM     15  O   UNL     1       2.102   3.551  17.126  0.00  0.00    +0.000 OA
ATOM     16  O   UNL     1       3.243   1.784  17.781  0.00  0.00    +0.000 OA
ENDBRANCH   8  14
TORSDOF 2
ENDMDL
MODEL 7
REMARK VINA RESULT:      -6.5      2.619      4.877
REMARK  Name = 
REMARK  3 active torsions:
REMARK  status: ('A' for Active; 'I' for Inactive)
REMARK    1  A    between atoms: C_1  and  C_2
REMARK    2  A    between atoms: C_6  and  N_7
REMARK    3  A    between atoms: C_13  and  N_14
REMARK                            x       y       z     vdW  Elec       q    Type
REMARK                         _______ _______ _______ _____ _____    ______ ____
ROOT
ATOM      1  C   UNL     1       6.430   7.470  17.182  0.00  0.00    +0.000 C 
ATOM      2  C   UNL     1       5.408   6.406  17.484  0.00  0.00    +0.000 A 
ATOM      3  C   UNL     1       4.046   6.697  17.667  0.00  0.00    +0.000 A 
ATOM      4 CL   UNL     1       3.422   8.306  17.552  0.00  0.00    +0.000 Cl
ATOM      5  C   UNL     1       3.118   5.685  17.960  0.00  0.00    +0.000 A 
ATOM      6  C   UNL     1       3.525   4.349  18.092  0.00  0.00    +0.000 A 
ATOM      7  C   UNL     1       4.872   4.027  17.918  0.00  0.00    +0.000 A 
ATOM      8  C   UNL     1       5.783   5.052  17.603  0.00  0.00    +0.000 A 
ENDROOT
BRANCH   6   9
ATOM      9  N   UNL     1       2.564   3.352  18.389  0.00  0.00    +0.000 N 
ATOM     10  C   UNL     1       2.701   2.182  19.090  0.00  0.00    +0.000 A 
ATOM     11  N   UNL     1       1.555   1.542  19.096  0.00  0.00    +0.000 NA
ATOM     12  N   UNL     1       0.684   2.333  18.394  0.00  0.00    +0.000 NA
ATOM     13  N   UNL     1       1.282   3.436  17.968  0.00  0.00    +0.000 NA
ENDBRANCH   6   9
BRANCH   8  14
ATOM     14  N   UNL     1       7.166   4.643  17.387  0.00  0.00    +0.000 N 
ATOM     15  O   UNL     1       7.535   4.478  16.220  0.00  0.00    +0.000 OA
ATOM     16  O   UNL     1       7.851   4.444  18.400  0.00  0.00    +0.000 OA
ENDBRANCH   8  14
TORSDOF 2
ENDMDL
MODEL 8
REMARK VINA RESULT:      -6.4      1.392      1.870
REMARK  Name = 
REMARK  3 active torsions:
REMARK  status: ('A' for Active; 'I' for Inactive)
REMARK    1  A    between atoms: C_1  and  C_2
REMARK    2  A    between atoms: C_6  and  N_7
REMARK    3  A    between atoms: C_13  and  N_14
REMARK                            x       y       z     vdW  Elec       q    Type
REMARK                         _______ _______ _______ _____ _____    ______ ____
ROOT
ATOM      1  C   UNL     1       1.199   4.518  20.054  0.00  0.00    +0.000 C 
ATOM      2  C   UNL     1       2.355   4.738  19.114  0.00  0.00    +0.000 A 
ATOM      3  C   UNL     1       2.942   5.999  18.920  0.00  0.00    +0.000 A 
ATOM      4 CL   UNL     1       2.391   7.411  19.753  0.00  0.00    +0.000 Cl
ATOM      5  C   UNL     1       4.010   6.176  18.027  0.00  0.00    +0.000 A 
ATOM      6  C   UNL     1       4.520   5.097  17.289  0.00  0.00    +0.000 A 
ATOM      7  C   UNL     1       3.958   3.830  17.457  0.00  0.00    +0.000 A 
ATOM      8  C   UNL     1       2.902   3.669  18.374  0.00  0.00    +0.000 A 
ENDROOT
BRANCH   6   9
ATOM      9  N   UNL     1       5.598   5.309  16.396  0.00  0.00    +0.000 N 
ATOM     10  C   UNL     1       6.864   5.774  16.643  0.00  0.00    +0.000 A 
ATOM     11  N   UNL     1       7.531   5.841  15.515  0.00  0.00    +0.000 NA
ATOM     12  N   UNL     1       6.669   5.400  14.547  0.00  0.00    +0.000 NA
ATOM     13  N   UNL     1       5.498   5.066  15.070  0.00  0.00    +0.000 NA
ENDBRANCH   6   9
BRANCH   8  14
ATOM     14  N   UNL     1       2.391   2.313  18.538  0.00  0.00    +0.000 N 
ATOM     15  O   UNL     1       3.129   1.490  19.089  0.00  0.00    +0.000 OA
ATOM     16  O   UNL     1       1.270   2.081  18.066  0.00  0.00    +0.000 OA
ENDBRANCH   8  14
TORSDOF 2
ENDMDL
MODEL 9
REMARK VINA RESULT:      -6.4      2.600      2.997
REMARK  Name = 
REMARK  3 active torsions:
REMARK  status: ('A' for Active; 'I' for Inactive)
REMARK    1  A    between atoms: C_1  and  C_2
REMARK    2  A    between atoms: C_6  and  N_7
REMARK    3  A    between atoms: C_13  and  N_14
REMARK                            x       y       z     vdW  Elec       q    Type
REMARK                         _______ _______ _______ _____ _____    ______ ____
ROOT
ATOM      1  C   UNL     1       4.713   4.976  19.632  0.00  0.00    +0.000 C 
ATOM      2  C   UNL     1       5.220   4.902  18.216  0.00  0.00    +0.000 A 
ATOM      3  C   UNL     1       4.429   4.431  17.155  0.00  0.00    +0.000 A 
ATOM      4 CL   UNL     1       2.798   3.902  17.382  0.00  0.00    +0.000 Cl
ATOM      5  C   UNL     1       4.933   4.361  15.846  0.00  0.00    +0.000 A 
ATOM      6  C   UNL     1       6.250   4.749  15.559  0.00  0.00    +0.000 A 
ATOM      7  C   UNL     1       7.063   5.220  16.592  0.00  0.00    +0.000 A 
ATOM      8  C   UNL     1       6.532   5.304  17.892  0.00  0.00    +0.000 A 
ENDROOT
BRANCH   6   9
ATOM      9  N   UNL     1       6.728   4.667  14.228  0.00  0.00    +0.000 N 
ATOM     10  C   UNL     1       6.349   3.831  13.209  0.00  0.00    +0.000 A 
ATOM     11  N   UNL     1       7.080   4.081  12.148  0.00  0.00    +0.000 NA
ATOM     12  N   UNL     1       7.923   5.098  12.508  0.00  0.00    +0.000 NA
ATOM     13  N   UNL     1       7.713   5.468  13.763  0.00  0.00    +0.000 NA
ENDBRANCH   6   9
BRANCH   8  14
ATOM     14  N   UNL     1       7.416   5.848  18.916  0.00  0.00    +0.000 N 
ATOM     15  O   UNL     1       7.475   5.248  19.994  0.00  0.00    +0.000 OA
ATOM     16  O   UNL     1       8.004   6.903  18.641  0.00  0.00    +0.000 OA
ENDBRANCH   8  14
TORSDOF 2
ENDMDL
