MODEL 1
REMARK VINA RESULT:      -7.9      0.000      0.000
REMARK  Name = 
REMARK  8 active torsions:
REMARK  status: ('A' for Active; 'I' for Inactive)
REMARK    1  A    between atoms: C_1  and  C_2
REMARK    2  A    between atoms: C_4  and  C_5
REMARK    3  A    between atoms: C_8  and  C_9
REMARK    4  A    between atoms: C_10  and  O_11
REMARK    5  A    between atoms: O_11  and  C_12
REMARK    6  A    between atoms: N_15  and  C_16
REMARK    7  A    between atoms: N_19  and  C_20
REMARK    8  A    between atoms: C_20  and  C_21
REMARK                            x       y       z     vdW  Elec       q    Type
REMARK                         _______ _______ _______ _____ _____    ______ ____
ROOT
ATOM      1  C   UNL     1       3.956   5.410  19.615  0.00  0.00    +0.000 A 
ATOM      2  N   UNL     1       3.418   6.635  19.474  0.00  0.00    +0.000 NA
ATOM      3  C   UNL     1       2.169   6.911  19.858  0.00  0.00    +0.000 A 
ATOM      4  N   UNL     1       1.773   8.201  19.616  0.00  0.00    +0.000 N 
ATOM      5  N   UNL     1       1.344   6.025  20.407  0.00  0.00    +0.000 NA
ATOM      6  C   UNL     1       1.834   4.768  20.511  0.00  0.00    +0.000 A 
ATOM      7  C   UNL     1       1.084   3.654  20.998  0.00  0.00    +0.000 A 
ATOM      8  C   UNL     1       1.804   2.489  20.958  0.00  0.00    +0.000 A 
ATOM      9  S   UNL     1       3.391   2.730  20.368  0.00  0.00    +0.000 S 
ATOM     10  C   UNL     1       3.126   4.412  20.123  0.00  0.00    +0.000 A 
ATOM     11  H   UNL     1       2.341   8.670  18.927  0.00  0.00    +0.000 HD
ENDROOT
BRANCH   4  12
ATOM     12  C   UNL     1       0.505   8.768  20.033  0.00  0.00    +0.000 C 
ATOM     13  C   UNL     1      -0.052   9.747  19.006  0.00  0.00    +0.000 C 
ATOM     14  C   UNL     1       0.661  11.099  19.013  0.00  0.00    +0.000 C 
ATOM     15  N   UNL     1       0.709  11.729  20.347  0.00  0.00    +0.000 NA
ATOM     16  C   UNL     1       1.348  10.828  21.320  0.00  0.00    +0.000 C 
ATOM     17  C   UNL     1       0.665   9.458  21.393  0.00  0.00    +0.000 C 
BRANCH  15  18
ATOM     18  C   UNL     1       1.470  13.002  20.223  0.00  0.00    +0.000 C 
BRANCH  18  19
ATOM     19  C   UNL     1       0.638  14.169  19.779  0.00  0.00    +0.000 A 
ATOM     20  C   UNL     1      -0.703  14.431  19.976  0.00  0.00    +0.000 A 
ATOM     21  N   UNL     1      -0.954  15.587  19.290  0.00  0.00    +0.000 N 
ATOM     22  C   UNL     1       0.213  15.983  18.706  0.00  0.00    +0.000 A 
ATOM     23  N   UNL     1       1.194  15.156  18.986  0.00  0.00    +0.000 NA
ATOM     24  H   UNL     1      -1.844  16.060  19.211  0.00  0.00    +0.000 HD
ENDBRANCH  18  19
ENDBRANCH  15  18
ENDBRANCH   4  12
BRANCH   1  25
ATOM     25  O   UNL     1       5.224   5.117  19.100  0.00  0.00    +0.000 OA
BRANCH  25  33
ATOM     26  C   UNL     1       3.604   3.518  16.868  0.00  0.00    +0.000 C 
ATOM     27  C   UNL     1       4.863   4.323  16.728  0.00  0.00    +0.000 A 
ATOM     28  C   UNL     1       5.386   4.314  15.412  0.00  0.00    +0.000 A 
ATOM     29  C   UNL     1       6.585   4.936  15.089  0.00  0.00    +0.000 A 
ATOM     30  C   UNL     1       7.286   5.592  16.090  0.00  0.00    +0.000 A 
ATOM     31  C   UNL     1       6.789   5.636  17.413  0.00  0.00    +0.000 A 
ATOM     32  C   UNL     1       7.664   6.303  18.446  0.00  0.00    +0.000 C 
ATOM     33  C   UNL     1       5.535   5.037  17.746  0.00  0.00    +0.000 A 
BRANCH  29  34
ATOM     34  C   UNL     1       7.099   4.853  13.753  0.00  0.00    +0.000 C 
ATOM     35  N   UNL     1       7.510   4.802  12.669  0.00  0.00    +0.000 NA
ENDBRANCH  29  34
ENDBRANCH  25  33
ENDBRANCH   1  25
TORSDOF 6
ENDMDL
MODEL 2
REMARK VINA RESULT:      -7.7      0.924      1.004
REMARK  Name = 
REMARK  8 active torsions:
REMARK  status: ('A' for Active; 'I' for Inactive)
REMARK    1  A    between atoms: C_1  and  C_2
REMARK    2  A    between atoms: C_4  and  C_5
REMARK    3  A    between atoms: C_8  and  C_9
REMARK    4  A    between atoms: C_10  and  O_11
REMARK    5  A    between atoms: O_11  and  C_12
REMARK    6  A    between atoms: N_15  and  C_16
REMARK    7  A    between atoms: N_19  and  C_20
REMARK    8  A    between atoms: C_20  and  C_21
REMARK                            x       y       z     vdW  Elec       q    Type
REMARK                         _______ _______ _______ _____ _____    ______ ____
ROOT
ATOM      1  C   UNL     1       3.971   5.323  19.570  0.00  0.00    +0.000 A 
ATOM      2  N   UNL     1       3.468   6.559  19.393  0.00  0.00    +0.000 NA
ATOM      3  C   UNL     1       2.229   6.882  19.775  0.00  0.00    +0.000 A 
ATOM      4  N   UNL     1       1.869   8.175  19.493  0.00  0.00    +0.000 N 
ATOM      5  N   UNL     1       1.383   6.038  20.356  0.00  0.00    +0.000 NA
ATOM      6  C   UNL     1       1.837   4.772  20.496  0.00  0.00    +0.000 A 
ATOM      7  C   UNL     1       1.059   3.695  21.023  0.00  0.00    +0.000 A 
ATOM      8  C   UNL     1       1.745   2.509  21.016  0.00  0.00    +0.000 A 
ATOM      9  S   UNL     1       3.335   2.686  20.410  0.00  0.00    +0.000 S 
ATOM     10  C   UNL     1       3.116   4.366  20.114  0.00  0.00    +0.000 A 
ATOM     11  H   UNL     1       2.446   8.605  18.788  0.00  0.00    +0.000 HD
ENDROOT
BRANCH   4  12
ATOM     12  C   UNL     1       0.620   8.790  19.899  0.00  0.00    +0.000 C 
ATOM     13  C   UNL     1       0.147   9.842  18.901  0.00  0.00    +0.000 C 
ATOM     14  C   UNL     1       0.929  11.152  18.989  0.00  0.00    +0.000 C 
ATOM     15  N   UNL     1       0.970  11.720  20.350  0.00  0.00    +0.000 NA
ATOM     16  C   UNL     1       1.529  10.745  21.300  0.00  0.00    +0.000 C 
ATOM     17  C   UNL     1       0.773   9.412  21.292  0.00  0.00    +0.000 C 
BRANCH  15  18
ATOM     18  C   UNL     1       1.799  12.955  20.304  0.00  0.00    +0.000 C 
BRANCH  18  19
ATOM     19  C   UNL     1       1.131  14.161  20.895  0.00  0.00    +0.000 A 
ATOM     20  C   UNL     1       0.256  15.063  20.323  0.00  0.00    +0.000 A 
ATOM     21  N   UNL     1       0.027  16.009  21.283  0.00  0.00    +0.000 N 
ATOM     22  C   UNL     1       0.755  15.666  22.384  0.00  0.00    +0.000 A 
ATOM     23  N   UNL     1       1.426  14.554  22.188  0.00  0.00    +0.000 NA
ATOM     24  H   UNL     1      -0.562  16.826  21.195  0.00  0.00    +0.000 HD
ENDBRANCH  18  19
ENDBRANCH  15  18
ENDBRANCH   4  12
BRANCH   1  25
ATOM     25  O   UNL     1       5.228   4.978  19.058  0.00  0.00    +0.000 OA
BRANCH  25  33
ATOM     26  C   UNL     1       3.621   3.475  16.750  0.00  0.00    +0.000 C 
ATOM     27  C   UNL     1       4.889   4.273  16.655  0.00  0.00    +0.000 A 
ATOM     28  C   UNL     1       5.428   4.306  15.346  0.00  0.00    +0.000 A 
ATOM     29  C   UNL     1       6.636   4.927  15.060  0.00  0.00    +0.000 A 
ATOM     30  C   UNL     1       7.332   5.540  16.092  0.00  0.00    +0.000 A 
ATOM     31  C   UNL     1       6.819   5.542  17.410  0.00  0.00    +0.000 A 
ATOM     32  C   UNL     1       7.686   6.163  18.476  0.00  0.00    +0.000 C 
ATOM     33  C   UNL     1       5.555   4.944  17.706  0.00  0.00    +0.000 A 
BRANCH  29  34
ATOM     34  C   UNL     1       7.167   4.887  13.728  0.00  0.00    +0.000 C 
ATOM     35  N   UNL     1       7.607   4.868  12.655  0.00  0.00    +0.000 NA
ENDBRANCH  29  34
ENDBRANCH  25  33
ENDBRANCH   1  25
TORSDOF 6
ENDMDL
MODEL 3
REMARK VINA RESULT:      -7.3      0.855      1.163
REMARK  Name = 
REMARK  8 active torsions:
REMARK  status: ('A' for Active; 'I' for Inactive)
REMARK    1  A    between atoms: C_1  and  C_2
REMARK    2  A    between atoms: C_4  and  C_5
REMARK    3  A    between atoms: C_8  and  C_9
REMARK    4  A    between atoms: C_10  and  O_11
REMARK    5  A    between atoms: O_11  and  C_12
REMARK    6  A    between atoms: N_15  and  C_16
REMARK    7  A    between atoms: N_19  and  C_20
REMARK    8  A    between atoms: C_20  and  C_21
REMARK                            x       y       z     vdW  Elec       q    Type
REMARK                         _______ _______ _______ _____ _____    ______ ____
ROOT
ATOM      1  C   UNL     1       3.962   5.404  19.551  0.00  0.00    +0.000 A 
ATOM      2  N   UNL     1       3.448   6.635  19.367  0.00  0.00    +0.000 NA
ATOM      3  C   UNL     1       2.203   6.947  19.738  0.00  0.00    +0.000 A 
ATOM      4  N   UNL     1       1.833   8.236  19.451  0.00  0.00    +0.000 N 
ATOM      5  N   UNL     1       1.360   6.096  20.313  0.00  0.00    +0.000 NA
ATOM      6  C   UNL     1       1.826   4.834  20.460  0.00  0.00    +0.000 A 
ATOM      7  C   UNL     1       1.054   3.751  20.982  0.00  0.00    +0.000 A 
ATOM      8  C   UNL     1       1.751   2.572  20.983  0.00  0.00    +0.000 A 
ATOM      9  S   UNL     1       3.344   2.762  20.390  0.00  0.00    +0.000 S 
ATOM     10  C   UNL     1       3.112   4.440  20.089  0.00  0.00    +0.000 A 
ATOM     11  H   UNL     1       2.412   8.670  18.749  0.00  0.00    +0.000 HD
ENDROOT
BRANCH   4  12
ATOM     12  C   UNL     1       0.575   8.840  19.845  0.00  0.00    +0.000 C 
ATOM     13  C   UNL     1       0.211  10.032  18.967  0.00  0.00    +0.000 C 
ATOM     14  C   UNL     1       1.021  11.287  19.288  0.00  0.00    +0.000 C 
ATOM     15  N   UNL     1       0.973  11.668  20.713  0.00  0.00    +0.000 NA
ATOM     16  C   UNL     1       1.430  10.555  21.559  0.00  0.00    +0.000 C 
ATOM     17  C   UNL     1       0.639   9.264  21.317  0.00  0.00    +0.000 C 
BRANCH  15  18
ATOM     18  C   UNL     1       1.840  12.865  20.894  0.00  0.00    +0.000 C 
BRANCH  18  19
ATOM     19  C   UNL     1       2.132  13.606  19.623  0.00  0.00    +0.000 A 
ATOM     20  C   UNL     1       3.021  13.314  18.608  0.00  0.00    +0.000 A 
ATOM     21  N   UNL     1       2.938  14.364  17.737  0.00  0.00    +0.000 N 
ATOM     22  C   UNL     1       2.025  15.246  18.237  0.00  0.00    +0.000 A 
ATOM     23  N   UNL     1       1.514  14.817  19.368  0.00  0.00    +0.000 NA
ATOM     24  H   UNL     1       3.466  14.482  16.883  0.00  0.00    +0.000 HD
ENDBRANCH  18  19
ENDBRANCH  15  18
ENDBRANCH   4  12
BRANCH   1  25
ATOM     25  O   UNL     1       5.226   5.071  19.050  0.00  0.00    +0.000 OA
BRANCH  25  33
ATOM     26  C   UNL     1       3.673   3.457  16.781  0.00  0.00    +0.000 C 
ATOM     27  C   UNL     1       4.916   4.291  16.666  0.00  0.00    +0.000 A 
ATOM     28  C   UNL     1       5.457   4.306  15.358  0.00  0.00    +0.000 A 
ATOM     29  C   UNL     1       6.646   4.957  15.056  0.00  0.00    +0.000 A 
ATOM     30  C   UNL     1       7.318   5.619  16.073  0.00  0.00    +0.000 A 
ATOM     31  C   UNL     1       6.802   5.640  17.390  0.00  0.00    +0.000 A 
ATOM     32  C   UNL     1       7.647   6.316  18.441  0.00  0.00    +0.000 C 
ATOM     33  C   UNL     1       5.558   5.010  17.699  0.00  0.00    +0.000 A 
BRANCH  29  34
ATOM     34  C   UNL     1       7.181   4.898  13.728  0.00  0.00    +0.000 C 
ATOM     35  N   UNL     1       7.617   4.834  12.654  0.00  0.00    +0.000 NA
ENDBRANCH  29  34
ENDBRANCH  25  33
ENDBRANCH   1  25
TORSDOF 6
ENDMDL
MODEL 4
REMARK VINA RESULT:      -7.0      0.691      1.664
REMARK  Name = 
REMARK  8 active torsions:
REMARK  status: ('A' for Active; 'I' for Inactive)
REMARK    1  A    between atoms: C_1  and  C_2
REMARK    2  A    between atoms: C_4  and  C_5
REMARK    3  A    between atoms: C_8  and  C_9
REMARK    4  A    between atoms: C_10  and  O_11
REMARK    5  A    between atoms: O_11  and  C_12
REMARK    6  A    between atoms: N_15  and  C_16
REMARK    7  A    between atoms: N_19  and  C_20
REMARK    8  A    between atoms: C_20  and  C_21
REMARK                            x       y       z     vdW  Elec       q    Type
REMARK                         _______ _______ _______ _____ _____    ______ ____
ROOT
ATOM      1  C   UNL     1       4.089   5.147  19.650  0.00  0.00    +0.000 A 
ATOM      2  N   UNL     1       3.662   6.381  19.321  0.00  0.00    +0.000 NA
ATOM      3  C   UNL     1       2.400   6.771  19.519  0.00  0.00    +0.000 A 
ATOM      4  N   UNL     1       2.130   8.048  19.100  0.00  0.00    +0.000 N 
ATOM      5  N   UNL     1       1.455   6.002  20.050  0.00  0.00    +0.000 NA
ATOM      6  C   UNL     1       1.837   4.737  20.339  0.00  0.00    +0.000 A 
ATOM      7  C   UNL     1       0.957   3.729  20.842  0.00  0.00    +0.000 A 
ATOM      8  C   UNL     1       1.591   2.526  21.009  0.00  0.00    +0.000 A 
ATOM      9  S   UNL     1       3.249   2.605  20.596  0.00  0.00    +0.000 S 
ATOM     10  C   UNL     1       3.136   4.263  20.152  0.00  0.00    +0.000 A 
ATOM     11  H   UNL     1       2.806   8.404  18.442  0.00  0.00    +0.000 HD
ENDROOT
BRANCH   4  12
ATOM     12  C   UNL     1       0.867   8.732  19.299  0.00  0.00    +0.000 C 
ATOM     13  C   UNL     1       0.560   9.712  18.171  0.00  0.00    +0.000 C 
ATOM     14  C   UNL     1       1.377  11.000  18.252  0.00  0.00    +0.000 C 
ATOM     15  N   UNL     1       1.276  11.677  19.559  0.00  0.00    +0.000 NA
ATOM     16  C   UNL     1       1.678  10.768  20.644  0.00  0.00    +0.000 C 
ATOM     17  C   UNL     1       0.876   9.461  20.647  0.00  0.00    +0.000 C 
BRANCH  15  18
ATOM     18  C   UNL     1       2.153  12.879  19.520  0.00  0.00    +0.000 C 
BRANCH  18  19
ATOM     19  C   UNL     1       1.423  14.160  19.243  0.00  0.00    +0.000 A 
ATOM     20  C   UNL     1       0.090  14.380  18.959  0.00  0.00    +0.000 A 
ATOM     21  N   UNL     1      -0.015  15.720  18.712  0.00  0.00    +0.000 N 
ATOM     22  C   UNL     1       1.229  16.264  18.846  0.00  0.00    +0.000 A 
ATOM     23  N   UNL     1       2.118  15.354  19.173  0.00  0.00    +0.000 NA
ATOM     24  H   UNL     1      -0.854  16.223  18.459  0.00  0.00    +0.000 HD
ENDBRANCH  18  19
ENDBRANCH  15  18
ENDBRANCH   4  12
BRANCH   1  25
ATOM     25  O   UNL     1       5.385   4.725  19.327  0.00  0.00    +0.000 OA
BRANCH  25  33
ATOM     26  C   UNL     1       7.760   6.714  18.572  0.00  0.00    +0.000 C 
ATOM     27  C   UNL     1       7.016   5.751  17.693  0.00  0.00    +0.000 A 
ATOM     28  C   UNL     1       7.439   5.793  16.342  0.00  0.00    +0.000 A 
ATOM     29  C   UNL     1       6.826   5.036  15.352  0.00  0.00    +0.000 A 
ATOM     30  C   UNL     1       5.770   4.208  15.704  0.00  0.00    +0.000 A 
ATOM     31  C   UNL     1       5.329   4.128  17.046  0.00  0.00    +0.000 A 
ATOM     32  C   UNL     1       4.123   3.262  17.314  0.00  0.00    +0.000 C 
ATOM     33  C   UNL     1       5.981   4.870  18.078  0.00  0.00    +0.000 A 
BRANCH  29  34
ATOM     34  C   UNL     1       7.255   5.153  13.989  0.00  0.00    +0.000 C 
ATOM     35  N   UNL     1       7.590   5.259  12.883  0.00  0.00    +0.000 NA
ENDBRANCH  29  34
ENDBRANCH  25  33
ENDBRANCH   1  25
TORSDOF 6
ENDMDL
MODEL 5
REMARK VINA RESULT:      -6.9      2.847      9.275
REMARK  Name = 
REMARK  8 active torsions:
REMARK  status: ('A' for Active; 'I' for Inactive)
REMARK    1  A    between atoms: C_1  and  C_2
REMARK    2  A    between atoms: C_4  and  C_5
REMARK    3  A    between atoms: C_8  and  C_9
REMARK    4  A    between atoms: C_10  and  O_11
REMARK    5  A    between atoms: O_11  and  C_12
REMARK    6  A    between atoms: N_15  and  C_16
REMARK    7  A    between atoms: N_19  and  C_20
REMARK    8  A    between atoms: C_20  and  C_21
REMARK                            x       y       z     vdW  Elec       q    Type
REMARK                         _______ _______ _______ _____ _____    ______ ____
ROOT
ATOM      1  C   UNL     1       0.361  10.347  19.550  0.00  0.00    +0.000 A 
ATOM      2  N   UNL     1       1.141   9.353  19.086  0.00  0.00    +0.000 NA
ATOM      3  C   UNL     1       1.491   8.311  19.846  0.00  0.00    +0.000 A 
ATOM      4  N   UNL     1       2.311   7.406  19.224  0.00  0.00    +0.000 N 
ATOM      5  N   UNL     1       1.115   8.150  21.111  0.00  0.00    +0.000 NA
ATOM      6  C   UNL     1       0.377   9.161  21.625  0.00  0.00    +0.000 A 
ATOM      7  C   UNL     1      -0.062   9.221  22.984  0.00  0.00    +0.000 A 
ATOM      8  C   UNL     1      -0.756  10.371  23.253  0.00  0.00    +0.000 A 
ATOM      9  S   UNL     1      -0.914  11.369  21.873  0.00  0.00    +0.000 S 
ATOM     10  C   UNL     1      -0.017  10.278  20.889  0.00  0.00    +0.000 A 
ATOM     11  H   UNL     1       2.777   7.782  18.413  0.00  0.00    +0.000 HD
ENDROOT
BRANCH   4  12
ATOM     12  C   UNL     1       2.741   6.148  19.804  0.00  0.00    +0.000 C 
ATOM     13  C   UNL     1       4.223   5.879  19.559  0.00  0.00    +0.000 C 
ATOM     14  C   UNL     1       4.526   5.432  18.129  0.00  0.00    +0.000 C 
ATOM     15  N   UNL     1       3.718   4.277  17.692  0.00  0.00    +0.000 NA
ATOM     16  C   UNL     1       2.282   4.573  17.823  0.00  0.00    +0.000 C 
ATOM     17  C   UNL     1       1.894   4.999  19.244  0.00  0.00    +0.000 C 
BRANCH  15  18
ATOM     18  C   UNL     1       4.073   3.981  16.277  0.00  0.00    +0.000 C 
BRANCH  18  19
ATOM     19  C   UNL     1       5.506   4.265  15.936  0.00  0.00    +0.000 A 
ATOM     20  C   UNL     1       6.639   4.190  16.721  0.00  0.00    +0.000 A 
ATOM     21  N   UNL     1       7.661   4.636  15.930  0.00  0.00    +0.000 N 
ATOM     22  C   UNL     1       7.132   4.966  14.717  0.00  0.00    +0.000 A 
ATOM     23  N   UNL     1       5.838   4.748  14.683  0.00  0.00    +0.000 NA
ATOM     24  H   UNL     1       8.633   4.724  16.194  0.00  0.00    +0.000 HD
ENDBRANCH  18  19
ENDBRANCH  15  18
ENDBRANCH   4  12
BRANCH   1  25
ATOM     25  O   UNL     1       0.105  11.482  18.771  0.00  0.00    +0.000 OA
BRANCH  25  33
ATOM     26  C   UNL     1      -1.210  14.150  19.919  0.00  0.00    +0.000 C 
ATOM     27  C   UNL     1       0.184  13.926  19.410  0.00  0.00    +0.000 A 
ATOM     28  C   UNL     1       0.978  15.098  19.428  0.00  0.00    +0.000 A 
ATOM     29  C   UNL     1       2.273  15.122  18.928  0.00  0.00    +0.000 A 
ATOM     30  C   UNL     1       2.805  13.954  18.400  0.00  0.00    +0.000 A 
ATOM     31  C   UNL     1       2.048  12.759  18.377  0.00  0.00    +0.000 A 
ATOM     32  C   UNL     1       2.683  11.565  17.710  0.00  0.00    +0.000 C 
ATOM     33  C   UNL     1       0.731  12.715  18.930  0.00  0.00    +0.000 A 
BRANCH  29  34
ATOM     34  C   UNL     1       3.018  16.347  18.920  0.00  0.00    +0.000 C 
ATOM     35  N   UNL     1       3.634  17.330  18.907  0.00  0.00    +0.000 NA
ENDBRANCH  29  34
ENDBRANCH  25  33
ENDBRANCH   1  25
TORSDOF 6
ENDMDL
MODEL 6
REMARK VINA RESULT:      -6.9      2.869      9.220
REMARK  Name = 
REMARK  8 active torsions:
REMARK  status: ('A' for Active; 'I' for Inactive)
REMARK    1  A    between atoms: C_1  and  C_2
REMARK    2  A    between atoms: C_4  and  C_5
REMARK    3  A    between atoms: C_8  and  C_9
REMARK    4  A    between atoms: C_10  and  O_11
REMARK    5  A    between atoms: O_11  and  C_12
REMARK    6  A    between atoms: N_15  and  C_16
REMARK    7  A    between atoms: N_19  and  C_20
REMARK    8  A    between atoms: C_20  and  C_21
REMARK                            x       y       z     vdW  Elec       q    Type
REMARK                         _______ _______ _______ _____ _____    ______ ____
ROOT
ATOM      1  C   UNL     1       1.449  10.153  18.910  0.00  0.00    +0.000 A 
ATOM      2  N   UNL     1       1.980   9.060  18.330  0.00  0.00    +0.000 NA
ATOM      3  C   UNL     1       2.030   7.880  18.954  0.00  0.00    +0.000 A 
ATOM      4  N   UNL     1       2.629   6.881  18.229  0.00  0.00    +0.000 N 
ATOM      5  N   UNL     1       1.572   7.664  20.183  0.00  0.00    +0.000 NA
ATOM      6  C   UNL     1       1.084   8.755  20.815  0.00  0.00    +0.000 A 
ATOM      7  C   UNL     1       0.616   8.757  22.166  0.00  0.00    +0.000 A 
ATOM      8  C   UNL     1       0.215  10.002  22.573  0.00  0.00    +0.000 A 
ATOM      9  S   UNL     1       0.365  11.168  21.331  0.00  0.00    +0.000 S 
ATOM     10  C   UNL     1       1.008  10.017  20.225  0.00  0.00    +0.000 A 
ATOM     11  H   UNL     1       3.207   7.226  17.479  0.00  0.00    +0.000 HD
ENDROOT
BRANCH   4  12
ATOM     12  C   UNL     1       2.712   5.495  18.647  0.00  0.00    +0.000 C 
ATOM     13  C   UNL     1       3.782   5.279  19.712  0.00  0.00    +0.000 C 
ATOM     14  C   UNL     1       5.204   5.293  19.150  0.00  0.00    +0.000 C 
ATOM     15  N   UNL     1       5.400   4.353  18.029  0.00  0.00    +0.000 NA
ATOM     16  C   UNL     1       4.439   4.629  16.950  0.00  0.00    +0.000 C 
ATOM     17  C   UNL     1       2.984   4.600  17.432  0.00  0.00    +0.000 C 
BRANCH  15  18
ATOM     18  C   UNL     1       6.800   4.504  17.547  0.00  0.00    +0.000 C 
BRANCH  18  19
ATOM     19  C   UNL     1       7.411   5.838  17.857  0.00  0.00    +0.000 A 
ATOM     20  C   UNL     1       8.132   6.253  18.959  0.00  0.00    +0.000 A 
ATOM     21  N   UNL     1       8.373   7.583  18.759  0.00  0.00    +0.000 N 
ATOM     22  C   UNL     1       7.802   7.933  17.571  0.00  0.00    +0.000 A 
ATOM     23  N   UNL     1       7.221   6.905  16.997  0.00  0.00    +0.000 NA
ATOM     24  H   UNL     1       8.870   8.206  19.382  0.00  0.00    +0.000 HD
ENDBRANCH  18  19
ENDBRANCH  15  18
ENDBRANCH   4  12
BRANCH   1  25
ATOM     25  O   UNL     1       1.512  11.402  18.282  0.00  0.00    +0.000 OA
BRANCH  25  33
ATOM     26  C   UNL     1      -1.647  11.779  18.076  0.00  0.00    +0.000 C 
ATOM     27  C   UNL     1      -0.610  12.744  18.569  0.00  0.00    +0.000 A 
ATOM     28  C   UNL     1      -1.152  13.995  18.953  0.00  0.00    +0.000 A 
ATOM     29  C   UNL     1      -0.353  15.052  19.367  0.00  0.00    +0.000 A 
ATOM     30  C   UNL     1       1.022  14.870  19.410  0.00  0.00    +0.000 A 
ATOM     31  C   UNL     1       1.601  13.631  19.049  0.00  0.00    +0.000 A 
ATOM     32  C   UNL     1       3.107  13.558  19.051  0.00  0.00    +0.000 C 
ATOM     33  C   UNL     1       0.783  12.524  18.664  0.00  0.00    +0.000 A 
BRANCH  29  34
ATOM     34  C   UNL     1      -0.945  16.316  19.695  0.00  0.00    +0.000 C 
ATOM     35  N   UNL     1      -1.414  17.340  19.973  0.00  0.00    +0.000 NA
ENDBRANCH  29  34
ENDBRANCH  25  33
ENDBRANCH   1  25
TORSDOF 6
ENDMDL
MODEL 7
REMARK VINA RESULT:      -6.9      1.180      2.029
REMARK  Name = 
REMARK  8 active torsions:
REMARK  status: ('A' for Active; 'I' for Inactive)
REMARK    1  A    between atoms: C_1  and  C_2
REMARK    2  A    between atoms: C_4  and  C_5
REMARK    3  A    between atoms: C_8  and  C_9
REMARK    4  A    between atoms: C_10  and  O_11
REMARK    5  A    between atoms: O_11  and  C_12
REMARK    6  A    between atoms: N_15  and  C_16
REMARK    7  A    between atoms: N_19  and  C_20
REMARK    8  A    between atoms: C_20  and  C_21
REMARK                            x       y       z     vdW  Elec       q    Type
REMARK                         _______ _______ _______ _____ _____    ______ ____
ROOT
ATOM      1  C   UNL     1       4.094   5.098  19.611  0.00  0.00    +0.000 A 
ATOM      2  N   UNL     1       3.677   6.328  19.259  0.00  0.00    +0.000 NA
ATOM      3  C   UNL     1       2.425   6.740  19.472  0.00  0.00    +0.000 A 
ATOM      4  N   UNL     1       2.164   8.011  19.027  0.00  0.00    +0.000 N 
ATOM      5  N   UNL     1       1.480   5.998  20.040  0.00  0.00    +0.000 NA
ATOM      6  C   UNL     1       1.851   4.735  20.353  0.00  0.00    +0.000 A 
ATOM      7  C   UNL     1       0.968   3.752  20.898  0.00  0.00    +0.000 A 
ATOM      8  C   UNL     1       1.588   2.545  21.082  0.00  0.00    +0.000 A 
ATOM      9  S   UNL     1       3.239   2.591  20.635  0.00  0.00    +0.000 S 
ATOM     10  C   UNL     1       3.140   4.239  20.152  0.00  0.00    +0.000 A 
ATOM     11  H   UNL     1       2.832   8.341  18.348  0.00  0.00    +0.000 HD
ENDROOT
BRANCH   4  12
ATOM     12  C   UNL     1       0.913   8.717  19.234  0.00  0.00    +0.000 C 
ATOM     13  C   UNL     1       0.612   9.695  18.103  0.00  0.00    +0.000 C 
ATOM     14  C   UNL     1       1.452  10.970  18.169  0.00  0.00    +0.000 C 
ATOM     15  N   UNL     1       1.374  11.656  19.473  0.00  0.00    +0.000 NA
ATOM     16  C   UNL     1       1.771  10.747  20.559  0.00  0.00    +0.000 C 
ATOM     17  C   UNL     1       0.947   9.454  20.577  0.00  0.00    +0.000 C 
BRANCH  15  18
ATOM     18  C   UNL     1       2.271  12.843  19.418  0.00  0.00    +0.000 C 
BRANCH  18  19
ATOM     19  C   UNL     1       2.078  13.806  20.552  0.00  0.00    +0.000 A 
ATOM     20  C   UNL     1       0.960  14.522  20.931  0.00  0.00    +0.000 A 
ATOM     21  N   UNL     1       1.365  15.305  21.976  0.00  0.00    +0.000 N 
ATOM     22  C   UNL     1       2.687  15.053  22.194  0.00  0.00    +0.000 A 
ATOM     23  N   UNL     1       3.147  14.150  21.359  0.00  0.00    +0.000 NA
ATOM     24  H   UNL     1       0.797  15.966  22.489  0.00  0.00    +0.000 HD
ENDBRANCH  18  19
ENDBRANCH  15  18
ENDBRANCH   4  12
BRANCH   1  25
ATOM     25  O   UNL     1       5.377   4.649  19.273  0.00  0.00    +0.000 OA
BRANCH  25  33
ATOM     26  C   UNL     1       7.719   6.686  18.542  0.00  0.00    +0.000 C 
ATOM     27  C   UNL     1       6.996   5.716  17.653  0.00  0.00    +0.000 A 
ATOM     28  C   UNL     1       7.423   5.775  16.304  0.00  0.00    +0.000 A 
ATOM     29  C   UNL     1       6.829   5.013  15.306  0.00  0.00    +0.000 A 
ATOM     30  C   UNL     1       5.787   4.164  15.649  0.00  0.00    +0.000 A 
ATOM     31  C   UNL     1       5.341   4.067  16.988  0.00  0.00    +0.000 A 
ATOM     32  C   UNL     1       4.150   3.178  17.245  0.00  0.00    +0.000 C 
ATOM     33  C   UNL     1       5.976   4.813  18.028  0.00  0.00    +0.000 A 
BRANCH  29  34
ATOM     34  C   UNL     1       7.261   5.148  13.946  0.00  0.00    +0.000 C 
ATOM     35  N   UNL     1       7.594   5.257  12.840  0.00  0.00    +0.000 NA
ENDBRANCH  29  34
ENDBRANCH  25  33
ENDBRANCH   1  25
TORSDOF 6
ENDMDL
MODEL 8
REMARK VINA RESULT:      -6.9      7.101      9.719
REMARK  Name = 
REMARK  8 active torsions:
REMARK  status: ('A' for Active; 'I' for Inactive)
REMARK    1  A    between atoms: C_1  and  C_2
REMARK    2  A    between atoms: C_4  and  C_5
REMARK    3  A    between atoms: C_8  and  C_9
REMARK    4  A    between atoms: C_10  and  O_11
REMARK    5  A    between atoms: O_11  and  C_12
REMARK    6  A    between atoms: N_15  and  C_16
REMARK    7  A    between atoms: N_19  and  C_20
REMARK    8  A    between atoms: C_20  and  C_21
REMARK                            x       y       z     vdW  Elec       q    Type
REMARK                         _______ _______ _______ _____ _____    ______ ____
ROOT
ATOM      1  C   UNL     1      -2.106  12.824  20.040  0.00  0.00    +0.000 A 
ATOM      2  N   UNL     1      -0.964  13.331  19.539  0.00  0.00    +0.000 NA
ATOM      3  C   UNL     1      -0.504  14.533  19.897  0.00  0.00    +0.000 A 
ATOM      4  N   UNL     1       0.657  14.905  19.268  0.00  0.00    +0.000 N 
ATOM      5  N   UNL     1      -1.110  15.337  20.764  0.00  0.00    +0.000 NA
ATOM      6  C   UNL     1      -2.291  14.882  21.243  0.00  0.00    +0.000 A 
ATOM      7  C   UNL     1      -3.138  15.624  22.124  0.00  0.00    +0.000 A 
ATOM      8  C   UNL     1      -4.292  14.949  22.422  0.00  0.00    +0.000 A 
ATOM      9  S   UNL     1      -4.353  13.411  21.675  0.00  0.00    +0.000 S 
ATOM     10  C   UNL     1      -2.831  13.640  20.907  0.00  0.00    +0.000 A 
ATOM     11  H   UNL     1       0.839  14.382  18.426  0.00  0.00    +0.000 HD
ENDROOT
BRANCH   4  12
ATOM     12  C   UNL     1       1.403  16.113  19.562  0.00  0.00    +0.000 C 
ATOM     13  C   UNL     1       1.993  16.744  18.305  0.00  0.00    +0.000 C 
ATOM     14  C   UNL     1       3.220  16.002  17.777  0.00  0.00    +0.000 C 
ATOM     15  N   UNL     1       4.271  15.810  18.794  0.00  0.00    +0.000 NA
ATOM     16  C   UNL     1       3.732  15.102  19.966  0.00  0.00    +0.000 C 
ATOM     17  C   UNL     1       2.514  15.807  20.573  0.00  0.00    +0.000 C 
BRANCH  15  18
ATOM     18  C   UNL     1       5.377  15.035  18.167  0.00  0.00    +0.000 C 
BRANCH  18  19
ATOM     19  C   UNL     1       6.706  15.730  18.203  0.00  0.00    +0.000 A 
ATOM     20  C   UNL     1       7.971  15.244  17.940  0.00  0.00    +0.000 A 
ATOM     21  N   UNL     1       8.823  16.280  18.204  0.00  0.00    +0.000 N 
ATOM     22  C   UNL     1       8.069  17.341  18.615  0.00  0.00    +0.000 A 
ATOM     23  N   UNL     1       6.789  17.047  18.618  0.00  0.00    +0.000 NA
ATOM     24  H   UNL     1       9.831  16.267  18.128  0.00  0.00    +0.000 HD
ENDBRANCH  18  19
ENDBRANCH  15  18
ENDBRANCH   4  12
BRANCH   1  25
ATOM     25  O   UNL     1      -2.626  11.615  19.564  0.00  0.00    +0.000 OA
BRANCH  25  33
ATOM     26  C   UNL     1      -5.433  12.317  18.224  0.00  0.00    +0.000 C 
ATOM     27  C   UNL     1      -4.237  11.643  17.617  0.00  0.00    +0.000 A 
ATOM     28  C   UNL     1      -4.442  11.252  16.271  0.00  0.00    +0.000 A 
ATOM     29  C   UNL     1      -3.486  10.547  15.552  0.00  0.00    +0.000 A 
ATOM     30  C   UNL     1      -2.290  10.223  16.174  0.00  0.00    +0.000 A 
ATOM     31  C   UNL     1      -2.041  10.609  17.512  0.00  0.00    +0.000 A 
ATOM     32  C   UNL     1      -0.745  10.139  18.126  0.00  0.00    +0.000 C 
ATOM     33  C   UNL     1      -3.001  11.373  18.246  0.00  0.00    +0.000 A 
BRANCH  29  34
ATOM     34  C   UNL     1      -3.763  10.127  14.210  0.00  0.00    +0.000 C 
ATOM     35  N   UNL     1      -3.986   9.804  13.118  0.00  0.00    +0.000 NA
ENDBRANCH  29  34
ENDBRANCH  25  33
ENDBRANCH   1  25
TORSDOF 6
ENDMDL
MODEL 9
REMARK VINA RESULT:      -6.8      4.776      8.180
REMARK  Name = 
REMARK  8 active torsions:
REMARK  status: ('A' for Active; 'I' for Inactive)
REMARK    1  A    between atoms: C_1  and  C_2
REMARK    2  A    between atoms: C_4  and  C_5
REMARK    3  A    between atoms: C_8  and  C_9
REMARK    4  A    between atoms: C_10  and  O_11
REMARK    5  A    between atoms: O_11  and  C_12
REMARK    6  A    between atoms: N_15  and  C_16
REMARK    7  A    between atoms: N_19  and  C_20
REMARK    8  A    between atoms: C_20  and  C_21
REMARK                            x       y       z     vdW  Elec       q    Type
REMARK                         _______ _______ _______ _____ _____    ______ ____
ROOT
ATOM      1  C   UNL     1       0.381  11.837  20.737  0.00  0.00    +0.000 A 
ATOM      2  N   UNL     1       1.401  12.474  20.133  0.00  0.00    +0.000 NA
ATOM      3  C   UNL     1       1.774  13.708  20.483  0.00  0.00    +0.000 A 
ATOM      4  N   UNL     1       2.813  14.216  19.745  0.00  0.00    +0.000 N 
ATOM      5  N   UNL     1       1.192  14.421  21.441  0.00  0.00    +0.000 NA
ATOM      6  C   UNL     1       0.125  13.832  22.030  0.00  0.00    +0.000 A 
ATOM      7  C   UNL     1      -0.687  14.458  23.025  0.00  0.00    +0.000 A 
ATOM      8  C   UNL     1      -1.726  13.658  23.422  0.00  0.00    +0.000 A 
ATOM      9  S   UNL     1      -1.715  12.142  22.630  0.00  0.00    +0.000 S 
ATOM     10  C   UNL     1      -0.320  12.550  21.708  0.00  0.00    +0.000 A 
ATOM     11  H   UNL     1       2.951  13.738  18.869  0.00  0.00    +0.000 HD
ENDROOT
BRANCH   4  12
ATOM     12  C   UNL     1       3.461  15.488  20.001  0.00  0.00    +0.000 C 
ATOM     13  C   UNL     1       3.710  16.273  18.717  0.00  0.00    +0.000 C 
ATOM     14  C   UNL     1       4.882  15.734  17.898  0.00  0.00    +0.000 C 
ATOM     15  N   UNL     1       6.132  15.611  18.673  0.00  0.00    +0.000 NA
ATOM     16  C   UNL     1       5.923  14.762  19.857  0.00  0.00    +0.000 C 
ATOM     17  C   UNL     1       4.780  15.261  20.748  0.00  0.00    +0.000 C 
BRANCH  15  18
ATOM     18  C   UNL     1       7.169  15.031  17.778  0.00  0.00    +0.000 C 
BRANCH  18  19
ATOM     19  C   UNL     1       8.540  14.979  18.385  0.00  0.00    +0.000 A 
ATOM     20  C   UNL     1       9.355  13.896  18.649  0.00  0.00    +0.000 A 
ATOM     21  N   UNL     1      10.453  14.411  19.280  0.00  0.00    +0.000 N 
ATOM     22  C   UNL     1      10.276  15.760  19.384  0.00  0.00    +0.000 A 
ATOM     23  N   UNL     1       9.138  16.136  18.848  0.00  0.00    +0.000 NA
ATOM     24  H   UNL     1      11.249  13.892  19.626  0.00  0.00    +0.000 HD
ENDBRANCH  18  19
ENDBRANCH  15  18
ENDBRANCH   4  12
BRANCH   1  25
ATOM     25  O   UNL     1      -0.064  10.592  20.276  0.00  0.00    +0.000 OA
BRANCH  25  33
ATOM     26  C   UNL     1       1.708   9.936  17.708  0.00  0.00    +0.000 C 
ATOM     27  C   UNL     1       1.527   9.133  18.962  0.00  0.00    +0.000 A 
ATOM     28  C   UNL     1       2.232   7.905  18.943  0.00  0.00    +0.000 A 
ATOM     29  C   UNL     1       2.137   6.981  19.975  0.00  0.00    +0.000 A 
ATOM     30  C   UNL     1       1.328   7.278  21.062  0.00  0.00    +0.000 A 
ATOM     31  C   UNL     1       0.619   8.501  21.125  0.00  0.00    +0.000 A 
ATOM     32  C   UNL     1      -0.296   8.696  22.308  0.00  0.00    +0.000 C 
ATOM     33  C   UNL     1       0.746   9.476  20.089  0.00  0.00    +0.000 A 
BRANCH  29  34
ATOM     34  C   UNL     1       2.828   5.729  19.884  0.00  0.00    +0.000 C 
ATOM     35  N   UNL     1       3.394   4.717  19.827  0.00  0.00    +0.000 NA
ENDBRANCH  29  34
ENDBRANCH  25  33
ENDBRANCH   1  25
TORSDOF 6
ENDMDL
