MODEL 1
REMARK VINA RESULT:      -8.1      0.000      0.000
REMARK  Name = 
REMARK  8 active torsions:
REMARK  status: ('A' for Active; 'I' for Inactive)
REMARK    1  A    between atoms: C_1  and  O_2
REMARK    2  A    between atoms: O_2  and  C_3
REMARK    3  A    between atoms: N_13  and  C_14
REMARK    4  A    between atoms: C_14  and  C_15
REMARK    5  A    between atoms: C_15  and  C_16
REMARK    6  A    between atoms: C_16  and  C_17
REMARK    7  A    between atoms: C_17  and  N_18
REMARK    8  A    between atoms: N_21  and  C_22
REMARK                            x       y       z     vdW  Elec       q    Type
REMARK                         _______ _______ _______ _____ _____    ______ ____
ROOT
ATOM      1  C   UNL     1       8.986   9.878  18.726  0.00  0.00    +0.000 C 
ENDROOT
BRANCH   1   2
ATOM      2  C   UNL     1       9.728  10.920  17.890  0.00  0.00    +0.000 C 
BRANCH   2  13
ATOM      3  C   UNL     1       8.545  15.634  18.709  0.00  0.00    +0.000 A 
ATOM      4  C   UNL     1       7.349  15.470  18.006  0.00  0.00    +0.000 A 
ATOM      5  C   UNL     1       6.976  14.213  17.542  0.00  0.00    +0.000 A 
ATOM      6  C   UNL     1       7.812  13.119  17.753  0.00  0.00    +0.000 A 
ATOM      7  C   UNL     1       9.025  13.259  18.441  0.00  0.00    +0.000 A 
ATOM      8  C   UNL     1       9.382  14.526  18.939  0.00  0.00    +0.000 A 
ATOM      9  C   UNL     1      10.708  14.672  19.638  0.00  0.00    +0.000 C 
ATOM     10  C   UNL     1      11.019  13.423  20.432  0.00  0.00    +0.000 C 
ATOM     11  C   UNL     1      10.966  12.201  19.550  0.00  0.00    +0.000 C 
ATOM     12  O   UNL     1      11.752  11.269  19.731  0.00  0.00    +0.000 OA
ATOM     13  N   UNL     1       9.916  12.158  18.634  0.00  0.00    +0.000 N 
BRANCH   3  15
ATOM     14  C   UNL     1       8.767  17.948  18.278  0.00  0.00    +0.000 C 
ATOM     15  O   UNL     1       8.992  16.851  19.156  0.00  0.00    +0.000 OA
ENDBRANCH   3  15
ENDBRANCH   2  13
ENDBRANCH   1   2
BRANCH   1  16
ATOM     16  C   UNL     1       8.180   8.948  17.827  0.00  0.00    +0.000 C 
BRANCH  16  17
ATOM     17  C   UNL     1       8.069   7.565  18.467  0.00  0.00    +0.000 C 
BRANCH  17  18
ATOM     18  N   UNL     1       7.766   6.497  17.503  0.00  0.00    +0.000 NA
ATOM     19  C   UNL     1       7.628   5.198  18.217  0.00  0.00    +0.000 C 
ATOM     20  C   UNL     1       6.358   5.050  19.101  0.00  0.00    +0.000 C 
ATOM     21  N   UNL     1       5.161   5.418  18.329  0.00  0.00    +0.000 N 
ATOM     22  C   UNL     1       5.236   6.698  17.614  0.00  0.00    +0.000 C 
ATOM     23  C   UNL     1       6.510   6.726  16.746  0.00  0.00    +0.000 C 
BRANCH  21  24
ATOM     24  C   UNL     1       4.006   4.668  18.348  0.00  0.00    +0.000 A 
ATOM     25  C   UNL     1       3.574   3.984  17.198  0.00  0.00    +0.000 A 
ATOM     26  C   UNL     1       2.405   3.218  17.187  0.00  0.00    +0.000 A 
ATOM     27  C   UNL     1       1.636   3.117  18.342  0.00  0.00    +0.000 A 
ATOM     28  C   UNL     1       2.052   3.774  19.495  0.00  0.00    +0.000 A 
ATOM     29 CL   UNL     1       1.105   3.654  20.927  0.00  0.00    +0.000 Cl
ATOM     30  C   UNL     1       3.224   4.535  19.501  0.00  0.00    +0.000 A 
ENDBRANCH  21  24
ENDBRANCH  17  18
ENDBRANCH  16  17
ENDBRANCH   1  16
TORSDOF 7
ENDMDL
MODEL 2
REMARK VINA RESULT:      -8.0      1.941      2.409
REMARK  Name = 
REMARK  8 active torsions:
REMARK  status: ('A' for Active; 'I' for Inactive)
REMARK    1  A    between atoms: C_1  and  O_2
REMARK    2  A    between atoms: O_2  and  C_3
REMARK    3  A    between atoms: N_13  and  C_14
REMARK    4  A    between atoms: C_14  and  C_15
REMARK    5  A    between atoms: C_15  and  C_16
REMARK    6  A    between atoms: C_16  and  C_17
REMARK    7  A    between atoms: C_17  and  N_18
REMARK    8  A    between atoms: N_21  and  C_22
REMARK                            x       y       z     vdW  Elec       q    Type
REMARK                         _______ _______ _______ _____ _____    ______ ____
ROOT
ATOM      1  C   UNL     1       8.461   9.989  18.277  0.00  0.00    +0.000 C 
ENDROOT
BRANCH   1   2
ATOM      2  C   UNL     1       9.703  10.425  19.053  0.00  0.00    +0.000 C 
BRANCH   2  13
ATOM      3  C   UNL     1       8.194  14.095  21.977  0.00  0.00    +0.000 A 
ATOM      4  C   UNL     1       7.918  13.185  22.999  0.00  0.00    +0.000 A 
ATOM      5  C   UNL     1       8.248  11.842  22.849  0.00  0.00    +0.000 A 
ATOM      6  C   UNL     1       8.825  11.397  21.663  0.00  0.00    +0.000 A 
ATOM      7  C   UNL     1       9.097  12.287  20.615  0.00  0.00    +0.000 A 
ATOM      8  C   UNL     1       8.795  13.651  20.784  0.00  0.00    +0.000 A 
ATOM      9  C   UNL     1       9.051  14.589  19.634  0.00  0.00    +0.000 C 
ATOM     10  C   UNL     1      10.297  14.168  18.887  0.00  0.00    +0.000 C 
ATOM     11  C   UNL     1      10.197  12.731  18.444  0.00  0.00    +0.000 C 
ATOM     12  O   UNL     1      10.676  12.377  17.365  0.00  0.00    +0.000 OA
ATOM     13  N   UNL     1       9.654  11.845  19.374  0.00  0.00    +0.000 N 
BRANCH   3  15
ATOM     14  C   UNL     1       6.499  15.728  21.747  0.00  0.00    +0.000 C 
ATOM     15  O   UNL     1       7.858  15.423  22.043  0.00  0.00    +0.000 OA
ENDBRANCH   3  15
ENDBRANCH   2  13
ENDBRANCH   1   2
BRANCH   1  16
ATOM     16  C   UNL     1       8.382   8.469  18.207  0.00  0.00    +0.000 C 
BRANCH  16  17
ATOM     17  C   UNL     1       7.096   8.042  17.500  0.00  0.00    +0.000 C 
BRANCH  17  18
ATOM     18  N   UNL     1       7.157   6.682  16.945  0.00  0.00    +0.000 NA
ATOM     19  C   UNL     1       7.338   5.697  18.047  0.00  0.00    +0.000 C 
ATOM     20  C   UNL     1       6.105   5.491  18.971  0.00  0.00    +0.000 C 
ATOM     21  N   UNL     1       4.903   5.242  18.161  0.00  0.00    +0.000 N 
ATOM     22  C   UNL     1       4.668   6.191  17.067  0.00  0.00    +0.000 C 
ATOM     23  C   UNL     1       5.936   6.296  16.196  0.00  0.00    +0.000 C 
BRANCH  21  24
ATOM     24  C   UNL     1       4.000   4.246  18.460  0.00  0.00    +0.000 A 
ATOM     25  C   UNL     1       3.523   3.383  17.458  0.00  0.00    +0.000 A 
ATOM     26  C   UNL     1       2.605   2.366  17.732  0.00  0.00    +0.000 A 
ATOM     27  C   UNL     1       2.140   2.188  19.030  0.00  0.00    +0.000 A 
ATOM     28  C   UNL     1       2.609   3.021  20.040  0.00  0.00    +0.000 A 
ATOM     29 CL   UNL     1       2.037   2.806  21.650  0.00  0.00    +0.000 Cl
ATOM     30  C   UNL     1       3.531   4.034  19.761  0.00  0.00    +0.000 A 
ENDBRANCH  21  24
ENDBRANCH  17  18
ENDBRANCH  16  17
ENDBRANCH   1  16
TORSDOF 7
ENDMDL
MODEL 3
REMARK VINA RESULT:      -8.0      6.689      8.258
REMARK  Name = 
REMARK  8 active torsions:
REMARK  status: ('A' for Active; 'I' for Inactive)
REMARK    1  A    between atoms: C_1  and  O_2
REMARK    2  A    between atoms: O_2  and  C_3
REMARK    3  A    between atoms: N_13  and  C_14
REMARK    4  A    between atoms: C_14  and  C_15
REMARK    5  A    between atoms: C_15  and  C_16
REMARK    6  A    between atoms: C_16  and  C_17
REMARK    7  A    between atoms: C_17  and  N_18
REMARK    8  A    between atoms: N_21  and  C_22
REMARK                            x       y       z     vdW  Elec       q    Type
REMARK                         _______ _______ _______ _____ _____    ______ ____
ROOT
ATOM      1  C   UNL     1       1.274   5.749  20.229  0.00  0.00    +0.000 C 
ENDROOT
BRANCH   1   2
ATOM      2  C   UNL     1       2.114   6.952  20.655  0.00  0.00    +0.000 C 
BRANCH   2  13
ATOM      3  C   UNL     1      -0.693  10.999  20.854  0.00  0.00    +0.000 A 
ATOM      4  C   UNL     1      -0.805  10.869  22.240  0.00  0.00    +0.000 A 
ATOM      5  C   UNL     1      -0.090   9.883  22.911  0.00  0.00    +0.000 A 
ATOM      6  C   UNL     1       0.716   9.001  22.196  0.00  0.00    +0.000 A 
ATOM      7  C   UNL     1       0.833   9.099  20.803  0.00  0.00    +0.000 A 
ATOM      8  C   UNL     1       0.136  10.121  20.131  0.00  0.00    +0.000 A 
ATOM      9  C   UNL     1       0.235  10.188  18.630  0.00  0.00    +0.000 C 
ATOM     10  C   UNL     1       1.623   9.787  18.182  0.00  0.00    +0.000 C 
ATOM     11  C   UNL     1       1.988   8.427  18.721  0.00  0.00    +0.000 C 
ATOM     12  O   UNL     1       2.663   7.650  18.043  0.00  0.00    +0.000 OA
ATOM     13  N   UNL     1       1.625   8.181  20.044  0.00  0.00    +0.000 N 
BRANCH   3  15
ATOM     14  C   UNL     1      -1.086  13.284  20.391  0.00  0.00    +0.000 C 
ATOM     15  O   UNL     1      -1.401  11.921  20.127  0.00  0.00    +0.000 OA
ENDBRANCH   3  15
ENDBRANCH   2  13
ENDBRANCH   1   2
BRANCH   1  16
ATOM     16  C   UNL     1       1.654   4.518  21.042  0.00  0.00    +0.000 C 
BRANCH  16  17
ATOM     17  C   UNL     1       1.332   3.249  20.255  0.00  0.00    +0.000 C 
BRANCH  17  18
ATOM     18  N   UNL     1       2.505   2.396  20.013  0.00  0.00    +0.000 NA
ATOM     19  C   UNL     1       2.518   1.949  18.593  0.00  0.00    +0.000 C 
ATOM     20  C   UNL     1       2.840   3.051  17.545  0.00  0.00    +0.000 C 
ATOM     21  N   UNL     1       4.057   3.778  17.936  0.00  0.00    +0.000 N 
ATOM     22  C   UNL     1       4.094   4.255  19.324  0.00  0.00    +0.000 C 
ATOM     23  C   UNL     1       3.795   3.081  20.278  0.00  0.00    +0.000 C 
BRANCH  21  24
ATOM     24  C   UNL     1       5.060   4.082  17.041  0.00  0.00    +0.000 A 
ATOM     25  C   UNL     1       6.278   4.626  17.484  0.00  0.00    +0.000 A 
ATOM     26  C   UNL     1       7.311   4.947  16.600  0.00  0.00    +0.000 A 
ATOM     27  C   UNL     1       7.146   4.725  15.237  0.00  0.00    +0.000 A 
ATOM     28  C   UNL     1       5.954   4.174  14.778  0.00  0.00    +0.000 A 
ATOM     29 CL   UNL     1       5.742   3.897  13.092  0.00  0.00    +0.000 Cl
ATOM     30  C   UNL     1       4.926   3.852  15.668  0.00  0.00    +0.000 A 
ENDBRANCH  21  24
ENDBRANCH  17  18
ENDBRANCH  16  17
ENDBRANCH   1  16
TORSDOF 7
ENDMDL
MODEL 4
REMARK VINA RESULT:      -7.8      6.705      8.330
REMARK  Name = 
REMARK  8 active torsions:
REMARK  status: ('A' for Active; 'I' for Inactive)
REMARK    1  A    between atoms: C_1  and  O_2
REMARK    2  A    between atoms: O_2  and  C_3
REMARK    3  A    between atoms: N_13  and  C_14
REMARK    4  A    between atoms: C_14  and  C_15
REMARK    5  A    between atoms: C_15  and  C_16
REMARK    6  A    between atoms: C_16  and  C_17
REMARK    7  A    between atoms: C_17  and  N_18
REMARK    8  A    between atoms: N_21  and  C_22
REMARK                            x       y       z     vdW  Elec       q    Type
REMARK                         _______ _______ _______ _____ _____    ______ ____
ROOT
ATOM      1  C   UNL     1       1.697   6.155  19.352  0.00  0.00    +0.000 C 
ENDROOT
BRANCH   1   2
ATOM      2  C   UNL     1       2.466   7.403  19.784  0.00  0.00    +0.000 C 
BRANCH   2  13
ATOM      3  C   UNL     1      -0.795  10.729  21.398  0.00  0.00    +0.000 A 
ATOM      4  C   UNL     1      -0.581  10.319  22.715  0.00  0.00    +0.000 A 
ATOM      5  C   UNL     1       0.401   9.377  23.006  0.00  0.00    +0.000 A 
ATOM      6  C   UNL     1       1.152   8.817  21.975  0.00  0.00    +0.000 A 
ATOM      7  C   UNL     1       0.946   9.199  20.642  0.00  0.00    +0.000 A 
ATOM      8  C   UNL     1      -0.024  10.178  20.357  0.00  0.00    +0.000 A 
ATOM      9  C   UNL     1      -0.266  10.548  18.917  0.00  0.00    +0.000 C 
ATOM     10  C   UNL     1       1.035  10.511  18.145  0.00  0.00    +0.000 C 
ATOM     11  C   UNL     1       1.705   9.168  18.288  0.00  0.00    +0.000 C 
ATOM     12  O   UNL     1       2.323   8.677  17.342  0.00  0.00    +0.000 OA
ATOM     13  N   UNL     1       1.680   8.610  19.565  0.00  0.00    +0.000 N 
BRANCH   3  15
ATOM     14  C   UNL     1      -2.375  12.337  22.111  0.00  0.00    +0.000 C 
ATOM     15  O   UNL     1      -1.773  11.621  21.038  0.00  0.00    +0.000 OA
ENDBRANCH   3  15
ENDBRANCH   2  13
ENDBRANCH   1   2
BRANCH   1  16
ATOM     16  C   UNL     1       2.561   4.912  19.521  0.00  0.00    +0.000 C 
BRANCH  16  17
ATOM     17  C   UNL     1       4.038   5.274  19.368  0.00  0.00    +0.000 C 
BRANCH  17  18
ATOM     18  N   UNL     1       4.876   4.143  18.943  0.00  0.00    +0.000 NA
ATOM     19  C   UNL     1       4.203   3.403  17.841  0.00  0.00    +0.000 C 
ATOM     20  C   UNL     1       4.141   4.144  16.475  0.00  0.00    +0.000 C 
ATOM     21  N   UNL     1       5.476   4.640  16.110  0.00  0.00    +0.000 N 
ATOM     22  C   UNL     1       6.183   5.389  17.156  0.00  0.00    +0.000 C 
ATOM     23  C   UNL     1       6.215   4.554  18.452  0.00  0.00    +0.000 C 
BRANCH  21  24
ATOM     24  C   UNL     1       5.999   4.501  14.843  0.00  0.00    +0.000 A 
ATOM     25  C   UNL     1       7.127   5.239  14.445  0.00  0.00    +0.000 A 
ATOM     26  C   UNL     1       7.677   5.121  13.166  0.00  0.00    +0.000 A 
ATOM     27  C   UNL     1       7.102   4.250  12.247  0.00  0.00    +0.000 A 
ATOM     28  C   UNL     1       5.993   3.499  12.623  0.00  0.00    +0.000 A 
ATOM     29 CL   UNL     1       5.277   2.419  11.491  0.00  0.00    +0.000 Cl
ATOM     30  C   UNL     1       5.451   3.619  13.906  0.00  0.00    +0.000 A 
ENDBRANCH  21  24
ENDBRANCH  17  18
ENDBRANCH  16  17
ENDBRANCH   1  16
TORSDOF 7
ENDMDL
MODEL 5
REMARK VINA RESULT:      -7.7      6.669      8.298
REMARK  Name = 
REMARK  8 active torsions:
REMARK  status: ('A' for Active; 'I' for Inactive)
REMARK    1  A    between atoms: C_1  and  O_2
REMARK    2  A    between atoms: O_2  and  C_3
REMARK    3  A    between atoms: N_13  and  C_14
REMARK    4  A    between atoms: C_14  and  C_15
REMARK    5  A    between atoms: C_15  and  C_16
REMARK    6  A    between atoms: C_16  and  C_17
REMARK    7  A    between atoms: C_17  and  N_18
REMARK    8  A    between atoms: N_21  and  C_22
REMARK                            x       y       z     vdW  Elec       q    Type
REMARK                         _______ _______ _______ _____ _____    ______ ____
ROOT
ATOM      1  C   UNL     1       1.460   6.533  20.897  0.00  0.00    +0.000 C 
ENDROOT
BRANCH   1   2
ATOM      2  C   UNL     1       2.185   7.391  19.862  0.00  0.00    +0.000 C 
BRANCH   2  13
ATOM      3  C   UNL     1      -0.813  10.941  21.506  0.00  0.00    +0.000 A 
ATOM      4  C   UNL     1      -0.654  10.486  22.817  0.00  0.00    +0.000 A 
ATOM      5  C   UNL     1       0.242   9.460  23.099  0.00  0.00    +0.000 A 
ATOM      6  C   UNL     1       0.960   8.862  22.066  0.00  0.00    +0.000 A 
ATOM      7  C   UNL     1       0.807   9.288  20.740  0.00  0.00    +0.000 A 
ATOM      8  C   UNL     1      -0.074  10.351  20.464  0.00  0.00    +0.000 A 
ATOM      9  C   UNL     1      -0.262  10.770  19.029  0.00  0.00    +0.000 C 
ATOM     10  C   UNL     1       1.042  10.641  18.274  0.00  0.00    +0.000 C 
ATOM     11  C   UNL     1       1.597   9.244  18.396  0.00  0.00    +0.000 C 
ATOM     12  O   UNL     1       2.186   8.724  17.447  0.00  0.00    +0.000 OA
ATOM     13  N   UNL     1       1.505   8.663  19.660  0.00  0.00    +0.000 N 
BRANCH   3  15
ATOM     14  C   UNL     1      -1.894  12.954  22.113  0.00  0.00    +0.000 C 
ATOM     15  O   UNL     1      -1.707  11.919  21.153  0.00  0.00    +0.000 OA
ENDBRANCH   3  15
ENDBRANCH   2  13
ENDBRANCH   1   2
BRANCH   1  16
ATOM     16  C   UNL     1       1.359   5.089  20.418  0.00  0.00    +0.000 C 
BRANCH  16  17
ATOM     17  C   UNL     1       2.670   4.353  20.691  0.00  0.00    +0.000 C 
BRANCH  17  18
ATOM     18  N   UNL     1       2.930   3.253  19.752  0.00  0.00    +0.000 NA
ATOM     19  C   UNL     1       2.422   3.614  18.400  0.00  0.00    +0.000 C 
ATOM     20  C   UNL     1       3.223   4.718  17.655  0.00  0.00    +0.000 C 
ATOM     21  N   UNL     1       4.658   4.396  17.669  0.00  0.00    +0.000 N 
ATOM     22  C   UNL     1       5.217   4.044  18.980  0.00  0.00    +0.000 C 
ATOM     23  C   UNL     1       4.370   2.922  19.614  0.00  0.00    +0.000 C 
BRANCH  21  24
ATOM     24  C   UNL     1       5.455   4.508  16.551  0.00  0.00    +0.000 A 
ATOM     25  C   UNL     1       6.715   5.126  16.624  0.00  0.00    +0.000 A 
ATOM     26  C   UNL     1       7.543   5.257  15.506  0.00  0.00    +0.000 A 
ATOM     27  C   UNL     1       7.123   4.763  14.276  0.00  0.00    +0.000 A 
ATOM     28  C   UNL     1       5.885   4.135  14.183  0.00  0.00    +0.000 A 
ATOM     29 CL   UNL     1       5.359   3.521  12.663  0.00  0.00    +0.000 Cl
ATOM     30  C   UNL     1       5.064   4.004  15.306  0.00  0.00    +0.000 A 
ENDBRANCH  21  24
ENDBRANCH  17  18
ENDBRANCH  16  17
ENDBRANCH   1  16
TORSDOF 7
ENDMDL
MODEL 6
REMARK VINA RESULT:      -7.6      1.759      1.875
REMARK  Name = 
REMARK  8 active torsions:
REMARK  status: ('A' for Active; 'I' for Inactive)
REMARK    1  A    between atoms: C_1  and  O_2
REMARK    2  A    between atoms: O_2  and  C_3
REMARK    3  A    between atoms: N_13  and  C_14
REMARK    4  A    between atoms: C_14  and  C_15
REMARK    5  A    between atoms: C_15  and  C_16
REMARK    6  A    between atoms: C_16  and  C_17
REMARK    7  A    between atoms: C_17  and  N_18
REMARK    8  A    between atoms: N_21  and  C_22
REMARK                            x       y       z     vdW  Elec       q    Type
REMARK                         _______ _______ _______ _____ _____    ______ ____
ROOT
ATOM      1  C   UNL     1       8.646   9.814  19.000  0.00  0.00    +0.000 C 
ENDROOT
BRANCH   1   2
ATOM      2  C   UNL     1      10.062  10.341  19.228  0.00  0.00    +0.000 C 
BRANCH   2  13
ATOM      3  C   UNL     1      11.232  15.064  18.444  0.00  0.00    +0.000 A 
ATOM      4  C   UNL     1      11.452  14.799  17.091  0.00  0.00    +0.000 A 
ATOM      5  C   UNL     1      11.174  13.540  16.569  0.00  0.00    +0.000 A 
ATOM      6  C   UNL     1      10.704  12.531  17.406  0.00  0.00    +0.000 A 
ATOM      7  C   UNL     1      10.490  12.765  18.771  0.00  0.00    +0.000 A 
ATOM      8  C   UNL     1      10.739  14.051  19.287  0.00  0.00    +0.000 A 
ATOM      9  C   UNL     1      10.548  14.278  20.764  0.00  0.00    +0.000 C 
ATOM     10  C   UNL     1       9.376  13.464  21.268  0.00  0.00    +0.000 C 
ATOM     11  C   UNL     1       9.552  12.006  20.930  0.00  0.00    +0.000 C 
ATOM     12  O   UNL     1       9.169  11.135  21.713  0.00  0.00    +0.000 OA
ATOM     13  N   UNL     1      10.045  11.733  19.655  0.00  0.00    +0.000 N 
BRANCH   3  15
ATOM     14  C   UNL     1      10.957  17.412  18.399  0.00  0.00    +0.000 C 
ATOM     15  O   UNL     1      11.524  16.269  19.031  0.00  0.00    +0.000 OA
ENDBRANCH   3  15
ENDBRANCH   2  13
ENDBRANCH   1   2
BRANCH   1  16
ATOM     16  C   UNL     1       8.597   8.938  17.754  0.00  0.00    +0.000 C 
BRANCH  16  17
ATOM     17  C   UNL     1       7.286   8.152  17.716  0.00  0.00    +0.000 C 
BRANCH  17  18
ATOM     18  N   UNL     1       7.429   6.803  17.149  0.00  0.00    +0.000 NA
ATOM     19  C   UNL     1       7.600   5.812  18.246  0.00  0.00    +0.000 C 
ATOM     20  C   UNL     1       6.336   5.543  19.111  0.00  0.00    +0.000 C 
ATOM     21  N   UNL     1       5.184   5.256  18.244  0.00  0.00    +0.000 N 
ATOM     22  C   UNL     1       4.959   6.210  17.150  0.00  0.00    +0.000 C 
ATOM     23  C   UNL     1       6.260   6.378  16.340  0.00  0.00    +0.000 C 
BRANCH  21  24
ATOM     24  C   UNL     1       4.310   4.220  18.489  0.00  0.00    +0.000 A 
ATOM     25  C   UNL     1       4.054   3.247  17.507  0.00  0.00    +0.000 A 
ATOM     26  C   UNL     1       3.171   2.187  17.727  0.00  0.00    +0.000 A 
ATOM     27  C   UNL     1       2.518   2.076  18.950  0.00  0.00    +0.000 A 
ATOM     28  C   UNL     1       2.766   3.020  19.941  0.00  0.00    +0.000 A 
ATOM     29 CL   UNL     1       1.961   2.890  21.457  0.00  0.00    +0.000 Cl
ATOM     30  C   UNL     1       3.654   4.076  19.716  0.00  0.00    +0.000 A 
ENDBRANCH  21  24
ENDBRANCH  17  18
ENDBRANCH  16  17
ENDBRANCH   1  16
TORSDOF 7
ENDMDL
MODEL 7
REMARK VINA RESULT:      -7.3      7.450     10.717
REMARK  Name = 
REMARK  8 active torsions:
REMARK  status: ('A' for Active; 'I' for Inactive)
REMARK    1  A    between atoms: C_1  and  O_2
REMARK    2  A    between atoms: O_2  and  C_3
REMARK    3  A    between atoms: N_13  and  C_14
REMARK    4  A    between atoms: C_14  and  C_15
REMARK    5  A    between atoms: C_15  and  C_16
REMARK    6  A    between atoms: C_16  and  C_17
REMARK    7  A    between atoms: C_17  and  N_18
REMARK    8  A    between atoms: N_21  and  C_22
REMARK                            x       y       z     vdW  Elec       q    Type
REMARK                         _______ _______ _______ _____ _____    ______ ____
ROOT
ATOM      1  C   UNL     1       1.838   7.875  17.964  0.00  0.00    +0.000 C 
ENDROOT
BRANCH   1   2
ATOM      2  C   UNL     1       2.648   7.077  18.984  0.00  0.00    +0.000 C 
BRANCH   2  13
ATOM      3  C   UNL     1       5.858   4.672  16.120  0.00  0.00    +0.000 A 
ATOM      4  C   UNL     1       6.724   5.768  16.147  0.00  0.00    +0.000 A 
ATOM      5  C   UNL     1       6.435   6.869  16.947  0.00  0.00    +0.000 A 
ATOM      6  C   UNL     1       5.263   6.893  17.698  0.00  0.00    +0.000 A 
ATOM      7  C   UNL     1       4.369   5.813  17.676  0.00  0.00    +0.000 A 
ATOM      8  C   UNL     1       4.683   4.686  16.893  0.00  0.00    +0.000 A 
ATOM      9  C   UNL     1       3.693   3.552  16.843  0.00  0.00    +0.000 C 
ATOM     10  C   UNL     1       3.023   3.387  18.189  0.00  0.00    +0.000 C 
ATOM     11  C   UNL     1       2.391   4.680  18.636  0.00  0.00    +0.000 C 
ATOM     12  O   UNL     1       1.327   4.671  19.259  0.00  0.00    +0.000 OA
ATOM     13  N   UNL     1       3.142   5.833  18.410  0.00  0.00    +0.000 N 
BRANCH   3  15
ATOM     14  C   UNL     1       6.211   3.844  13.933  0.00  0.00    +0.000 C 
ATOM     15  O   UNL     1       6.061   3.574  15.323  0.00  0.00    +0.000 OA
ENDBRANCH   3  15
ENDBRANCH   2  13
ENDBRANCH   1   2
BRANCH   1  16
ATOM     16  C   UNL     1       2.047   9.370  18.168  0.00  0.00    +0.000 C 
BRANCH  16  17
ATOM     17  C   UNL     1       0.707  10.056  18.436  0.00  0.00    +0.000 C 
BRANCH  17  18
ATOM     18  N   UNL     1       0.844  11.431  18.938  0.00  0.00    +0.000 NA
ATOM     19  C   UNL     1      -0.337  12.238  18.526  0.00  0.00    +0.000 C 
ATOM     20  C   UNL     1      -1.672  11.885  19.241  0.00  0.00    +0.000 C 
ATOM     21  N   UNL     1      -1.471  11.852  20.697  0.00  0.00    +0.000 N 
ATOM     22  C   UNL     1      -0.326  11.060  21.162  0.00  0.00    +0.000 C 
ATOM     23  C   UNL     1       0.947  11.511  20.416  0.00  0.00    +0.000 C 
BRANCH  21  24
ATOM     24  C   UNL     1      -2.348  12.441  21.581  0.00  0.00    +0.000 A 
ATOM     25  C   UNL     1      -2.446  11.987  22.908  0.00  0.00    +0.000 A 
ATOM     26  C   UNL     1      -3.329  12.563  23.825  0.00  0.00    +0.000 A 
ATOM     27  C   UNL     1      -4.140  13.620  23.429  0.00  0.00    +0.000 A 
ATOM     28  C   UNL     1      -4.051  14.096  22.126  0.00  0.00    +0.000 A 
ATOM     29 CL   UNL     1      -5.053  15.404  21.629  0.00  0.00    +0.000 Cl
ATOM     30  C   UNL     1      -3.163  13.518  21.214  0.00  0.00    +0.000 A 
ENDBRANCH  21  24
ENDBRANCH  17  18
ENDBRANCH  16  17
ENDBRANCH   1  16
TORSDOF 7
ENDMDL
MODEL 8
REMARK VINA RESULT:      -7.3      7.296     10.514
REMARK  Name = 
REMARK  8 active torsions:
REMARK  status: ('A' for Active; 'I' for Inactive)
REMARK    1  A    between atoms: C_1  and  O_2
REMARK    2  A    between atoms: O_2  and  C_3
REMARK    3  A    between atoms: N_13  and  C_14
REMARK    4  A    between atoms: C_14  and  C_15
REMARK    5  A    between atoms: C_15  and  C_16
REMARK    6  A    between atoms: C_16  and  C_17
REMARK    7  A    between atoms: C_17  and  N_18
REMARK    8  A    between atoms: N_21  and  C_22
REMARK                            x       y       z     vdW  Elec       q    Type
REMARK                         _______ _______ _______ _____ _____    ______ ____
ROOT
ATOM      1  C   UNL     1       1.841   7.853  18.060  0.00  0.00    +0.000 C 
ENDROOT
BRANCH   1   2
ATOM      2  C   UNL     1       2.744   7.094  19.031  0.00  0.00    +0.000 C 
BRANCH   2  13
ATOM      3  C   UNL     1       5.905   4.657  16.138  0.00  0.00    +0.000 A 
ATOM      4  C   UNL     1       6.788   5.739  16.169  0.00  0.00    +0.000 A 
ATOM      5  C   UNL     1       6.520   6.839  16.977  0.00  0.00    +0.000 A 
ATOM      6  C   UNL     1       5.351   6.876  17.733  0.00  0.00    +0.000 A 
ATOM      7  C   UNL     1       4.441   5.811  17.708  0.00  0.00    +0.000 A 
ATOM      8  C   UNL     1       4.733   4.685  16.916  0.00  0.00    +0.000 A 
ATOM      9  C   UNL     1       3.725   3.567  16.863  0.00  0.00    +0.000 C 
ATOM     10  C   UNL     1       3.058   3.403  18.211  0.00  0.00    +0.000 C 
ATOM     11  C   UNL     1       2.448   4.704  18.668  0.00  0.00    +0.000 C 
ATOM     12  O   UNL     1       1.387   4.707  19.295  0.00  0.00    +0.000 OA
ATOM     13  N   UNL     1       3.216   5.845  18.446  0.00  0.00    +0.000 N 
BRANCH   3  15
ATOM     14  C   UNL     1       6.208   3.835  13.942  0.00  0.00    +0.000 C 
ATOM     15  O   UNL     1       6.088   3.562  15.334  0.00  0.00    +0.000 OA
ENDBRANCH   3  15
ENDBRANCH   2  13
ENDBRANCH   1   2
BRANCH   1  16
ATOM     16  C   UNL     1       2.344   9.278  17.867  0.00  0.00    +0.000 C 
BRANCH  16  17
ATOM     17  C   UNL     1       1.395  10.266  18.545  0.00  0.00    +0.000 C 
BRANCH  17  18
ATOM     18  N   UNL     1       0.157   9.644  19.037  0.00  0.00    +0.000 NA
ATOM     19  C   UNL     1       0.063   9.809  20.513  0.00  0.00    +0.000 C 
ATOM     20  C   UNL     1      -0.217  11.255  21.011  0.00  0.00    +0.000 C 
ATOM     21  N   UNL     1      -1.365  11.823  20.289  0.00  0.00    +0.000 N 
ATOM     22  C   UNL     1      -1.320  11.700  18.827  0.00  0.00    +0.000 C 
ATOM     23  C   UNL     1      -1.071  10.227  18.443  0.00  0.00    +0.000 C 
BRANCH  21  24
ATOM     24  C   UNL     1      -2.375  12.512  20.925  0.00  0.00    +0.000 A 
ATOM     25  C   UNL     1      -3.577  12.805  20.257  0.00  0.00    +0.000 A 
ATOM     26  C   UNL     1      -4.616  13.505  20.876  0.00  0.00    +0.000 A 
ATOM     27  C   UNL     1      -4.473  13.929  22.193  0.00  0.00    +0.000 A 
ATOM     28  C   UNL     1      -3.298  13.637  22.877  0.00  0.00    +0.000 A 
ATOM     29 CL   UNL     1      -3.115  14.159  24.507  0.00  0.00    +0.000 Cl
ATOM     30  C   UNL     1      -2.264  12.934  22.254  0.00  0.00    +0.000 A 
ENDBRANCH  21  24
ENDBRANCH  17  18
ENDBRANCH  16  17
ENDBRANCH   1  16
TORSDOF 7
ENDMDL
MODEL 9
REMARK VINA RESULT:      -7.3      4.345     10.463
REMARK  Name = 
REMARK  8 active torsions:
REMARK  status: ('A' for Active; 'I' for Inactive)
REMARK    1  A    between atoms: C_1  and  O_2
REMARK    2  A    between atoms: O_2  and  C_3
REMARK    3  A    between atoms: N_13  and  C_14
REMARK    4  A    between atoms: C_14  and  C_15
REMARK    5  A    between atoms: C_15  and  C_16
REMARK    6  A    between atoms: C_16  and  C_17
REMARK    7  A    between atoms: C_17  and  N_18
REMARK    8  A    between atoms: N_21  and  C_22
REMARK                            x       y       z     vdW  Elec       q    Type
REMARK                         _______ _______ _______ _____ _____    ______ ____
ROOT
ATOM      1  C   UNL     1       7.842   7.817  18.026  0.00  0.00    +0.000 C 
ENDROOT
BRANCH   1   2
ATOM      2  C   UNL     1       7.213   7.136  16.812  0.00  0.00    +0.000 C 
BRANCH   2  13
ATOM      3  C   UNL     1       2.855   5.716  18.626  0.00  0.00    +0.000 A 
ATOM      4  C   UNL     1       2.318   6.977  18.356  0.00  0.00    +0.000 A 
ATOM      5  C   UNL     1       3.071   7.929  17.677  0.00  0.00    +0.000 A 
ATOM      6  C   UNL     1       4.377   7.636  17.293  0.00  0.00    +0.000 A 
ATOM      7  C   UNL     1       4.946   6.385  17.566  0.00  0.00    +0.000 A 
ATOM      8  C   UNL     1       4.169   5.412  18.222  0.00  0.00    +0.000 A 
ATOM      9  C   UNL     1       4.807   4.087  18.549  0.00  0.00    +0.000 C 
ATOM     10  C   UNL     1       5.767   3.687  17.450  0.00  0.00    +0.000 C 
ATOM     11  C   UNL     1       6.786   4.771  17.209  0.00  0.00    +0.000 C 
ATOM     12  O   UNL     1       7.948   4.479  16.917  0.00  0.00    +0.000 OA
ATOM     13  N   UNL     1       6.298   6.077  17.215  0.00  0.00    +0.000 N 
BRANCH   3  15
ATOM     14  C   UNL     1       1.856   5.079  20.672  0.00  0.00    +0.000 C 
ATOM     15  O   UNL     1       2.184   4.747  19.327  0.00  0.00    +0.000 OA
ENDBRANCH   3  15
ENDBRANCH   2  13
ENDBRANCH   1   2
BRANCH   1  16
ATOM     16  C   UNL     1       7.966   9.317  17.792  0.00  0.00    +0.000 C 
BRANCH  16  17
ATOM     17  C   UNL     1       9.034   9.906  18.713  0.00  0.00    +0.000 C 
BRANCH  17  18
ATOM     18  N   UNL     1       9.855  10.942  18.069  0.00  0.00    +0.000 NA
ATOM     19  C   UNL     1       9.084  12.212  17.980  0.00  0.00    +0.000 C 
ATOM     20  C   UNL     1       8.842  12.945  19.330  0.00  0.00    +0.000 C 
ATOM     21  N   UNL     1      10.110  13.085  20.062  0.00  0.00    +0.000 N 
ATOM     22  C   UNL     1      10.907  11.859  20.191  0.00  0.00    +0.000 C 
ATOM     23  C   UNL     1      11.114  11.233  18.797  0.00  0.00    +0.000 C 
BRANCH  21  24
ATOM     24  C   UNL     1      10.488  14.260  20.674  0.00  0.00    +0.000 A 
ATOM     25  C   UNL     1      11.352  15.161  20.028  0.00  0.00    +0.000 A 
ATOM     26  C   UNL     1      11.755  16.359  20.625  0.00  0.00    +0.000 A 
ATOM     27  C   UNL     1      11.294  16.684  21.896  0.00  0.00    +0.000 A 
ATOM     28  C   UNL     1      10.427  15.814  22.548  0.00  0.00    +0.000 A 
ATOM     29 CL   UNL     1       9.853  16.210  24.122  0.00  0.00    +0.000 Cl
ATOM     30  C   UNL     1      10.025  14.620  21.944  0.00  0.00    +0.000 A 
ENDBRANCH  21  24
ENDBRANCH  17  18
ENDBRANCH  16  17
ENDBRANCH   1  16
TORSDOF 7
ENDMDL
