MODEL 1
REMARK VINA RESULT:      -8.0      0.000      0.000
REMARK  Name = 
REMARK  10 active torsions:
REMARK  status: ('A' for Active; 'I' for Inactive)
REMARK    1  A    between atoms: C_1  and  O_2
REMARK    2  A    between atoms: O_2  and  C_3
REMARK    3  A    between atoms: C_3  and  C_4
REMARK    4  A    between atoms: C_4  and  N_5
REMARK    5  A    between atoms: C_6  and  C_8
REMARK    6  A    between atoms: C_8  and  N_9
REMARK    7  A    between atoms: C_12  and  C_13
REMARK    8  A    between atoms: C_14  and  C_15
REMARK    9  A    between atoms: C_15  and  O_16
REMARK   10  A    between atoms: O_16  and  C_17
REMARK                            x       y       z     vdW  Elec       q    Type
REMARK                         _______ _______ _______ _____ _____    ______ ____
ROOT
ATOM      1  N   UNL     1       6.733   5.326  16.092  0.00  0.00    +0.000 N 
ATOM      2  N   UNL     1       7.582   4.284  16.204  0.00  0.00    +0.000 NA
ATOM      3  N   UNL     1       8.096   4.316  17.431  0.00  0.00    +0.000 NA
ATOM      4  C   UNL     1       7.527   5.355  18.101  0.00  0.00    +0.000 A 
ATOM      5  C   UNL     1       7.911   5.683  19.493  0.00  0.00    +0.000 C 
ATOM      6  C   UNL     1       6.633   6.013  17.280  0.00  0.00    +0.000 A 
ENDROOT
BRANCH   1   7
ATOM      7  C   UNL     1       6.077   5.540  14.817  0.00  0.00    +0.000 C 
BRANCH   7   9
ATOM      8  N   UNL     1       6.090   3.530  13.323  0.00  0.00    +0.000 N 
ATOM      9  C   UNL     1       6.645   4.751  13.645  0.00  0.00    +0.000 C 
ATOM     10  O   UNL     1       7.603   5.207  13.013  0.00  0.00    +0.000 OA
ATOM     11  H   UNL     1       5.098   3.412  13.540  0.00  0.00    +0.000 HD
BRANCH   8  12
ATOM     12  C   UNL     1       6.558   2.819  12.137  0.00  0.00    +0.000 C 
BRANCH  12  13
ATOM     13  C   UNL     1       5.426   2.245  11.285  0.00  0.00    +0.000 C 
BRANCH  13  15
ATOM     14  C   UNL     1       3.643   3.570  10.463  0.00  0.00    +0.000 C 
ATOM     15  O   UNL     1       4.224   2.949  11.601  0.00  0.00    +0.000 OA
ENDBRANCH  13  15
ENDBRANCH  12  13
ENDBRANCH   8  12
ENDBRANCH   7   9
ENDBRANCH   1   7
BRANCH   6  16
ATOM     16  C   UNL     1       5.831   7.226  17.566  0.00  0.00    +0.000 C 
BRANCH  16  17
ATOM     17  O   UNL     1       4.495   6.986  17.123  0.00  0.00    +0.000 OA
BRANCH  17  18
ATOM     18  C   UNL     1       3.697   6.301  18.009  0.00  0.00    +0.000 A 
ATOM     19  C   UNL     1       3.142   6.830  19.175  0.00  0.00    +0.000 A 
ATOM     20  C   UNL     1       2.277   6.064  19.962  0.00  0.00    +0.000 A 
ATOM     21  C   UNL     1       1.920   4.766  19.576  0.00  0.00    +0.000 A 
ATOM     22  C   UNL     1       0.990   4.016  20.313  0.00  0.00    +0.000 A 
ATOM     23  C   UNL     1       0.574   2.763  19.863  0.00  0.00    +0.000 A 
ATOM     24  C   UNL     1       1.097   2.240  18.684  0.00  0.00    +0.000 A 
ATOM     25  C   UNL     1       2.059   2.954  17.967  0.00  0.00    +0.000 A 
ATOM     26  C   UNL     1       2.480   4.222  18.398  0.00  0.00    +0.000 A 
ATOM     27  C   UNL     1       3.404   4.982  17.655  0.00  0.00    +0.000 A 
ENDBRANCH  17  18
ENDBRANCH  16  17
ENDBRANCH   6  16
TORSDOF 8
ENDMDL
MODEL 2
REMARK VINA RESULT:      -7.7      3.069      5.555
REMARK  Name = 
REMARK  10 active torsions:
REMARK  status: ('A' for Active; 'I' for Inactive)
REMARK    1  A    between atoms: C_1  and  O_2
REMARK    2  A    between atoms: O_2  and  C_3
REMARK    3  A    between atoms: C_3  and  C_4
REMARK    4  A    between atoms: C_4  and  N_5
REMARK    5  A    between atoms: C_6  and  C_8
REMARK    6  A    between atoms: C_8  and  N_9
REMARK    7  A    between atoms: C_12  and  C_13
REMARK    8  A    between atoms: C_14  and  C_15
REMARK    9  A    between atoms: C_15  and  O_16
REMARK   10  A    between atoms: O_16  and  C_17
REMARK                            x       y       z     vdW  Elec       q    Type
REMARK                         _______ _______ _______ _____ _____    ______ ____
ROOT
ATOM      1  N   UNL     1       5.575   4.715  16.784  0.00  0.00    +0.000 N 
ATOM      2  N   UNL     1       6.835   4.245  16.683  0.00  0.00    +0.000 NA
ATOM      3  N   UNL     1       7.661   5.258  16.933  0.00  0.00    +0.000 NA
ATOM      4  C   UNL     1       6.910   6.350  17.241  0.00  0.00    +0.000 A 
ATOM      5  C   UNL     1       7.532   7.660  17.543  0.00  0.00    +0.000 C 
ATOM      6  C   UNL     1       5.568   6.034  17.174  0.00  0.00    +0.000 A 
ENDROOT
BRANCH   1   7
ATOM      7  C   UNL     1       4.482   3.805  16.503  0.00  0.00    +0.000 C 
BRANCH   7   9
ATOM      8  N   UNL     1       4.615   3.117  18.908  0.00  0.00    +0.000 N 
ATOM      9  C   UNL     1       4.027   2.942  17.673  0.00  0.00    +0.000 C 
ATOM     10  O   UNL     1       3.152   2.089  17.494  0.00  0.00    +0.000 OA
ATOM     11  H   UNL     1       4.961   4.056  19.116  0.00  0.00    +0.000 HD
BRANCH   8  12
ATOM     12  C   UNL     1       4.110   2.371  20.056  0.00  0.00    +0.000 C 
BRANCH  12  13
ATOM     13  C   UNL     1       2.996   3.095  20.813  0.00  0.00    +0.000 C 
BRANCH  13  15
ATOM     14  C   UNL     1       0.824   3.265  19.884  0.00  0.00    +0.000 C 
ATOM     15  O   UNL     1       1.762   2.427  20.544  0.00  0.00    +0.000 OA
ENDBRANCH  13  15
ENDBRANCH  12  13
ENDBRANCH   8  12
ENDBRANCH   7   9
ENDBRANCH   1   7
BRANCH   6  16
ATOM     16  C   UNL     1       4.395   6.918  17.374  0.00  0.00    +0.000 C 
BRANCH  16  17
ATOM     17  O   UNL     1       3.457   6.228  18.201  0.00  0.00    +0.000 OA
BRANCH  17  18
ATOM     18  C   UNL     1       2.607   7.033  18.922  0.00  0.00    +0.000 A 
ATOM     19  C   UNL     1       2.158   6.781  20.219  0.00  0.00    +0.000 A 
ATOM     20  C   UNL     1       1.357   7.711  20.888  0.00  0.00    +0.000 A 
ATOM     21  C   UNL     1       1.022   8.930  20.285  0.00  0.00    +0.000 A 
ATOM     22  C   UNL     1       0.288   9.907  20.975  0.00  0.00    +0.000 A 
ATOM     23  C   UNL     1       0.045  11.152  20.396  0.00  0.00    +0.000 A 
ATOM     24  C   UNL     1       0.517  11.426  19.116  0.00  0.00    +0.000 A 
ATOM     25  C   UNL     1       1.206  10.446  18.399  0.00  0.00    +0.000 A 
ATOM     26  C   UNL     1       1.471   9.192  18.971  0.00  0.00    +0.000 A 
ATOM     27  C   UNL     1       2.217   8.215  18.286  0.00  0.00    +0.000 A 
ENDBRANCH  17  18
ENDBRANCH  16  17
ENDBRANCH   6  16
TORSDOF 8
ENDMDL
MODEL 3
REMARK VINA RESULT:      -7.7      0.775      1.569
REMARK  Name = 
REMARK  10 active torsions:
REMARK  status: ('A' for Active; 'I' for Inactive)
REMARK    1  A    between atoms: C_1  and  O_2
REMARK    2  A    between atoms: O_2  and  C_3
REMARK    3  A    between atoms: C_3  and  C_4
REMARK    4  A    between atoms: C_4  and  N_5
REMARK    5  A    between atoms: C_6  and  C_8
REMARK    6  A    between atoms: C_8  and  N_9
REMARK    7  A    between atoms: C_12  and  C_13
REMARK    8  A    between atoms: C_14  and  C_15
REMARK    9  A    between atoms: C_15  and  O_16
REMARK   10  A    between atoms: O_16  and  C_17
REMARK                            x       y       z     vdW  Elec       q    Type
REMARK                         _______ _______ _______ _____ _____    ______ ____
ROOT
ATOM      1  N   UNL     1       6.724   5.329  16.134  0.00  0.00    +0.000 N 
ATOM      2  N   UNL     1       7.707   4.407  16.194  0.00  0.00    +0.000 NA
ATOM      3  N   UNL     1       8.148   4.373  17.449  0.00  0.00    +0.000 NA
ATOM      4  C   UNL     1       7.402   5.242  18.184  0.00  0.00    +0.000 A 
ATOM      5  C   UNL     1       7.664   5.464  19.624  0.00  0.00    +0.000 C 
ATOM      6  C   UNL     1       6.467   5.859  17.378  0.00  0.00    +0.000 A 
ENDROOT
BRANCH   1   7
ATOM      7  C   UNL     1       6.110   5.590  14.848  0.00  0.00    +0.000 C 
BRANCH   7   9
ATOM      8  N   UNL     1       6.103   3.511  13.451  0.00  0.00    +0.000 N 
ATOM      9  C   UNL     1       6.639   4.760  13.686  0.00  0.00    +0.000 C 
ATOM     10  O   UNL     1       7.550   5.209  12.983  0.00  0.00    +0.000 OA
ATOM     11  H   UNL     1       5.127   3.379  13.725  0.00  0.00    +0.000 HD
BRANCH   8  12
ATOM     12  C   UNL     1       6.528   2.756  12.277  0.00  0.00    +0.000 C 
BRANCH  12  13
ATOM     13  C   UNL     1       5.377   2.380  11.343  0.00  0.00    +0.000 C 
BRANCH  13  15
ATOM     14  C   UNL     1       3.434   3.407  10.461  0.00  0.00    +0.000 C 
ATOM     15  O   UNL     1       4.291   3.277  11.585  0.00  0.00    +0.000 OA
ENDBRANCH  13  15
ENDBRANCH  12  13
ENDBRANCH   8  12
ENDBRANCH   7   9
ENDBRANCH   1   7
BRANCH   6  16
ATOM     16  C   UNL     1       5.485   6.910  17.733  0.00  0.00    +0.000 C 
BRANCH  16  17
ATOM     17  O   UNL     1       4.244   6.587  17.104  0.00  0.00    +0.000 OA
BRANCH  17  18
ATOM     18  C   UNL     1       3.580   5.508  17.636  0.00  0.00    +0.000 A 
ATOM     19  C   UNL     1       3.329   4.305  16.975  0.00  0.00    +0.000 A 
ATOM     20  C   UNL     1       2.714   3.241  17.642  0.00  0.00    +0.000 A 
ATOM     21  C   UNL     1       2.374   3.348  18.996  0.00  0.00    +0.000 A 
ATOM     22  C   UNL     1       1.831   2.261  19.699  0.00  0.00    +0.000 A 
ATOM     23  C   UNL     1       1.587   2.353  21.069  0.00  0.00    +0.000 A 
ATOM     24  C   UNL     1       1.865   3.537  21.745  0.00  0.00    +0.000 A 
ATOM     25  C   UNL     1       2.359   4.642  21.049  0.00  0.00    +0.000 A 
ATOM     26  C   UNL     1       2.622   4.563  19.673  0.00  0.00    +0.000 A 
ATOM     27  C   UNL     1       3.178   5.647  18.967  0.00  0.00    +0.000 A 
ENDBRANCH  17  18
ENDBRANCH  16  17
ENDBRANCH   6  16
TORSDOF 8
ENDMDL
MODEL 4
REMARK VINA RESULT:      -7.6      3.269      5.234
REMARK  Name = 
REMARK  10 active torsions:
REMARK  status: ('A' for Active; 'I' for Inactive)
REMARK    1  A    between atoms: C_1  and  O_2
REMARK    2  A    between atoms: O_2  and  C_3
REMARK    3  A    between atoms: C_3  and  C_4
REMARK    4  A    between atoms: C_4  and  N_5
REMARK    5  A    between atoms: C_6  and  C_8
REMARK    6  A    between atoms: C_8  and  N_9
REMARK    7  A    between atoms: C_12  and  C_13
REMARK    8  A    between atoms: C_14  and  C_15
REMARK    9  A    between atoms: C_15  and  O_16
REMARK   10  A    between atoms: O_16  and  C_17
REMARK                            x       y       z     vdW  Elec       q    Type
REMARK                         _______ _______ _______ _____ _____    ______ ____
ROOT
ATOM      1  N   UNL     1       4.642   4.036  19.169  0.00  0.00    +0.000 N 
ATOM      2  N   UNL     1       4.836   2.751  19.535  0.00  0.00    +0.000 NA
ATOM      3  N   UNL     1       3.650   2.147  19.515  0.00  0.00    +0.000 NA
ATOM      4  C   UNL     1       2.723   3.047  19.087  0.00  0.00    +0.000 A 
ATOM      5  C   UNL     1       1.289   2.693  18.983  0.00  0.00    +0.000 C 
ATOM      6  C   UNL     1       3.326   4.263  18.838  0.00  0.00    +0.000 A 
ENDROOT
BRANCH   1   7
ATOM      7  C   UNL     1       5.787   4.924  19.162  0.00  0.00    +0.000 C 
BRANCH   7   9
ATOM      8  N   UNL     1       6.538   4.138  16.906  0.00  0.00    +0.000 N 
ATOM      9  C   UNL     1       6.411   5.183  17.797  0.00  0.00    +0.000 C 
ATOM     10  O   UNL     1       6.809   6.318  17.517  0.00  0.00    +0.000 OA
ATOM     11  H   UNL     1       5.839   3.395  16.977  0.00  0.00    +0.000 HD
BRANCH   8  12
ATOM     12  C   UNL     1       7.035   4.400  15.558  0.00  0.00    +0.000 C 
BRANCH  12  13
ATOM     13  C   UNL     1       5.948   4.335  14.484  0.00  0.00    +0.000 C 
BRANCH  13  15
ATOM     14  C   UNL     1       5.775   3.286  12.368  0.00  0.00    +0.000 C 
ATOM     15  O   UNL     1       6.576   4.086  13.225  0.00  0.00    +0.000 OA
ENDBRANCH  13  15
ENDBRANCH  12  13
ENDBRANCH   8  12
ENDBRANCH   7   9
ENDBRANCH   1   7
BRANCH   6  16
ATOM     16  C   UNL     1       2.702   5.538  18.412  0.00  0.00    +0.000 C 
BRANCH  16  17
ATOM     17  O   UNL     1       2.656   6.408  19.544  0.00  0.00    +0.000 OA
BRANCH  17  18
ATOM     18  C   UNL     1       2.105   7.646  19.310  0.00  0.00    +0.000 A 
ATOM     19  C   UNL     1       2.078   8.300  18.078  0.00  0.00    +0.000 A 
ATOM     20  C   UNL     1       1.418   9.524  17.938  0.00  0.00    +0.000 A 
ATOM     21  C   UNL     1       0.739  10.099  19.019  0.00  0.00    +0.000 A 
ATOM     22  C   UNL     1       0.004  11.286  18.872  0.00  0.00    +0.000 A 
ATOM     23  C   UNL     1      -0.743  11.793  19.934  0.00  0.00    +0.000 A 
ATOM     24  C   UNL     1      -0.750  11.130  21.158  0.00  0.00    +0.000 A 
ATOM     25  C   UNL     1       0.016   9.976  21.333  0.00  0.00    +0.000 A 
ATOM     26  C   UNL     1       0.764   9.444  20.271  0.00  0.00    +0.000 A 
ATOM     27  C   UNL     1       1.493   8.248  20.412  0.00  0.00    +0.000 A 
ENDBRANCH  17  18
ENDBRANCH  16  17
ENDBRANCH   6  16
TORSDOF 8
ENDMDL
MODEL 5
REMARK VINA RESULT:      -7.6      3.087      5.694
REMARK  Name = 
REMARK  10 active torsions:
REMARK  status: ('A' for Active; 'I' for Inactive)
REMARK    1  A    between atoms: C_1  and  O_2
REMARK    2  A    between atoms: O_2  and  C_3
REMARK    3  A    between atoms: C_3  and  C_4
REMARK    4  A    between atoms: C_4  and  N_5
REMARK    5  A    between atoms: C_6  and  C_8
REMARK    6  A    between atoms: C_8  and  N_9
REMARK    7  A    between atoms: C_12  and  C_13
REMARK    8  A    between atoms: C_14  and  C_15
REMARK    9  A    between atoms: C_15  and  O_16
REMARK   10  A    between atoms: O_16  and  C_17
REMARK                            x       y       z     vdW  Elec       q    Type
REMARK                         _______ _______ _______ _____ _____    ______ ____
ROOT
ATOM      1  N   UNL     1       5.527   4.746  16.743  0.00  0.00    +0.000 N 
ATOM      2  N   UNL     1       6.793   4.291  16.643  0.00  0.00    +0.000 NA
ATOM      3  N   UNL     1       7.606   5.304  16.933  0.00  0.00    +0.000 NA
ATOM      4  C   UNL     1       6.841   6.380  17.264  0.00  0.00    +0.000 A 
ATOM      5  C   UNL     1       7.446   7.686  17.612  0.00  0.00    +0.000 C 
ATOM      6  C   UNL     1       5.503   6.053  17.171  0.00  0.00    +0.000 A 
ENDROOT
BRANCH   1   7
ATOM      7  C   UNL     1       4.447   3.835  16.421  0.00  0.00    +0.000 C 
BRANCH   7   9
ATOM      8  N   UNL     1       2.318   3.211  17.584  0.00  0.00    +0.000 N 
ATOM      9  C   UNL     1       3.696   3.258  17.614  0.00  0.00    +0.000 C 
ATOM     10  O   UNL     1       4.331   2.860  18.596  0.00  0.00    +0.000 OA
ATOM     11  H   UNL     1       1.888   3.117  16.662  0.00  0.00    +0.000 HD
BRANCH   8  12
ATOM     12  C   UNL     1       1.598   2.562  18.676  0.00  0.00    +0.000 C 
BRANCH  12  13
ATOM     13  C   UNL     1       1.018   3.546  19.693  0.00  0.00    +0.000 C 
BRANCH  13  15
ATOM     14  C   UNL     1       2.284   3.121  21.649  0.00  0.00    +0.000 C 
ATOM     15  O   UNL     1       1.046   2.928  20.981  0.00  0.00    +0.000 OA
ENDBRANCH  13  15
ENDBRANCH  12  13
ENDBRANCH   8  12
ENDBRANCH   7   9
ENDBRANCH   1   7
BRANCH   6  16
ATOM     16  C   UNL     1       4.319   6.920  17.383  0.00  0.00    +0.000 C 
BRANCH  16  17
ATOM     17  O   UNL     1       3.463   6.276  18.328  0.00  0.00    +0.000 OA
BRANCH  17  18
ATOM     18  C   UNL     1       2.591   7.107  18.990  0.00  0.00    +0.000 A 
ATOM     19  C   UNL     1       2.120   6.917  20.290  0.00  0.00    +0.000 A 
ATOM     20  C   UNL     1       1.296   7.871  20.895  0.00  0.00    +0.000 A 
ATOM     21  C   UNL     1       0.960   9.053  20.224  0.00  0.00    +0.000 A 
ATOM     22  C   UNL     1       0.202  10.056  20.849  0.00  0.00    +0.000 A 
ATOM     23  C   UNL     1      -0.043  11.267  20.202  0.00  0.00    +0.000 A 
ATOM     24  C   UNL     1       0.450  11.480  18.919  0.00  0.00    +0.000 A 
ATOM     25  C   UNL     1       1.163  10.473  18.266  0.00  0.00    +0.000 A 
ATOM     26  C   UNL     1       1.430   9.253  18.907  0.00  0.00    +0.000 A 
ATOM     27  C   UNL     1       2.200   8.250  18.288  0.00  0.00    +0.000 A 
ENDBRANCH  17  18
ENDBRANCH  16  17
ENDBRANCH   6  16
TORSDOF 8
ENDMDL
MODEL 6
REMARK VINA RESULT:      -7.6      3.222      5.608
REMARK  Name = 
REMARK  10 active torsions:
REMARK  status: ('A' for Active; 'I' for Inactive)
REMARK    1  A    between atoms: C_1  and  O_2
REMARK    2  A    between atoms: O_2  and  C_3
REMARK    3  A    between atoms: C_3  and  C_4
REMARK    4  A    between atoms: C_4  and  N_5
REMARK    5  A    between atoms: C_6  and  C_8
REMARK    6  A    between atoms: C_8  and  N_9
REMARK    7  A    between atoms: C_12  and  C_13
REMARK    8  A    between atoms: C_14  and  C_15
REMARK    9  A    between atoms: C_15  and  O_16
REMARK   10  A    between atoms: O_16  and  C_17
REMARK                            x       y       z     vdW  Elec       q    Type
REMARK                         _______ _______ _______ _____ _____    ______ ____
ROOT
ATOM      1  N   UNL     1       3.541   3.202  17.975  0.00  0.00    +0.000 N 
ATOM      2  N   UNL     1       3.774   2.152  18.789  0.00  0.00    +0.000 NA
ATOM      3  N   UNL     1       3.130   2.381  19.931  0.00  0.00    +0.000 NA
ATOM      4  C   UNL     1       2.452   3.555  19.807  0.00  0.00    +0.000 A 
ATOM      5  C   UNL     1       1.654   4.112  20.923  0.00  0.00    +0.000 C 
ATOM      6  C   UNL     1       2.677   4.100  18.559  0.00  0.00    +0.000 A 
ENDROOT
BRANCH   1   7
ATOM      7  C   UNL     1       4.183   3.214  16.675  0.00  0.00    +0.000 C 
BRANCH   7   9
ATOM      8  N   UNL     1       6.246   4.099  17.787  0.00  0.00    +0.000 N 
ATOM      9  C   UNL     1       5.540   3.902  16.618  0.00  0.00    +0.000 C 
ATOM     10  O   UNL     1       5.979   4.290  15.531  0.00  0.00    +0.000 OA
ATOM     11  H   UNL     1       6.091   3.414  18.530  0.00  0.00    +0.000 HD
BRANCH   8  12
ATOM     12  C   UNL     1       7.592   4.660  17.727  0.00  0.00    +0.000 C 
BRANCH  12  13
ATOM     13  C   UNL     1       7.669   6.112  18.200  0.00  0.00    +0.000 C 
BRANCH  13  15
ATOM     14  C   UNL     1       6.065   7.511  17.161  0.00  0.00    +0.000 C 
ATOM     15  O   UNL     1       7.373   6.961  17.090  0.00  0.00    +0.000 OA
ENDBRANCH  13  15
ENDBRANCH  12  13
ENDBRANCH   8  12
ENDBRANCH   7   9
ENDBRANCH   1   7
BRANCH   6  16
ATOM     16  C   UNL     1       2.192   5.387  18.007  0.00  0.00    +0.000 C 
BRANCH  16  17
ATOM     17  O   UNL     1       2.998   6.433  18.550  0.00  0.00    +0.000 OA
BRANCH  17  18
ATOM     18  C   UNL     1       2.328   7.596  18.847  0.00  0.00    +0.000 A 
ATOM     19  C   UNL     1       1.990   8.592  17.930  0.00  0.00    +0.000 A 
ATOM     20  C   UNL     1       1.234   9.699  18.329  0.00  0.00    +0.000 A 
ATOM     21  C   UNL     1       0.769   9.810  19.646  0.00  0.00    +0.000 A 
ATOM     22  C   UNL     1      -0.058  10.874  20.040  0.00  0.00    +0.000 A 
ATOM     23  C   UNL     1      -0.590  10.919  21.328  0.00  0.00    +0.000 A 
ATOM     24  C   UNL     1      -0.286   9.912  22.240  0.00  0.00    +0.000 A 
ATOM     25  C   UNL     1       0.576   8.875  21.877  0.00  0.00    +0.000 A 
ATOM     26  C   UNL     1       1.110   8.807  20.581  0.00  0.00    +0.000 A 
ATOM     27  C   UNL     1       1.930   7.736  20.179  0.00  0.00    +0.000 A 
ENDBRANCH  17  18
ENDBRANCH  16  17
ENDBRANCH   6  16
TORSDOF 8
ENDMDL
MODEL 7
REMARK VINA RESULT:      -7.5      3.026      5.392
REMARK  Name = 
REMARK  10 active torsions:
REMARK  status: ('A' for Active; 'I' for Inactive)
REMARK    1  A    between atoms: C_1  and  O_2
REMARK    2  A    between atoms: O_2  and  C_3
REMARK    3  A    between atoms: C_3  and  C_4
REMARK    4  A    between atoms: C_4  and  N_5
REMARK    5  A    between atoms: C_6  and  C_8
REMARK    6  A    between atoms: C_8  and  N_9
REMARK    7  A    between atoms: C_12  and  C_13
REMARK    8  A    between atoms: C_14  and  C_15
REMARK    9  A    between atoms: C_15  and  O_16
REMARK   10  A    between atoms: O_16  and  C_17
REMARK                            x       y       z     vdW  Elec       q    Type
REMARK                         _______ _______ _______ _____ _____    ______ ____
ROOT
ATOM      1  N   UNL     1       5.453   4.860  16.543  0.00  0.00    +0.000 N 
ATOM      2  N   UNL     1       6.637   4.221  16.644  0.00  0.00    +0.000 NA
ATOM      3  N   UNL     1       7.536   5.109  17.061  0.00  0.00    +0.000 NA
ATOM      4  C   UNL     1       6.898   6.293  17.268  0.00  0.00    +0.000 A 
ATOM      5  C   UNL     1       7.630   7.502  17.709  0.00  0.00    +0.000 C 
ATOM      6  C   UNL     1       5.557   6.166  16.964  0.00  0.00    +0.000 A 
ENDROOT
BRANCH   1   7
ATOM      7  C   UNL     1       4.312   4.112  16.054  0.00  0.00    +0.000 C 
BRANCH   7   9
ATOM      8  N   UNL     1       4.379   2.590  18.041  0.00  0.00    +0.000 N 
ATOM      9  C   UNL     1       3.621   3.221  17.078  0.00  0.00    +0.000 C 
ATOM     10  O   UNL     1       2.398   3.063  17.018  0.00  0.00    +0.000 OA
ATOM     11  H   UNL     1       5.237   3.067  18.328  0.00  0.00    +0.000 HD
BRANCH   8  12
ATOM     12  C   UNL     1       3.714   1.822  19.090  0.00  0.00    +0.000 C 
BRANCH  12  13
ATOM     13  C   UNL     1       3.500   2.611  20.382  0.00  0.00    +0.000 C 
BRANCH  13  15
ATOM     14  C   UNL     1       2.073   4.252  21.320  0.00  0.00    +0.000 C 
ATOM     15  O   UNL     1       2.245   3.289  20.291  0.00  0.00    +0.000 OA
ENDBRANCH  13  15
ENDBRANCH  12  13
ENDBRANCH   8  12
ENDBRANCH   7   9
ENDBRANCH   1   7
BRANCH   6  16
ATOM     16  C   UNL     1       4.498   7.202  16.988  0.00  0.00    +0.000 C 
BRANCH  16  17
ATOM     17  O   UNL     1       3.457   6.751  17.854  0.00  0.00    +0.000 OA
BRANCH  17  18
ATOM     18  C   UNL     1       2.651   7.740  18.367  0.00  0.00    +0.000 A 
ATOM     19  C   UNL     1       2.137   8.820  17.647  0.00  0.00    +0.000 A 
ATOM     20  C   UNL     1       1.259   9.724  18.253  0.00  0.00    +0.000 A 
ATOM     21  C   UNL     1       0.849   9.544  19.579  0.00  0.00    +0.000 A 
ATOM     22  C   UNL     1      -0.094  10.397  20.174  0.00  0.00    +0.000 A 
ATOM     23  C   UNL     1      -0.563  10.147  21.463  0.00  0.00    +0.000 A 
ATOM     24  C   UNL     1      -0.081   9.054  22.177  0.00  0.00    +0.000 A 
ATOM     25  C   UNL     1       0.894   8.226  21.617  0.00  0.00    +0.000 A 
ATOM     26  C   UNL     1       1.368   8.455  20.316  0.00  0.00    +0.000 A 
ATOM     27  C   UNL     1       2.304   7.594  19.712  0.00  0.00    +0.000 A 
ENDBRANCH  17  18
ENDBRANCH  16  17
ENDBRANCH   6  16
TORSDOF 8
ENDMDL
MODEL 8
REMARK VINA RESULT:      -7.5      3.030      5.586
REMARK  Name = 
REMARK  10 active torsions:
REMARK  status: ('A' for Active; 'I' for Inactive)
REMARK    1  A    between atoms: C_1  and  O_2
REMARK    2  A    between atoms: O_2  and  C_3
REMARK    3  A    between atoms: C_3  and  C_4
REMARK    4  A    between atoms: C_4  and  N_5
REMARK    5  A    between atoms: C_6  and  C_8
REMARK    6  A    between atoms: C_8  and  N_9
REMARK    7  A    between atoms: C_12  and  C_13
REMARK    8  A    between atoms: C_14  and  C_15
REMARK    9  A    between atoms: C_15  and  O_16
REMARK   10  A    between atoms: O_16  and  C_17
REMARK                            x       y       z     vdW  Elec       q    Type
REMARK                         _______ _______ _______ _____ _____    ______ ____
ROOT
ATOM      1  N   UNL     1       5.484   4.681  16.544  0.00  0.00    +0.000 N 
ATOM      2  N   UNL     1       6.583   4.597  15.766  0.00  0.00    +0.000 NA
ATOM      3  N   UNL     1       7.373   5.622  16.079  0.00  0.00    +0.000 NA
ATOM      4  C   UNL     1       6.785   6.317  17.090  0.00  0.00    +0.000 A 
ATOM      5  C   UNL     1       7.400   7.542  17.650  0.00  0.00    +0.000 C 
ATOM      6  C   UNL     1       5.581   5.732  17.427  0.00  0.00    +0.000 A 
ENDROOT
BRANCH   1   7
ATOM      7  C   UNL     1       4.437   3.696  16.355  0.00  0.00    +0.000 C 
BRANCH   7   9
ATOM      8  N   UNL     1       2.375   3.404  17.746  0.00  0.00    +0.000 N 
ATOM      9  C   UNL     1       3.737   3.229  17.624  0.00  0.00    +0.000 C 
ATOM     10  O   UNL     1       4.403   2.718  18.531  0.00  0.00    +0.000 OA
ATOM     11  H   UNL     1       1.837   3.396  16.877  0.00  0.00    +0.000 HD
BRANCH   8  12
ATOM     12  C   UNL     1       1.683   2.863  18.912  0.00  0.00    +0.000 C 
BRANCH  12  13
ATOM     13  C   UNL     1       1.170   3.937  19.871  0.00  0.00    +0.000 C 
BRANCH  13  15
ATOM     14  C   UNL     1       2.400   2.765  21.520  0.00  0.00    +0.000 C 
ATOM     15  O   UNL     1       1.171   3.397  21.193  0.00  0.00    +0.000 OA
ENDBRANCH  13  15
ENDBRANCH  12  13
ENDBRANCH   8  12
ENDBRANCH   7   9
ENDBRANCH   1   7
BRANCH   6  16
ATOM     16  C   UNL     1       4.581   6.175  18.427  0.00  0.00    +0.000 C 
BRANCH  16  17
ATOM     17  O   UNL     1       3.380   6.513  17.732  0.00  0.00    +0.000 OA
BRANCH  17  18
ATOM     18  C   UNL     1       2.673   7.567  18.261  0.00  0.00    +0.000 A 
ATOM     19  C   UNL     1       2.304   8.722  17.570  0.00  0.00    +0.000 A 
ATOM     20  C   UNL     1       1.513   9.697  18.186  0.00  0.00    +0.000 A 
ATOM     21  C   UNL     1       1.045   9.516  19.493  0.00  0.00    +0.000 A 
ATOM     22  C   UNL     1       0.184  10.448  20.095  0.00  0.00    +0.000 A 
ATOM     23  C   UNL     1      -0.350  10.206  21.361  0.00  0.00    +0.000 A 
ATOM     24  C   UNL     1      -0.014   9.041  22.044  0.00  0.00    +0.000 A 
ATOM     25  C   UNL     1       0.880   8.130  21.479  0.00  0.00    +0.000 A 
ATOM     26  C   UNL     1       1.416   8.351  20.201  0.00  0.00    +0.000 A 
ATOM     27  C   UNL     1       2.271   7.413  19.590  0.00  0.00    +0.000 A 
ENDBRANCH  17  18
ENDBRANCH  16  17
ENDBRANCH   6  16
TORSDOF 8
ENDMDL
MODEL 9
REMARK VINA RESULT:      -7.5      3.572      5.638
REMARK  Name = 
REMARK  10 active torsions:
REMARK  status: ('A' for Active; 'I' for Inactive)
REMARK    1  A    between atoms: C_1  and  O_2
REMARK    2  A    between atoms: O_2  and  C_3
REMARK    3  A    between atoms: C_3  and  C_4
REMARK    4  A    between atoms: C_4  and  N_5
REMARK    5  A    between atoms: C_6  and  C_8
REMARK    6  A    between atoms: C_8  and  N_9
REMARK    7  A    between atoms: C_12  and  C_13
REMARK    8  A    between atoms: C_14  and  C_15
REMARK    9  A    between atoms: C_15  and  O_16
REMARK   10  A    between atoms: O_16  and  C_17
REMARK                            x       y       z     vdW  Elec       q    Type
REMARK                         _______ _______ _______ _____ _____    ______ ____
ROOT
ATOM      1  N   UNL     1       5.960   4.743  17.907  0.00  0.00    +0.000 N 
ATOM      2  N   UNL     1       7.238   4.492  18.260  0.00  0.00    +0.000 NA
ATOM      3  N   UNL     1       7.923   5.622  18.112  0.00  0.00    +0.000 NA
ATOM      4  C   UNL     1       7.058   6.594  17.713  0.00  0.00    +0.000 A 
ATOM      5  C   UNL     1       7.517   7.973  17.429  0.00  0.00    +0.000 C 
ATOM      6  C   UNL     1       5.786   6.071  17.590  0.00  0.00    +0.000 A 
ENDROOT
BRANCH   1   7
ATOM      7  C   UNL     1       5.015   3.645  17.935  0.00  0.00    +0.000 C 
BRANCH   7   9
ATOM      8  N   UNL     1       3.242   4.011  19.666  0.00  0.00    +0.000 N 
ATOM      9  C   UNL     1       4.392   3.347  19.292  0.00  0.00    +0.000 C 
ATOM     10  O   UNL     1       4.934   2.530  20.043  0.00  0.00    +0.000 OA
ATOM     11  H   UNL     1       2.618   4.298  18.909  0.00  0.00    +0.000 HD
BRANCH   8  12
ATOM     12  C   UNL     1       2.581   3.653  20.917  0.00  0.00    +0.000 C 
BRANCH  12  13
ATOM     13  C   UNL     1       1.725   2.390  20.815  0.00  0.00    +0.000 C 
BRANCH  13  15
ATOM     14  C   UNL     1       0.481   2.606  18.810  0.00  0.00    +0.000 C 
ATOM     15  O   UNL     1       1.619   2.030  19.436  0.00  0.00    +0.000 OA
ENDBRANCH  13  15
ENDBRANCH  12  13
ENDBRANCH   8  12
ENDBRANCH   7   9
ENDBRANCH   1   7
BRANCH   6  16
ATOM     16  C   UNL     1       4.547   6.743  17.132  0.00  0.00    +0.000 C 
BRANCH  16  17
ATOM     17  O   UNL     1       3.506   6.428  18.057  0.00  0.00    +0.000 OA
BRANCH  17  18
ATOM     18  C   UNL     1       2.741   7.496  18.464  0.00  0.00    +0.000 A 
ATOM     19  C   UNL     1       2.377   8.581  17.667  0.00  0.00    +0.000 A 
ATOM     20  C   UNL     1       1.526   9.574  18.162  0.00  0.00    +0.000 A 
ATOM     21  C   UNL     1       0.991   9.478  19.453  0.00  0.00    +0.000 A 
ATOM     22  C   UNL     1       0.072  10.424  19.934  0.00  0.00    +0.000 A 
ATOM     23  C   UNL     1      -0.523  10.263  21.184  0.00  0.00    +0.000 A 
ATOM     24  C   UNL     1      -0.192   9.166  21.974  0.00  0.00    +0.000 A 
ATOM     25  C   UNL     1       0.758   8.244  21.529  0.00  0.00    +0.000 A 
ATOM     26  C   UNL     1       1.357   8.384  20.268  0.00  0.00    +0.000 A 
ATOM     27  C   UNL     1       2.270   7.431  19.778  0.00  0.00    +0.000 A 
ENDBRANCH  17  18
ENDBRANCH  16  17
ENDBRANCH   6  16
TORSDOF 8
ENDMDL
