MODEL 1
REMARK VINA RESULT:      -8.7      0.000      0.000
REMARK  Name = 
REMARK  9 active torsions:
REMARK  status: ('A' for Active; 'I' for Inactive)
REMARK    1  A    between atoms: C_2  and  C_16
REMARK    2  A    between atoms: N_3  and  CA_4
REMARK    3  A    between atoms: CA_4  and  CB_5
REMARK    4  A    between atoms: CA_4  and  C_13
REMARK    5  A    between atoms: CB_5  and  CG_6
REMARK    6  A    between atoms: CZ_9  and  OH_10
REMARK    7  A    between atoms: C_13  and  OXT_15
REMARK    8  A    between atoms: C_16  and  C_17
REMARK    9  A    between atoms: C_16  and  C_23
REMARK                            x       y       z     vdW  Elec       q    Type
REMARK                         _______ _______ _______ _____ _____    ______ ____
ROOT
ATOM      1  O   UNK A   0       4.853   5.203  19.840  0.00  0.00    +0.000 OA
ATOM      2  C   UNK A   0       4.536   5.714  18.764  0.00  0.00    +0.000 C 
ATOM      3  N   TYR A   1       5.509   6.200  17.920  0.00  0.00    +0.000 N 
ATOM      4  H   TYR A   1       5.274   6.671  17.049  0.00  0.00    +0.000 HD
ENDROOT
BRANCH   3   5
ATOM      5  CA  TYR A   1       6.930   6.038  18.235  0.00  0.00    +0.000 C 
BRANCH   5   6
ATOM      6  C   TYR A   1       7.660   7.355  17.943  0.00  0.00    +0.000 C 
ATOM      7  O   TYR A   1       8.548   7.817  18.649  0.00  0.00    +0.000 OA
BRANCH   6   8
ATOM      8  OXT TYR A   1       7.252   7.977  16.810  0.00  0.00    +0.000 OA
ATOM      9  HXT TYR A   1       7.960   8.433  16.315  0.00  0.00    +0.000 HD
ENDBRANCH   6   8
ENDBRANCH   5   6
BRANCH   5  10
ATOM     10  CB  TYR A   1       7.563   4.837  17.501  0.00  0.00    +0.000 C 
BRANCH  10  11
ATOM     11  CG  TYR A   1       6.954   4.597  16.139  0.00  0.00    +0.000 A 
ATOM     12  CD1 TYR A   1       5.852   3.743  15.994  0.00  0.00    +0.000 A 
ATOM     13  CE1 TYR A   1       5.395   3.389  14.725  0.00  0.00    +0.000 A 
ATOM     14  CZ  TYR A   1       6.035   3.900  13.602  0.00  0.00    +0.000 A 
ATOM     15  CE2 TYR A   1       7.091   4.794  13.728  0.00  0.00    +0.000 A 
ATOM     16  CD2 TYR A   1       7.550   5.147  14.995  0.00  0.00    +0.000 A 
BRANCH  14  17
ATOM     17  OH  TYR A   1       5.657   3.533  12.344  0.00  0.00    +0.000 OA
ATOM     18  HH  TYR A   1       6.262   2.839  12.035  0.00  0.00    +0.000 HD
ENDBRANCH  14  17
ENDBRANCH  10  11
ENDBRANCH   5  10
ENDBRANCH   3   5
BRANCH   2  19
ATOM     19  C   UNK A   0       3.073   5.859  18.275  0.00  0.00    +0.000 C 
BRANCH  19  20
ATOM     20  C   UNK A   0       2.254   4.684  18.819  0.00  0.00    +0.000 A 
ATOM     21  C   UNK A   0       1.770   3.691  17.949  0.00  0.00    +0.000 A 
ATOM     22  C   UNK A   0       0.953   2.664  18.418  0.00  0.00    +0.000 A 
ATOM     23  C   UNK A   0       0.622   2.601  19.768  0.00  0.00    +0.000 A 
ATOM     24  C   UNK A   0       1.115   3.563  20.651  0.00  0.00    +0.000 A 
ATOM     25  C   UNK A   0       1.925   4.602  20.181  0.00  0.00    +0.000 A 
ENDBRANCH  19  20
BRANCH  19  26
ATOM     26  C   UNK A   0       2.455   7.229  18.584  0.00  0.00    +0.000 A 
ATOM     27  C   UNK A   0       2.303   8.225  17.605  0.00  0.00    +0.000 A 
ATOM     28  C   UNK A   0       1.748   9.469  17.917  0.00  0.00    +0.000 A 
ATOM     29  C   UNK A   0       1.322   9.738  19.214  0.00  0.00    +0.000 A 
ATOM     30  C   UNK A   0       1.437   8.759  20.196  0.00  0.00    +0.000 A 
ATOM     31  C   UNK A   0       1.992   7.513  19.883  0.00  0.00    +0.000 A 
ENDBRANCH  19  26
ENDBRANCH   2  19
TORSDOF 9
ENDMDL
MODEL 2
REMARK VINA RESULT:      -8.6      0.445      1.361
REMARK  Name = 
REMARK  9 active torsions:
REMARK  status: ('A' for Active; 'I' for Inactive)
REMARK    1  A    between atoms: C_2  and  C_16
REMARK    2  A    between atoms: N_3  and  CA_4
REMARK    3  A    between atoms: CA_4  and  CB_5
REMARK    4  A    between atoms: CA_4  and  C_13
REMARK    5  A    between atoms: CB_5  and  CG_6
REMARK    6  A    between atoms: CZ_9  and  OH_10
REMARK    7  A    between atoms: C_13  and  OXT_15
REMARK    8  A    between atoms: C_16  and  C_17
REMARK    9  A    between atoms: C_16  and  C_23
REMARK                            x       y       z     vdW  Elec       q    Type
REMARK                         _______ _______ _______ _____ _____    ______ ____
ROOT
ATOM      1  O   UNK A   0       4.893   5.167  19.845  0.00  0.00    +0.000 OA
ATOM      2  C   UNK A   0       4.605   5.714  18.778  0.00  0.00    +0.000 C 
ATOM      3  N   TYR A   1       5.599   6.260  17.996  0.00  0.00    +0.000 N 
ATOM      4  H   TYR A   1       5.386   6.761  17.136  0.00  0.00    +0.000 HD
ENDROOT
BRANCH   3   5
ATOM      5  CA  TYR A   1       7.009   6.123  18.365  0.00  0.00    +0.000 C 
BRANCH   5   6
ATOM      6  C   TYR A   1       7.749   7.417  18.000  0.00  0.00    +0.000 C 
ATOM      7  O   TYR A   1       8.636   7.915  18.683  0.00  0.00    +0.000 OA
BRANCH   6   8
ATOM      8  OXT TYR A   1       7.353   7.972  16.829  0.00  0.00    +0.000 OA
ATOM      9  HXT TYR A   1       7.094   8.911  16.887  0.00  0.00    +0.000 HD
ENDBRANCH   6   8
ENDBRANCH   5   6
BRANCH   5  10
ATOM     10  CB  TYR A   1       7.663   4.873  17.740  0.00  0.00    +0.000 C 
BRANCH  10  11
ATOM     11  CG  TYR A   1       7.048   4.493  16.412  0.00  0.00    +0.000 A 
ATOM     12  CD1 TYR A   1       7.559   5.018  15.216  0.00  0.00    +0.000 A 
ATOM     13  CE1 TYR A   1       6.893   4.805  14.010  0.00  0.00    +0.000 A 
ATOM     14  CZ  TYR A   1       5.723   4.056  14.000  0.00  0.00    +0.000 A 
ATOM     15  CE2 TYR A   1       5.234   3.480  15.166  0.00  0.00    +0.000 A 
ATOM     16  CD2 TYR A   1       5.897   3.694  16.373  0.00  0.00    +0.000 A 
BRANCH  14  17
ATOM     17  OH  TYR A   1       5.010   3.873  12.851  0.00  0.00    +0.000 OA
ATOM     18  HH  TYR A   1       4.130   3.536  13.090  0.00  0.00    +0.000 HD
ENDBRANCH  14  17
ENDBRANCH  10  11
ENDBRANCH   5  10
ENDBRANCH   3   5
BRANCH   2  19
ATOM     19  C   UNK A   0       3.160   5.839  18.233  0.00  0.00    +0.000 C 
BRANCH  19  20
ATOM     20  C   UNK A   0       2.390   4.563  18.584  0.00  0.00    +0.000 A 
ATOM     21  C   UNK A   0       2.474   3.431  17.753  0.00  0.00    +0.000 A 
ATOM     22  C   UNK A   0       1.712   2.293  18.014  0.00  0.00    +0.000 A 
ATOM     23  C   UNK A   0       0.869   2.261  19.121  0.00  0.00    +0.000 A 
ATOM     24  C   UNK A   0       0.794   3.364  19.971  0.00  0.00    +0.000 A 
ATOM     25  C   UNK A   0       1.547   4.512  19.705  0.00  0.00    +0.000 A 
ENDBRANCH  19  20
BRANCH  19  26
ATOM     26  C   UNK A   0       2.447   7.124  18.676  0.00  0.00    +0.000 A 
ATOM     27  C   UNK A   0       2.099   7.369  20.015  0.00  0.00    +0.000 A 
ATOM     28  C   UNK A   0       1.439   8.542  20.389  0.00  0.00    +0.000 A 
ATOM     29  C   UNK A   0       1.122   9.501  19.431  0.00  0.00    +0.000 A 
ATOM     30  C   UNK A   0       1.478   9.294  18.103  0.00  0.00    +0.000 A 
ATOM     31  C   UNK A   0       2.141   8.120  17.729  0.00  0.00    +0.000 A 
ENDBRANCH  19  26
ENDBRANCH   2  19
TORSDOF 9
ENDMDL
MODEL 3
REMARK VINA RESULT:      -8.6      0.385      1.160
REMARK  Name = 
REMARK  9 active torsions:
REMARK  status: ('A' for Active; 'I' for Inactive)
REMARK    1  A    between atoms: C_2  and  C_16
REMARK    2  A    between atoms: N_3  and  CA_4
REMARK    3  A    between atoms: CA_4  and  CB_5
REMARK    4  A    between atoms: CA_4  and  C_13
REMARK    5  A    between atoms: CB_5  and  CG_6
REMARK    6  A    between atoms: CZ_9  and  OH_10
REMARK    7  A    between atoms: C_13  and  OXT_15
REMARK    8  A    between atoms: C_16  and  C_17
REMARK    9  A    between atoms: C_16  and  C_23
REMARK                            x       y       z     vdW  Elec       q    Type
REMARK                         _______ _______ _______ _____ _____    ______ ____
ROOT
ATOM      1  O   UNK A   0       4.886   5.019  19.808  0.00  0.00    +0.000 OA
ATOM      2  C   UNK A   0       4.582   5.661  18.800  0.00  0.00    +0.000 C 
ATOM      3  N   TYR A   1       5.560   6.293  18.066  0.00  0.00    +0.000 N 
ATOM      4  H   TYR A   1       5.333   6.871  17.260  0.00  0.00    +0.000 HD
ENDROOT
BRANCH   3   5
ATOM      5  CA  TYR A   1       6.976   6.143  18.410  0.00  0.00    +0.000 C 
BRANCH   5   6
ATOM      6  C   TYR A   1       7.726   7.419  18.005  0.00  0.00    +0.000 C 
ATOM      7  O   TYR A   1       7.493   8.057  16.987  0.00  0.00    +0.000 OA
BRANCH   6   8
ATOM      8  OXT TYR A   1       8.677   7.808  18.890  0.00  0.00    +0.000 OA
ATOM      9  HXT TYR A   1       9.447   8.258  18.493  0.00  0.00    +0.000 HD
ENDBRANCH   6   8
ENDBRANCH   5   6
BRANCH   5  10
ATOM     10  CB  TYR A   1       7.599   4.872  17.795  0.00  0.00    +0.000 C 
BRANCH  10  11
ATOM     11  CG  TYR A   1       6.986   4.505  16.463  0.00  0.00    +0.000 A 
ATOM     12  CD1 TYR A   1       7.498   5.045  15.274  0.00  0.00    +0.000 A 
ATOM     13  CE1 TYR A   1       6.834   4.843  14.064  0.00  0.00    +0.000 A 
ATOM     14  CZ  TYR A   1       5.666   4.091  14.045  0.00  0.00    +0.000 A 
ATOM     15  CE2 TYR A   1       5.177   3.501  15.204  0.00  0.00    +0.000 A 
ATOM     16  CD2 TYR A   1       5.838   3.704  16.414  0.00  0.00    +0.000 A 
BRANCH  14  17
ATOM     17  OH  TYR A   1       4.955   3.918  12.894  0.00  0.00    +0.000 OA
ATOM     18  HH  TYR A   1       4.012   4.035  13.098  0.00  0.00    +0.000 HD
ENDBRANCH  14  17
ENDBRANCH  10  11
ENDBRANCH   5  10
ENDBRANCH   3   5
BRANCH   2  19
ATOM     19  C   UNK A   0       3.130   5.816  18.281  0.00  0.00    +0.000 C 
BRANCH  19  20
ATOM     20  C   UNK A   0       2.306   4.617  18.759  0.00  0.00    +0.000 A 
ATOM     21  C   UNK A   0       2.318   3.411  18.036  0.00  0.00    +0.000 A 
ATOM     22  C   UNK A   0       1.508   2.341  18.412  0.00  0.00    +0.000 A 
ATOM     23  C   UNK A   0       0.687   2.452  19.529  0.00  0.00    +0.000 A 
ATOM     24  C   UNK A   0       0.682   3.631  20.276  0.00  0.00    +0.000 A 
ATOM     25  C   UNK A   0       1.485   4.710  19.894  0.00  0.00    +0.000 A 
ENDBRANCH  19  20
BRANCH  19  26
ATOM     26  C   UNK A   0       2.496   7.169  18.627  0.00  0.00    +0.000 A 
ATOM     27  C   UNK A   0       2.344   8.195  17.678  0.00  0.00    +0.000 A 
ATOM     28  C   UNK A   0       1.773   9.423  18.024  0.00  0.00    +0.000 A 
ATOM     29  C   UNK A   0       1.333   9.647  19.325  0.00  0.00    +0.000 A 
ATOM     30  C   UNK A   0       1.450   8.639  20.276  0.00  0.00    +0.000 A 
ATOM     31  C   UNK A   0       2.019   7.409  19.930  0.00  0.00    +0.000 A 
ENDBRANCH  19  26
ENDBRANCH   2  19
TORSDOF 9
ENDMDL
MODEL 4
REMARK VINA RESULT:      -8.3      3.834      7.428
REMARK  Name = 
REMARK  9 active torsions:
REMARK  status: ('A' for Active; 'I' for Inactive)
REMARK    1  A    between atoms: C_2  and  C_16
REMARK    2  A    between atoms: N_3  and  CA_4
REMARK    3  A    between atoms: CA_4  and  CB_5
REMARK    4  A    between atoms: CA_4  and  C_13
REMARK    5  A    between atoms: CB_5  and  CG_6
REMARK    6  A    between atoms: CZ_9  and  OH_10
REMARK    7  A    between atoms: C_13  and  OXT_15
REMARK    8  A    between atoms: C_16  and  C_17
REMARK    9  A    between atoms: C_16  and  C_23
REMARK                            x       y       z     vdW  Elec       q    Type
REMARK                         _______ _______ _______ _____ _____    ______ ____
ROOT
ATOM      1  O   UNK A   0       2.511   8.058  17.006  0.00  0.00    +0.000 OA
ATOM      2  C   UNK A   0       2.547   7.814  18.214  0.00  0.00    +0.000 C 
ATOM      3  N   TYR A   1       1.836   8.599  19.095  0.00  0.00    +0.000 N 
ATOM      4  H   TYR A   1       1.887   8.452  20.101  0.00  0.00    +0.000 HD
ENDROOT
BRANCH   3   5
ATOM      5  CA  TYR A   1       0.960   9.669  18.614  0.00  0.00    +0.000 C 
BRANCH   5   6
ATOM      6  C   TYR A   1       1.776  10.961  18.481  0.00  0.00    +0.000 C 
ATOM      7  O   TYR A   1       1.834  11.827  19.346  0.00  0.00    +0.000 OA
BRANCH   6   8
ATOM      8  OXT TYR A   1       2.459  11.069  17.315  0.00  0.00    +0.000 OA
ATOM      9  HXT TYR A   1       3.427  10.970  17.397  0.00  0.00    +0.000 HD
ENDBRANCH   6   8
ENDBRANCH   5   6
BRANCH   5  10
ATOM     10  CB  TYR A   1      -0.291   9.849  19.499  0.00  0.00    +0.000 C 
BRANCH  10  11
ATOM     11  CG  TYR A   1      -1.494  10.329  18.721  0.00  0.00    +0.000 A 
ATOM     12  CD1 TYR A   1      -1.730   9.864  17.419  0.00  0.00    +0.000 A 
ATOM     13  CE1 TYR A   1      -2.740  10.429  16.640  0.00  0.00    +0.000 A 
ATOM     14  CZ  TYR A   1      -3.519  11.451  17.170  0.00  0.00    +0.000 A 
ATOM     15  CE2 TYR A   1      -3.337  11.882  18.478  0.00  0.00    +0.000 A 
ATOM     16  CD2 TYR A   1      -2.328  11.321  19.257  0.00  0.00    +0.000 A 
BRANCH  14  17
ATOM     17  OH  TYR A   1      -4.477  12.069  16.422  0.00  0.00    +0.000 OA
ATOM     18  HH  TYR A   1      -4.625  12.957  16.790  0.00  0.00    +0.000 HD
ENDBRANCH  14  17
ENDBRANCH  10  11
ENDBRANCH   5  10
ENDBRANCH   3   5
BRANCH   2  19
ATOM     19  C   UNK A   0       3.361   6.653  18.837  0.00  0.00    +0.000 C 
BRANCH  19  20
ATOM     20  C   UNK A   0       2.417   5.477  19.105  0.00  0.00    +0.000 A 
ATOM     21  C   UNK A   0       1.984   5.197  20.413  0.00  0.00    +0.000 A 
ATOM     22  C   UNK A   0       1.193   4.081  20.683  0.00  0.00    +0.000 A 
ATOM     23  C   UNK A   0       0.806   3.238  19.646  0.00  0.00    +0.000 A 
ATOM     24  C   UNK A   0       1.203   3.516  18.338  0.00  0.00    +0.000 A 
ATOM     25  C   UNK A   0       2.007   4.628  18.066  0.00  0.00    +0.000 A 
ENDBRANCH  19  20
BRANCH  19  26
ATOM     26  C   UNK A   0       4.601   6.265  18.019  0.00  0.00    +0.000 A 
ATOM     27  C   UNK A   0       4.727   6.569  16.653  0.00  0.00    +0.000 A 
ATOM     28  C   UNK A   0       5.862   6.194  15.930  0.00  0.00    +0.000 A 
ATOM     29  C   UNK A   0       6.900   5.515  16.561  0.00  0.00    +0.000 A 
ATOM     30  C   UNK A   0       6.810   5.225  17.918  0.00  0.00    +0.000 A 
ATOM     31  C   UNK A   0       5.675   5.602  18.643  0.00  0.00    +0.000 A 
ENDBRANCH  19  26
ENDBRANCH   2  19
TORSDOF 9
ENDMDL
MODEL 5
REMARK VINA RESULT:      -8.2      3.811      7.218
REMARK  Name = 
REMARK  9 active torsions:
REMARK  status: ('A' for Active; 'I' for Inactive)
REMARK    1  A    between atoms: C_2  and  C_16
REMARK    2  A    between atoms: N_3  and  CA_4
REMARK    3  A    between atoms: CA_4  and  CB_5
REMARK    4  A    between atoms: CA_4  and  C_13
REMARK    5  A    between atoms: CB_5  and  CG_6
REMARK    6  A    between atoms: CZ_9  and  OH_10
REMARK    7  A    between atoms: C_13  and  OXT_15
REMARK    8  A    between atoms: C_16  and  C_17
REMARK    9  A    between atoms: C_16  and  C_23
REMARK                            x       y       z     vdW  Elec       q    Type
REMARK                         _______ _______ _______ _____ _____    ______ ____
ROOT
ATOM      1  O   UNK A   0       1.352   7.324  17.377  0.00  0.00    +0.000 OA
ATOM      2  C   UNK A   0       2.114   7.587  18.311  0.00  0.00    +0.000 C 
ATOM      3  N   TYR A   1       2.138   8.857  18.843  0.00  0.00    +0.000 N 
ATOM      4  H   TYR A   1       2.790   9.114  19.580  0.00  0.00    +0.000 HD
ENDROOT
BRANCH   3   5
ATOM      5  CA  TYR A   1       1.206   9.886  18.378  0.00  0.00    +0.000 C 
BRANCH   5   6
ATOM      6  C   TYR A   1       1.928  11.240  18.353  0.00  0.00    +0.000 C 
ATOM      7  O   TYR A   1       1.926  12.034  19.285  0.00  0.00    +0.000 OA
BRANCH   6   8
ATOM      8  OXT TYR A   1       2.600  11.490  17.203  0.00  0.00    +0.000 OA
ATOM      9  HXT TYR A   1       3.563  11.612  17.309  0.00  0.00    +0.000 HD
ENDBRANCH   6   8
ENDBRANCH   5   6
BRANCH   5  10
ATOM     10  CB  TYR A   1      -0.092   9.924  19.211  0.00  0.00    +0.000 C 
BRANCH  10  11
ATOM     11  CG  TYR A   1      -1.294  10.355  18.401  0.00  0.00    +0.000 A 
ATOM     12  CD1 TYR A   1      -2.173  11.329  18.898  0.00  0.00    +0.000 A 
ATOM     13  CE1 TYR A   1      -3.368  11.606  18.234  0.00  0.00    +0.000 A 
ATOM     14  CZ  TYR A   1      -3.675  10.917  17.068  0.00  0.00    +0.000 A 
ATOM     15  CE2 TYR A   1      -2.789   9.991  16.531  0.00  0.00    +0.000 A 
ATOM     16  CD2 TYR A   1      -1.596   9.711  17.194  0.00  0.00    +0.000 A 
BRANCH  14  17
ATOM     17  OH  TYR A   1      -4.859  11.115  16.420  0.00  0.00    +0.000 OA
ATOM     18  HH  TYR A   1      -5.353  11.805  16.895  0.00  0.00    +0.000 HD
ENDBRANCH  14  17
ENDBRANCH  10  11
ENDBRANCH   5  10
ENDBRANCH   3   5
BRANCH   2  19
ATOM     19  C   UNK A   0       3.080   6.559  18.953  0.00  0.00    +0.000 C 
BRANCH  19  20
ATOM     20  C   UNK A   0       2.307   5.267  19.235  0.00  0.00    +0.000 A 
ATOM     21  C   UNK A   0       2.046   4.353  18.198  0.00  0.00    +0.000 A 
ATOM     22  C   UNK A   0       1.272   3.216  18.423  0.00  0.00    +0.000 A 
ATOM     23  C   UNK A   0       0.762   2.964  19.693  0.00  0.00    +0.000 A 
ATOM     24  C   UNK A   0       1.034   3.845  20.740  0.00  0.00    +0.000 A 
ATOM     25  C   UNK A   0       1.800   4.993  20.515  0.00  0.00    +0.000 A 
ENDBRANCH  19  20
BRANCH  19  26
ATOM     26  C   UNK A   0       4.365   6.337  18.143  0.00  0.00    +0.000 A 
ATOM     27  C   UNK A   0       4.502   6.771  16.814  0.00  0.00    +0.000 A 
ATOM     28  C   UNK A   0       5.680   6.545  16.096  0.00  0.00    +0.000 A 
ATOM     29  C   UNK A   0       6.749   5.888  16.697  0.00  0.00    +0.000 A 
ATOM     30  C   UNK A   0       6.647   5.471  18.020  0.00  0.00    +0.000 A 
ATOM     31  C   UNK A   0       5.469   5.699  18.740  0.00  0.00    +0.000 A 
ENDBRANCH  19  26
ENDBRANCH   2  19
TORSDOF 9
ENDMDL
MODEL 6
REMARK VINA RESULT:      -8.2      3.804      7.477
REMARK  Name = 
REMARK  9 active torsions:
REMARK  status: ('A' for Active; 'I' for Inactive)
REMARK    1  A    between atoms: C_2  and  C_16
REMARK    2  A    between atoms: N_3  and  CA_4
REMARK    3  A    between atoms: CA_4  and  CB_5
REMARK    4  A    between atoms: CA_4  and  C_13
REMARK    5  A    between atoms: CB_5  and  CG_6
REMARK    6  A    between atoms: CZ_9  and  OH_10
REMARK    7  A    between atoms: C_13  and  OXT_15
REMARK    8  A    between atoms: C_16  and  C_17
REMARK    9  A    between atoms: C_16  and  C_23
REMARK                            x       y       z     vdW  Elec       q    Type
REMARK                         _______ _______ _______ _____ _____    ______ ____
ROOT
ATOM      1  O   UNK A   0       1.905   7.534  17.317  0.00  0.00    +0.000 OA
ATOM      2  C   UNK A   0       2.197   7.562  18.516  0.00  0.00    +0.000 C 
ATOM      3  N   TYR A   1       1.777   8.612  19.301  0.00  0.00    +0.000 N 
ATOM      4  H   TYR A   1       2.045   8.687  20.280  0.00  0.00    +0.000 HD
ENDROOT
BRANCH   3   5
ATOM      5  CA  TYR A   1       0.908   9.658  18.759  0.00  0.00    +0.000 C 
BRANCH   5   6
ATOM      6  C   TYR A   1       1.756  10.896  18.437  0.00  0.00    +0.000 C 
ATOM      7  O   TYR A   1       1.801  11.897  19.140  0.00  0.00    +0.000 OA
BRANCH   6   8
ATOM      8  OXT TYR A   1       2.483  10.789  17.298  0.00  0.00    +0.000 OA
ATOM      9  HXT TYR A   1       2.902  11.618  16.999  0.00  0.00    +0.000 HD
ENDBRANCH   6   8
ENDBRANCH   5   6
BRANCH   5  10
ATOM     10  CB  TYR A   1      -0.277   9.982  19.694  0.00  0.00    +0.000 C 
BRANCH  10  11
ATOM     11  CG  TYR A   1      -1.506  10.440  18.943  0.00  0.00    +0.000 A 
ATOM     12  CD1 TYR A   1      -1.828   9.880  17.698  0.00  0.00    +0.000 A 
ATOM     13  CE1 TYR A   1      -2.861  10.415  16.929  0.00  0.00    +0.000 A 
ATOM     14  CZ  TYR A   1      -3.578  11.502  17.412  0.00  0.00    +0.000 A 
ATOM     15  CE2 TYR A   1      -3.311  12.032  18.669  0.00  0.00    +0.000 A 
ATOM     16  CD2 TYR A   1      -2.278  11.501  19.437  0.00  0.00    +0.000 A 
BRANCH  14  17
ATOM     17  OH  TYR A   1      -4.557  12.092  16.667  0.00  0.00    +0.000 OA
ATOM     18  HH  TYR A   1      -4.173  12.350  15.812  0.00  0.00    +0.000 HD
ENDBRANCH  14  17
ENDBRANCH  10  11
ENDBRANCH   5  10
ENDBRANCH   3   5
BRANCH   2  19
ATOM     19  C   UNK A   0       3.032   6.468  19.227  0.00  0.00    +0.000 C 
BRANCH  19  20
ATOM     20  C   UNK A   0       2.199   5.184  19.301  0.00  0.00    +0.000 A 
ATOM     21  C   UNK A   0       1.657   4.759  20.527  0.00  0.00    +0.000 A 
ATOM     22  C   UNK A   0       0.970   3.550  20.625  0.00  0.00    +0.000 A 
ATOM     23  C   UNK A   0       0.796   2.757  19.496  0.00  0.00    +0.000 A 
ATOM     24  C   UNK A   0       1.302   3.176  18.265  0.00  0.00    +0.000 A 
ATOM     25  C   UNK A   0       2.003   4.383  18.166  0.00  0.00    +0.000 A 
ENDBRANCH  19  20
BRANCH  19  26
ATOM     26  C   UNK A   0       4.421   6.258  18.610  0.00  0.00    +0.000 A 
ATOM     27  C   UNK A   0       5.394   5.438  19.206  0.00  0.00    +0.000 A 
ATOM     28  C   UNK A   0       6.656   5.274  18.629  0.00  0.00    +0.000 A 
ATOM     29  C   UNK A   0       6.968   5.921  17.436  0.00  0.00    +0.000 A 
ATOM     30  C   UNK A   0       6.014   6.718  16.814  0.00  0.00    +0.000 A 
ATOM     31  C   UNK A   0       4.750   6.881  17.390  0.00  0.00    +0.000 A 
ENDBRANCH  19  26
ENDBRANCH   2  19
TORSDOF 9
ENDMDL
MODEL 7
REMARK VINA RESULT:      -8.2      1.076      3.879
REMARK  Name = 
REMARK  9 active torsions:
REMARK  status: ('A' for Active; 'I' for Inactive)
REMARK    1  A    between atoms: C_2  and  C_16
REMARK    2  A    between atoms: N_3  and  CA_4
REMARK    3  A    between atoms: CA_4  and  CB_5
REMARK    4  A    between atoms: CA_4  and  C_13
REMARK    5  A    between atoms: CB_5  and  CG_6
REMARK    6  A    between atoms: CZ_9  and  OH_10
REMARK    7  A    between atoms: C_13  and  OXT_15
REMARK    8  A    between atoms: C_16  and  C_17
REMARK    9  A    between atoms: C_16  and  C_23
REMARK                            x       y       z     vdW  Elec       q    Type
REMARK                         _______ _______ _______ _____ _____    ______ ____
ROOT
ATOM      1  O   UNK A   0       5.153   3.716  19.106  0.00  0.00    +0.000 OA
ATOM      2  C   UNK A   0       4.834   4.894  19.284  0.00  0.00    +0.000 C 
ATOM      3  N   TYR A   1       5.704   5.902  18.933  0.00  0.00    +0.000 N 
ATOM      4  H   TYR A   1       5.488   6.880  19.114  0.00  0.00    +0.000 HD
ENDROOT
BRANCH   3   5
ATOM      5  CA  TYR A   1       6.973   5.605  18.265  0.00  0.00    +0.000 C 
BRANCH   5   6
ATOM      6  C   TYR A   1       8.129   5.960  19.209  0.00  0.00    +0.000 C 
ATOM      7  O   TYR A   1       8.604   5.188  20.032  0.00  0.00    +0.000 OA
BRANCH   6   8
ATOM      8  OXT TYR A   1       8.612   7.217  19.046  0.00  0.00    +0.000 OA
ATOM      9  HXT TYR A   1       9.351   7.452  19.640  0.00  0.00    +0.000 HD
ENDBRANCH   6   8
ENDBRANCH   5   6
BRANCH   5  10
ATOM     10  CB  TYR A   1       7.094   6.302  16.894  0.00  0.00    +0.000 C 
BRANCH  10  11
ATOM     11  CG  TYR A   1       6.739   5.391  15.741  0.00  0.00    +0.000 A 
ATOM     12  CD1 TYR A   1       7.611   5.253  14.651  0.00  0.00    +0.000 A 
ATOM     13  CE1 TYR A   1       7.214   4.549  13.514  0.00  0.00    +0.000 A 
ATOM     14  CZ  TYR A   1       5.950   3.973  13.476  0.00  0.00    +0.000 A 
ATOM     15  CE2 TYR A   1       5.097   4.050  14.570  0.00  0.00    +0.000 A 
ATOM     16  CD2 TYR A   1       5.490   4.755  15.705  0.00  0.00    +0.000 A 
BRANCH  14  17
ATOM     17  OH  TYR A   1       5.501   3.327  12.362  0.00  0.00    +0.000 OA
ATOM     18  HH  TYR A   1       4.685   2.852  12.594  0.00  0.00    +0.000 HD
ENDBRANCH  14  17
ENDBRANCH  10  11
ENDBRANCH   5  10
ENDBRANCH   3   5
BRANCH   2  19
ATOM     19  C   UNK A   0       3.482   5.340  19.894  0.00  0.00    +0.000 C 
BRANCH  19  20
ATOM     20  C   UNK A   0       3.021   6.620  19.190  0.00  0.00    +0.000 A 
ATOM     21  C   UNK A   0       2.149   7.513  19.836  0.00  0.00    +0.000 A 
ATOM     22  C   UNK A   0       1.655   8.637  19.176  0.00  0.00    +0.000 A 
ATOM     23  C   UNK A   0       2.041   8.897  17.865  0.00  0.00    +0.000 A 
ATOM     24  C   UNK A   0       2.927   8.037  17.216  0.00  0.00    +0.000 A 
ATOM     25  C   UNK A   0       3.415   6.901  17.872  0.00  0.00    +0.000 A 
ENDBRANCH  19  20
BRANCH  19  26
ATOM     26  C   UNK A   0       2.419   4.233  19.905  0.00  0.00    +0.000 A 
ATOM     27  C   UNK A   0       2.014   3.589  21.086  0.00  0.00    +0.000 A 
ATOM     28  C   UNK A   0       1.052   2.575  21.066  0.00  0.00    +0.000 A 
ATOM     29  C   UNK A   0       0.467   2.192  19.862  0.00  0.00    +0.000 A 
ATOM     30  C   UNK A   0       0.832   2.833  18.683  0.00  0.00    +0.000 A 
ATOM     31  C   UNK A   0       1.793   3.848  18.703  0.00  0.00    +0.000 A 
ENDBRANCH  19  26
ENDBRANCH   2  19
TORSDOF 9
ENDMDL
MODEL 8
REMARK VINA RESULT:      -8.1      1.086      3.842
REMARK  Name = 
REMARK  9 active torsions:
REMARK  status: ('A' for Active; 'I' for Inactive)
REMARK    1  A    between atoms: C_2  and  C_16
REMARK    2  A    between atoms: N_3  and  CA_4
REMARK    3  A    between atoms: CA_4  and  CB_5
REMARK    4  A    between atoms: CA_4  and  C_13
REMARK    5  A    between atoms: CB_5  and  CG_6
REMARK    6  A    between atoms: CZ_9  and  OH_10
REMARK    7  A    between atoms: C_13  and  OXT_15
REMARK    8  A    between atoms: C_16  and  C_17
REMARK    9  A    between atoms: C_16  and  C_23
REMARK                            x       y       z     vdW  Elec       q    Type
REMARK                         _______ _______ _______ _____ _____    ______ ____
ROOT
ATOM      1  O   UNK A   0       4.548   7.269  17.837  0.00  0.00    +0.000 OA
ATOM      2  C   UNK A   0       4.352   6.353  18.639  0.00  0.00    +0.000 C 
ATOM      3  N   TYR A   1       5.298   5.365  18.798  0.00  0.00    +0.000 N 
ATOM      4  H   TYR A   1       5.142   4.571  19.415  0.00  0.00    +0.000 HD
ENDROOT
BRANCH   3   5
ATOM      5  CA  TYR A   1       6.581   5.430  18.096  0.00  0.00    +0.000 C 
BRANCH   5   6
ATOM      6  C   TYR A   1       7.630   6.049  19.028  0.00  0.00    +0.000 C 
ATOM      7  O   TYR A   1       8.327   7.011  18.732  0.00  0.00    +0.000 OA
BRANCH   6   8
ATOM      8  OXT TYR A   1       7.718   5.450  20.241  0.00  0.00    +0.000 OA
ATOM      9  HXT TYR A   1       7.300   4.569  20.294  0.00  0.00    +0.000 HD
ENDBRANCH   6   8
ENDBRANCH   5   6
BRANCH   5  10
ATOM     10  CB  TYR A   1       6.478   6.174  16.748  0.00  0.00    +0.000 C 
BRANCH  10  11
ATOM     11  CG  TYR A   1       6.406   5.234  15.565  0.00  0.00    +0.000 A 
ATOM     12  CD1 TYR A   1       7.392   5.270  14.569  0.00  0.00    +0.000 A 
ATOM     13  CE1 TYR A   1       7.241   4.526  13.399  0.00  0.00    +0.000 A 
ATOM     14  CZ  TYR A   1       6.108   3.739  13.233  0.00  0.00    +0.000 A 
ATOM     15  CE2 TYR A   1       5.149   3.648  14.235  0.00  0.00    +0.000 A 
ATOM     16  CD2 TYR A   1       5.298   4.391  15.403  0.00  0.00    +0.000 A 
BRANCH  14  17
ATOM     17  OH  TYR A   1       5.894   3.043  12.080  0.00  0.00    +0.000 OA
ATOM     18  HH  TYR A   1       5.287   2.309  12.276  0.00  0.00    +0.000 HD
ENDBRANCH  14  17
ENDBRANCH  10  11
ENDBRANCH   5  10
ENDBRANCH   3   5
BRANCH   2  19
ATOM     19  C   UNK A   0       3.076   6.225  19.509  0.00  0.00    +0.000 C 
BRANCH  19  20
ATOM     20  C   UNK A   0       2.225   7.484  19.323  0.00  0.00    +0.000 A 
ATOM     21  C   UNK A   0       2.058   8.047  18.045  0.00  0.00    +0.000 A 
ATOM     22  C   UNK A   0       1.358   9.240  17.874  0.00  0.00    +0.000 A 
ATOM     23  C   UNK A   0       0.796   9.879  18.975  0.00  0.00    +0.000 A 
ATOM     24  C   UNK A   0       0.928   9.321  20.247  0.00  0.00    +0.000 A 
ATOM     25  C   UNK A   0       1.641   8.131  20.424  0.00  0.00    +0.000 A 
ENDBRANCH  19  20
BRANCH  19  26
ATOM     26  C   UNK A   0       2.300   4.923  19.271  0.00  0.00    +0.000 A 
ATOM     27  C   UNK A   0       1.643   4.237  20.307  0.00  0.00    +0.000 A 
ATOM     28  C   UNK A   0       0.953   3.046  20.064  0.00  0.00    +0.000 A 
ATOM     29  C   UNK A   0       0.896   2.522  18.776  0.00  0.00    +0.000 A 
ATOM     30  C   UNK A   0       1.515   3.196  17.729  0.00  0.00    +0.000 A 
ATOM     31  C   UNK A   0       2.206   4.389  17.971  0.00  0.00    +0.000 A 
ENDBRANCH  19  26
ENDBRANCH   2  19
TORSDOF 9
ENDMDL
MODEL 9
REMARK VINA RESULT:      -8.1      1.078      3.807
REMARK  Name = 
REMARK  9 active torsions:
REMARK  status: ('A' for Active; 'I' for Inactive)
REMARK    1  A    between atoms: C_2  and  C_16
REMARK    2  A    between atoms: N_3  and  CA_4
REMARK    3  A    between atoms: CA_4  and  CB_5
REMARK    4  A    between atoms: CA_4  and  C_13
REMARK    5  A    between atoms: CB_5  and  CG_6
REMARK    6  A    between atoms: CZ_9  and  OH_10
REMARK    7  A    between atoms: C_13  and  OXT_15
REMARK    8  A    between atoms: C_16  and  C_17
REMARK    9  A    between atoms: C_16  and  C_23
REMARK                            x       y       z     vdW  Elec       q    Type
REMARK                         _______ _______ _______ _____ _____    ______ ____
ROOT
ATOM      1  O   UNK A   0       4.376   6.959  17.528  0.00  0.00    +0.000 OA
ATOM      2  C   UNK A   0       4.339   6.258  18.543  0.00  0.00    +0.000 C 
ATOM      3  N   TYR A   1       5.412   5.458  18.865  0.00  0.00    +0.000 N 
ATOM      4  H   TYR A   1       5.389   4.833  19.668  0.00  0.00    +0.000 HD
ENDROOT
BRANCH   3   5
ATOM      5  CA  TYR A   1       6.642   5.492  18.072  0.00  0.00    +0.000 C 
BRANCH   5   6
ATOM      6  C   TYR A   1       7.758   6.134  18.907  0.00  0.00    +0.000 C 
ATOM      7  O   TYR A   1       8.279   7.210  18.643  0.00  0.00    +0.000 OA
BRANCH   6   8
ATOM      8  OXT TYR A   1       8.121   5.413  19.996  0.00  0.00    +0.000 OA
ATOM      9  HXT TYR A   1       8.184   5.925  20.825  0.00  0.00    +0.000 HD
ENDBRANCH   6   8
ENDBRANCH   5   6
BRANCH   5  10
ATOM     10  CB  TYR A   1       6.447   6.192  16.711  0.00  0.00    +0.000 C 
BRANCH  10  11
ATOM     11  CG  TYR A   1       6.421   5.221  15.552  0.00  0.00    +0.000 A 
ATOM     12  CD1 TYR A   1       7.396   5.289  14.547  0.00  0.00    +0.000 A 
ATOM     13  CE1 TYR A   1       7.279   4.509  13.396  0.00  0.00    +0.000 A 
ATOM     14  CZ  TYR A   1       6.193   3.654  13.259  0.00  0.00    +0.000 A 
ATOM     15  CE2 TYR A   1       5.249   3.532  14.271  0.00  0.00    +0.000 A 
ATOM     16  CD2 TYR A   1       5.362   4.312  15.420  0.00  0.00    +0.000 A 
BRANCH  14  17
ATOM     17  OH  TYR A   1       6.010   2.919  12.125  0.00  0.00    +0.000 OA
ATOM     18  HH  TYR A   1       6.145   1.982  12.345  0.00  0.00    +0.000 HD
ENDBRANCH  14  17
ENDBRANCH  10  11
ENDBRANCH   5  10
ENDBRANCH   3   5
BRANCH   2  19
ATOM     19  C   UNK A   0       3.132   6.207  19.513  0.00  0.00    +0.000 C 
BRANCH  19  20
ATOM     20  C   UNK A   0       2.316   7.493  19.351  0.00  0.00    +0.000 A 
ATOM     21  C   UNK A   0       1.668   8.069  20.459  0.00  0.00    +0.000 A 
ATOM     22  C   UNK A   0       0.853   9.190  20.310  0.00  0.00    +0.000 A 
ATOM     23  C   UNK A   0       0.688   9.766  19.054  0.00  0.00    +0.000 A 
ATOM     24  C   UNK A   0       1.345   9.225  17.948  0.00  0.00    +0.000 A 
ATOM     25  C   UNK A   0       2.153   8.093  18.092  0.00  0.00    +0.000 A 
ENDBRANCH  19  20
BRANCH  19  26
ATOM     26  C   UNK A   0       2.291   4.930  19.380  0.00  0.00    +0.000 A 
ATOM     27  C   UNK A   0       2.042   4.318  18.140  0.00  0.00    +0.000 A 
ATOM     28  C   UNK A   0       1.263   3.162  18.047  0.00  0.00    +0.000 A 
ATOM     29  C   UNK A   0       0.724   2.588  19.195  0.00  0.00    +0.000 A 
ATOM     30  C   UNK A   0       0.978   3.160  20.437  0.00  0.00    +0.000 A 
ATOM     31  C   UNK A   0       1.760   4.317  20.531  0.00  0.00    +0.000 A 
ENDBRANCH  19  26
ENDBRANCH   2  19
TORSDOF 9
ENDMDL
