MODEL 1
REMARK VINA RESULT:      -9.2      0.000      0.000
REMARK  Name = 
REMARK  4 active torsions:
REMARK  status: ('A' for Active; 'I' for Inactive)
REMARK    1  A    between atoms: C_2  and  C_3
REMARK    2  A    between atoms: C_3  and  N_4
REMARK    3  A    between atoms: C_6  and  C_7
REMARK    4  A    between atoms: N_18  and  C_19
REMARK                            x       y       z     vdW  Elec       q    Type
REMARK                         _______ _______ _______ _____ _____    ______ ____
ROOT
ATOM      1  N   UNL     1       6.735   5.650  17.654  0.00  0.00    +0.000 N 
ATOM      2  N   UNL     1       5.673   5.407  18.494  0.00  0.00    +0.000 NA
ATOM      3  C   UNL     1       4.661   4.735  18.038  0.00  0.00    +0.000 A 
ATOM      4  C   UNL     1       4.621   4.176  16.662  0.00  0.00    +0.000 A 
ATOM      5  C   UNL     1       5.611   4.513  15.835  0.00  0.00    +0.000 A 
ATOM      6  C   UNL     1       6.726   5.355  16.304  0.00  0.00    +0.000 A 
ATOM      7  O   UNL     1       7.577   5.749  15.508  0.00  0.00    +0.000 OA
ENDROOT
BRANCH   3   8
ATOM      8  C   UNL     1       3.457   4.508  18.905  0.00  0.00    +0.000 A 
ATOM      9  C   UNL     1       2.874   5.613  19.557  0.00  0.00    +0.000 A 
ATOM     10  C   UNL     1       1.771   5.455  20.401  0.00  0.00    +0.000 A 
ATOM     11  C   UNL     1       1.248   4.189  20.631  0.00  0.00    +0.000 A 
ATOM     12  C   UNL     1       1.823   3.082  20.010  0.00  0.00    +0.000 A 
ATOM     13  C   UNL     1       2.918   3.231  19.144  0.00  0.00    +0.000 A 
ATOM     14 CL   UNL     1       3.480   1.782  18.386  0.00  0.00    +0.000 Cl
ENDBRANCH   3   8
BRANCH   1  15
ATOM     15  C   UNL     1       7.903   6.283  18.255  0.00  0.00    +0.000 C 
BRANCH  15  17
ATOM     16  O   UNL     1       7.134   8.338  17.303  0.00  0.00    +0.000 OA
ATOM     17  C   UNL     1       7.921   7.798  18.077  0.00  0.00    +0.000 C 
ATOM     18  N   UNL     1       8.819   8.457  18.908  0.00  0.00    +0.000 N 
ATOM     19  H   UNL     1       9.465   7.872  19.436  0.00  0.00    +0.000 HD
BRANCH  18  20
ATOM     20  C   UNL     1       9.016   9.851  18.978  0.00  0.00    +0.000 A 
ATOM     21  C   UNL     1       9.007  10.683  17.854  0.00  0.00    +0.000 A 
ATOM     22  C   UNL     1       9.282  12.048  17.972  0.00  0.00    +0.000 A 
ATOM     23  C   UNL     1       9.564  12.587  19.222  0.00  0.00    +0.000 A 
ATOM     24 BR   UNL     1      10.009  14.418  19.371  0.00  0.00    +0.000 Br
ATOM     25  C   UNL     1       9.531  11.782  20.359  0.00  0.00    +0.000 A 
ATOM     26  C   UNL     1       9.243  10.419  20.237  0.00  0.00    +0.000 A 
ENDBRANCH  18  20
ENDBRANCH  15  17
ENDBRANCH   1  15
TORSDOF 4
ENDMDL
MODEL 2
REMARK VINA RESULT:      -9.1      1.134      1.456
REMARK  Name = 
REMARK  4 active torsions:
REMARK  status: ('A' for Active; 'I' for Inactive)
REMARK    1  A    between atoms: C_2  and  C_3
REMARK    2  A    between atoms: C_3  and  N_4
REMARK    3  A    between atoms: C_6  and  C_7
REMARK    4  A    between atoms: N_18  and  C_19
REMARK                            x       y       z     vdW  Elec       q    Type
REMARK                         _______ _______ _______ _____ _____    ______ ____
ROOT
ATOM      1  N   UNL     1       6.778   5.695  17.832  0.00  0.00    +0.000 N 
ATOM      2  N   UNL     1       5.784   5.424  18.744  0.00  0.00    +0.000 NA
ATOM      3  C   UNL     1       4.757   4.731  18.357  0.00  0.00    +0.000 A 
ATOM      4  C   UNL     1       4.633   4.178  16.984  0.00  0.00    +0.000 A 
ATOM      5  C   UNL     1       5.554   4.540  16.091  0.00  0.00    +0.000 A 
ATOM      6  C   UNL     1       6.680   5.405  16.484  0.00  0.00    +0.000 A 
ATOM      7  O   UNL     1       7.464   5.821  15.633  0.00  0.00    +0.000 OA
ENDROOT
BRANCH   3   8
ATOM      8  C   UNL     1       3.623   4.474  19.305  0.00  0.00    +0.000 A 
ATOM      9  C   UNL     1       3.507   3.198  19.892  0.00  0.00    +0.000 A 
ATOM     10  C   UNL     1       2.452   2.892  20.756  0.00  0.00    +0.000 A 
ATOM     11  C   UNL     1       1.480   3.846  21.029  0.00  0.00    +0.000 A 
ATOM     12  C   UNL     1       1.567   5.107  20.443  0.00  0.00    +0.000 A 
ATOM     13  C   UNL     1       2.633   5.431  19.590  0.00  0.00    +0.000 A 
ATOM     14 CL   UNL     1       2.654   7.056  18.995  0.00  0.00    +0.000 Cl
ENDBRANCH   3   8
BRANCH   1  15
ATOM     15  C   UNL     1       7.972   6.352  18.353  0.00  0.00    +0.000 C 
BRANCH  15  17
ATOM     16  O   UNL     1       7.110   8.387  17.438  0.00  0.00    +0.000 OA
ATOM     17  C   UNL     1       7.951   7.865  18.167  0.00  0.00    +0.000 C 
ATOM     18  N   UNL     1       8.883   8.545  18.941  0.00  0.00    +0.000 N 
ATOM     19  H   UNL     1       9.570   7.975  19.433  0.00  0.00    +0.000 HD
BRANCH  18  20
ATOM     20  C   UNL     1       9.058   9.943  18.994  0.00  0.00    +0.000 A 
ATOM     21  C   UNL     1       9.083  10.754  17.855  0.00  0.00    +0.000 A 
ATOM     22  C   UNL     1       9.334  12.125  17.959  0.00  0.00    +0.000 A 
ATOM     23  C   UNL     1       9.558  12.691  19.209  0.00  0.00    +0.000 A 
ATOM     24 BR   UNL     1       9.971  14.530  19.342  0.00  0.00    +0.000 Br
ATOM     25  C   UNL     1       9.490  11.906  20.358  0.00  0.00    +0.000 A 
ATOM     26  C   UNL     1       9.226  10.536  20.251  0.00  0.00    +0.000 A 
ENDBRANCH  18  20
ENDBRANCH  15  17
ENDBRANCH   1  15
TORSDOF 4
ENDMDL
MODEL 3
REMARK VINA RESULT:      -8.5      4.204      6.883
REMARK  Name = 
REMARK  4 active torsions:
REMARK  status: ('A' for Active; 'I' for Inactive)
REMARK    1  A    between atoms: C_2  and  C_3
REMARK    2  A    between atoms: C_3  and  N_4
REMARK    3  A    between atoms: C_6  and  C_7
REMARK    4  A    between atoms: N_18  and  C_19
REMARK                            x       y       z     vdW  Elec       q    Type
REMARK                         _______ _______ _______ _____ _____    ______ ____
ROOT
ATOM      1  N   UNL     1       3.372   3.713  19.532  0.00  0.00    +0.000 N 
ATOM      2  N   UNL     1       4.320   4.700  19.397  0.00  0.00    +0.000 NA
ATOM      3  C   UNL     1       5.075   4.699  18.343  0.00  0.00    +0.000 A 
ATOM      4  C   UNL     1       4.927   3.702  17.250  0.00  0.00    +0.000 A 
ATOM      5  C   UNL     1       4.076   2.696  17.449  0.00  0.00    +0.000 A 
ATOM      6  C   UNL     1       3.274   2.626  18.684  0.00  0.00    +0.000 A 
ATOM      7  O   UNL     1       2.574   1.640  18.907  0.00  0.00    +0.000 OA
ENDROOT
BRANCH   3   8
ATOM      8  C   UNL     1       6.164   5.720  18.195  0.00  0.00    +0.000 A 
ATOM      9  C   UNL     1       7.244   5.695  19.101  0.00  0.00    +0.000 A 
ATOM     10  C   UNL     1       8.269   6.642  19.030  0.00  0.00    +0.000 A 
ATOM     11  C   UNL     1       8.222   7.648  18.073  0.00  0.00    +0.000 A 
ATOM     12  C   UNL     1       7.152   7.700  17.181  0.00  0.00    +0.000 A 
ATOM     13  C   UNL     1       6.128   6.742  17.229  0.00  0.00    +0.000 A 
ATOM     14 CL   UNL     1       4.905   6.886  16.015  0.00  0.00    +0.000 Cl
ENDBRANCH   3   8
BRANCH   1  15
ATOM     15  C   UNL     1       2.458   3.843  20.661  0.00  0.00    +0.000 C 
BRANCH  15  17
ATOM     16  O   UNL     1       0.325   4.916  20.520  0.00  0.00    +0.000 OA
ATOM     17  C   UNL     1       1.545   5.060  20.554  0.00  0.00    +0.000 C 
ATOM     18  N   UNL     1       2.215   6.277  20.584  0.00  0.00    +0.000 N 
ATOM     19  H   UNL     1       3.232   6.239  20.529  0.00  0.00    +0.000 HD
BRANCH  18  20
ATOM     20  C   UNL     1       1.620   7.554  20.539  0.00  0.00    +0.000 A 
ATOM     21  C   UNL     1       0.916   8.109  21.612  0.00  0.00    +0.000 A 
ATOM     22  C   UNL     1       0.283   9.349  21.487  0.00  0.00    +0.000 A 
ATOM     23  C   UNL     1       0.356  10.040  20.283  0.00  0.00    +0.000 A 
ATOM     24 BR   UNL     1      -0.563  11.681  20.091  0.00  0.00    +0.000 Br
ATOM     25  C   UNL     1       1.092   9.524  19.219  0.00  0.00    +0.000 A 
ATOM     26  C   UNL     1       1.735   8.289  19.353  0.00  0.00    +0.000 A 
ENDBRANCH  18  20
ENDBRANCH  15  17
ENDBRANCH   1  15
TORSDOF 4
ENDMDL
MODEL 4
REMARK VINA RESULT:      -8.4      4.177      6.753
REMARK  Name = 
REMARK  4 active torsions:
REMARK  status: ('A' for Active; 'I' for Inactive)
REMARK    1  A    between atoms: C_2  and  C_3
REMARK    2  A    between atoms: C_3  and  N_4
REMARK    3  A    between atoms: C_6  and  C_7
REMARK    4  A    between atoms: N_18  and  C_19
REMARK                            x       y       z     vdW  Elec       q    Type
REMARK                         _______ _______ _______ _____ _____    ______ ____
ROOT
ATOM      1  N   UNL     1       3.248   3.861  19.704  0.00  0.00    +0.000 N 
ATOM      2  N   UNL     1       4.219   4.817  19.518  0.00  0.00    +0.000 NA
ATOM      3  C   UNL     1       4.977   4.738  18.468  0.00  0.00    +0.000 A 
ATOM      4  C   UNL     1       4.809   3.684  17.434  0.00  0.00    +0.000 A 
ATOM      5  C   UNL     1       3.934   2.710  17.686  0.00  0.00    +0.000 A 
ATOM      6  C   UNL     1       3.128   2.729  18.920  0.00  0.00    +0.000 A 
ATOM      7  O   UNL     1       2.404   1.774  19.197  0.00  0.00    +0.000 OA
ENDROOT
BRANCH   3   8
ATOM      8  C   UNL     1       6.089   5.724  18.266  0.00  0.00    +0.000 A 
ATOM      9  C   UNL     1       7.199   5.680  19.134  0.00  0.00    +0.000 A 
ATOM     10  C   UNL     1       8.249   6.595  19.013  0.00  0.00    +0.000 A 
ATOM     11  C   UNL     1       8.197   7.587  18.042  0.00  0.00    +0.000 A 
ATOM     12  C   UNL     1       7.099   7.658  17.186  0.00  0.00    +0.000 A 
ATOM     13  C   UNL     1       6.049   6.732  17.286  0.00  0.00    +0.000 A 
ATOM     14 CL   UNL     1       4.789   6.894  16.112  0.00  0.00    +0.000 Cl
ENDBRANCH   3   8
BRANCH   1  15
ATOM     15  C   UNL     1       2.334   4.076  20.821  0.00  0.00    +0.000 C 
BRANCH  15  17
ATOM     16  O   UNL     1       0.239   5.195  20.542  0.00  0.00    +0.000 OA
ATOM     17  C   UNL     1       1.458   5.312  20.646  0.00  0.00    +0.000 C 
ATOM     18  N   UNL     1       2.154   6.514  20.702  0.00  0.00    +0.000 N 
ATOM     19  H   UNL     1       3.171   6.452  20.707  0.00  0.00    +0.000 HD
BRANCH  18  20
ATOM     20  C   UNL     1       1.593   7.803  20.606  0.00  0.00    +0.000 A 
ATOM     21  C   UNL     1       1.501   8.511  19.404  0.00  0.00    +0.000 A 
ATOM     22  C   UNL     1       1.003   9.816  19.378  0.00  0.00    +0.000 A 
ATOM     23  C   UNL     1       0.591  10.418  20.561  0.00  0.00    +0.000 A 
ATOM     24 BR   UNL     1      -0.012  12.210  20.537  0.00  0.00    +0.000 Br
ATOM     25  C   UNL     1       0.631   9.712  21.761  0.00  0.00    +0.000 A 
ATOM     26  C   UNL     1       1.118   8.400  21.780  0.00  0.00    +0.000 A 
ENDBRANCH  18  20
ENDBRANCH  15  17
ENDBRANCH   1  15
TORSDOF 4
ENDMDL
MODEL 5
REMARK VINA RESULT:      -8.3      6.164      8.282
REMARK  Name = 
REMARK  4 active torsions:
REMARK  status: ('A' for Active; 'I' for Inactive)
REMARK    1  A    between atoms: C_2  and  C_3
REMARK    2  A    between atoms: C_3  and  N_4
REMARK    3  A    between atoms: C_6  and  C_7
REMARK    4  A    between atoms: N_18  and  C_19
REMARK                            x       y       z     vdW  Elec       q    Type
REMARK                         _______ _______ _______ _____ _____    ______ ____
ROOT
ATOM      1  N   UNL     1       1.769   8.072  20.184  0.00  0.00    +0.000 N 
ATOM      2  N   UNL     1       2.022   6.723  20.101  0.00  0.00    +0.000 NA
ATOM      3  C   UNL     1       2.383   6.226  18.958  0.00  0.00    +0.000 A 
ATOM      4  C   UNL     1       2.581   7.063  17.746  0.00  0.00    +0.000 A 
ATOM      5  C   UNL     1       2.230   8.346  17.822  0.00  0.00    +0.000 A 
ATOM      6  C   UNL     1       1.728   8.912  19.087  0.00  0.00    +0.000 A 
ATOM      7  O   UNL     1       1.306  10.066  19.120  0.00  0.00    +0.000 OA
ENDROOT
BRANCH   3   8
ATOM      8  C   UNL     1       2.601   4.749  18.815  0.00  0.00    +0.000 A 
ATOM      9  C   UNL     1       1.493   3.924  18.533  0.00  0.00    +0.000 A 
ATOM     10  C   UNL     1       1.633   2.538  18.421  0.00  0.00    +0.000 A 
ATOM     11  C   UNL     1       2.875   1.948  18.615  0.00  0.00    +0.000 A 
ATOM     12  C   UNL     1       3.979   2.745  18.914  0.00  0.00    +0.000 A 
ATOM     13  C   UNL     1       3.854   4.139  19.008  0.00  0.00    +0.000 A 
ATOM     14 CL   UNL     1       5.319   5.008  19.309  0.00  0.00    +0.000 Cl
ENDBRANCH   3   8
BRANCH   1  15
ATOM     15  C   UNL     1       1.507   8.601  21.518  0.00  0.00    +0.000 C 
BRANCH  15  17
ATOM     16  O   UNL     1      -0.867   8.404  21.729  0.00  0.00    +0.000 OA
ATOM     17  C   UNL     1       0.098   9.163  21.672  0.00  0.00    +0.000 C 
ATOM     18  N   UNL     1       0.051  10.544  21.819  0.00  0.00    +0.000 N 
ATOM     19  H   UNL     1       0.923  11.049  21.667  0.00  0.00    +0.000 HD
BRANCH  18  20
ATOM     20  C   UNL     1      -1.110  11.319  22.013  0.00  0.00    +0.000 A 
ATOM     21  C   UNL     1      -1.763  11.424  23.245  0.00  0.00    +0.000 A 
ATOM     22  C   UNL     1      -2.953  12.147  23.365  0.00  0.00    +0.000 A 
ATOM     23  C   UNL     1      -3.493  12.773  22.247  0.00  0.00    +0.000 A 
ATOM     24 BR   UNL     1      -5.141  13.687  22.394  0.00  0.00    +0.000 Br
ATOM     25  C   UNL     1      -2.832  12.719  21.022  0.00  0.00    +0.000 A 
ATOM     26  C   UNL     1      -1.634  12.005  20.910  0.00  0.00    +0.000 A 
ENDBRANCH  18  20
ENDBRANCH  15  17
ENDBRANCH   1  15
TORSDOF 4
ENDMDL
MODEL 6
REMARK VINA RESULT:      -8.2      5.069      6.681
REMARK  Name = 
REMARK  4 active torsions:
REMARK  status: ('A' for Active; 'I' for Inactive)
REMARK    1  A    between atoms: C_2  and  C_3
REMARK    2  A    between atoms: C_3  and  N_4
REMARK    3  A    between atoms: C_6  and  C_7
REMARK    4  A    between atoms: N_18  and  C_19
REMARK                            x       y       z     vdW  Elec       q    Type
REMARK                         _______ _______ _______ _____ _____    ______ ____
ROOT
ATOM      1  N   UNL     1       3.020   3.725  19.840  0.00  0.00    +0.000 N 
ATOM      2  N   UNL     1       3.924   4.261  18.953  0.00  0.00    +0.000 NA
ATOM      3  C   UNL     1       4.205   3.598  17.874  0.00  0.00    +0.000 A 
ATOM      4  C   UNL     1       3.554   2.307  17.532  0.00  0.00    +0.000 A 
ATOM      5  C   UNL     1       2.762   1.757  18.452  0.00  0.00    +0.000 A 
ATOM      6  C   UNL     1       2.503   2.448  19.728  0.00  0.00    +0.000 A 
ATOM      7  O   UNL     1       1.860   1.887  20.613  0.00  0.00    +0.000 OA
ENDROOT
BRANCH   3   8
ATOM      8  C   UNL     1       5.236   4.120  16.917  0.00  0.00    +0.000 A 
ATOM      9  C   UNL     1       5.067   3.876  15.539  0.00  0.00    +0.000 A 
ATOM     10  C   UNL     1       6.013   4.310  14.606  0.00  0.00    +0.000 A 
ATOM     11  C   UNL     1       7.157   4.971  15.033  0.00  0.00    +0.000 A 
ATOM     12  C   UNL     1       7.351   5.205  16.394  0.00  0.00    +0.000 A 
ATOM     13  C   UNL     1       6.398   4.791  17.337  0.00  0.00    +0.000 A 
ATOM     14 CL   UNL     1       6.734   5.215  18.981  0.00  0.00    +0.000 Cl
ENDBRANCH   3   8
BRANCH   1  15
ATOM     15  C   UNL     1       2.634   4.574  20.962  0.00  0.00    +0.000 C 
BRANCH  15  17
ATOM     16  O   UNL     1       0.505   5.609  20.624  0.00  0.00    +0.000 OA
ATOM     17  C   UNL     1       1.726   5.729  20.554  0.00  0.00    +0.000 C 
ATOM     18  N   UNL     1       2.407   6.888  20.200  0.00  0.00    +0.000 N 
ATOM     19  H   UNL     1       3.418   6.812  20.107  0.00  0.00    +0.000 HD
BRANCH  18  20
ATOM     20  C   UNL     1       1.820   8.111  19.817  0.00  0.00    +0.000 A 
ATOM     21  C   UNL     1       1.897   8.623  18.518  0.00  0.00    +0.000 A 
ATOM     22  C   UNL     1       1.361   9.877  18.211  0.00  0.00    +0.000 A 
ATOM     23  C   UNL     1       0.741  10.622  19.207  0.00  0.00    +0.000 A 
ATOM     24 BR   UNL     1       0.083  12.349  18.809  0.00  0.00    +0.000 Br
ATOM     25  C   UNL     1       0.613  10.107  20.495  0.00  0.00    +0.000 A 
ATOM     26  C   UNL     1       1.140   8.846  20.795  0.00  0.00    +0.000 A 
ENDBRANCH  18  20
ENDBRANCH  15  17
ENDBRANCH   1  15
TORSDOF 4
ENDMDL
MODEL 7
REMARK VINA RESULT:      -8.1      5.254      7.008
REMARK  Name = 
REMARK  4 active torsions:
REMARK  status: ('A' for Active; 'I' for Inactive)
REMARK    1  A    between atoms: C_2  and  C_3
REMARK    2  A    between atoms: C_3  and  N_4
REMARK    3  A    between atoms: C_6  and  C_7
REMARK    4  A    between atoms: N_18  and  C_19
REMARK                            x       y       z     vdW  Elec       q    Type
REMARK                         _______ _______ _______ _____ _____    ______ ____
ROOT
ATOM      1  N   UNL     1       3.195   3.841  19.742  0.00  0.00    +0.000 N 
ATOM      2  N   UNL     1       4.060   4.336  18.795  0.00  0.00    +0.000 NA
ATOM      3  C   UNL     1       4.267   3.642  17.718  0.00  0.00    +0.000 A 
ATOM      4  C   UNL     1       3.572   2.358  17.445  0.00  0.00    +0.000 A 
ATOM      5  C   UNL     1       2.820   1.847  18.420  0.00  0.00    +0.000 A 
ATOM      6  C   UNL     1       2.646   2.574  19.690  0.00  0.00    +0.000 A 
ATOM      7  O   UNL     1       2.041   2.048  20.623  0.00  0.00    +0.000 OA
ENDROOT
BRANCH   3   8
ATOM      8  C   UNL     1       5.255   4.118  16.694  0.00  0.00    +0.000 A 
ATOM      9  C   UNL     1       4.964   3.920  15.329  0.00  0.00    +0.000 A 
ATOM     10  C   UNL     1       5.863   4.314  14.334  0.00  0.00    +0.000 A 
ATOM     11  C   UNL     1       7.079   4.886  14.683  0.00  0.00    +0.000 A 
ATOM     12  C   UNL     1       7.393   5.073  16.028  0.00  0.00    +0.000 A 
ATOM     13  C   UNL     1       6.489   4.700  17.035  0.00  0.00    +0.000 A 
ATOM     14 CL   UNL     1       6.978   5.058  18.655  0.00  0.00    +0.000 Cl
ENDBRANCH   3   8
BRANCH   1  15
ATOM     15  C   UNL     1       2.890   4.724  20.863  0.00  0.00    +0.000 C 
BRANCH  15  17
ATOM     16  O   UNL     1       0.637   5.399  20.430  0.00  0.00    +0.000 OA
ATOM     17  C   UNL     1       1.809   5.750  20.538  0.00  0.00    +0.000 C 
ATOM     18  N   UNL     1       2.271   7.059  20.471  0.00  0.00    +0.000 N 
ATOM     19  H   UNL     1       3.282   7.187  20.498  0.00  0.00    +0.000 HD
BRANCH  18  20
ATOM     20  C   UNL     1       1.488   8.204  20.224  0.00  0.00    +0.000 A 
ATOM     21  C   UNL     1       0.621   8.757  21.171  0.00  0.00    +0.000 A 
ATOM     22  C   UNL     1      -0.188   9.850  20.848  0.00  0.00    +0.000 A 
ATOM     23  C   UNL     1      -0.128  10.397  19.572  0.00  0.00    +0.000 A 
ATOM     24 BR   UNL     1      -1.276  11.827  19.113  0.00  0.00    +0.000 Br
ATOM     25  C   UNL     1       0.764   9.889  18.630  0.00  0.00    +0.000 A 
ATOM     26  C   UNL     1       1.581   8.803  18.962  0.00  0.00    +0.000 A 
ENDBRANCH  18  20
ENDBRANCH  15  17
ENDBRANCH   1  15
TORSDOF 4
ENDMDL
MODEL 8
REMARK VINA RESULT:      -8.1      7.176      9.532
REMARK  Name = 
REMARK  4 active torsions:
REMARK  status: ('A' for Active; 'I' for Inactive)
REMARK    1  A    between atoms: C_2  and  C_3
REMARK    2  A    between atoms: C_3  and  N_4
REMARK    3  A    between atoms: C_6  and  C_7
REMARK    4  A    between atoms: N_18  and  C_19
REMARK                            x       y       z     vdW  Elec       q    Type
REMARK                         _______ _______ _______ _____ _____    ______ ____
ROOT
ATOM      1  N   UNL     1       0.493  10.972  20.666  0.00  0.00    +0.000 N 
ATOM      2  N   UNL     1      -0.585  10.630  19.884  0.00  0.00    +0.000 NA
ATOM      3  C   UNL     1      -0.870  11.373  18.859  0.00  0.00    +0.000 A 
ATOM      4  C   UNL     1      -0.050  12.548  18.466  0.00  0.00    +0.000 A 
ATOM      5  C   UNL     1       0.925  12.921  19.295  0.00  0.00    +0.000 A 
ATOM      6  C   UNL     1       1.206  12.147  20.518  0.00  0.00    +0.000 A 
ATOM      7  O   UNL     1       2.032  12.557  21.330  0.00  0.00    +0.000 OA
ENDROOT
BRANCH   3   8
ATOM      8  C   UNL     1      -2.078  11.070  18.022  0.00  0.00    +0.000 A 
ATOM      9  C   UNL     1      -1.920  10.283  16.863  0.00  0.00    +0.000 A 
ATOM     10  C   UNL     1      -3.004   9.997  16.030  0.00  0.00    +0.000 A 
ATOM     11  C   UNL     1      -4.260  10.513  16.323  0.00  0.00    +0.000 A 
ATOM     12  C   UNL     1      -4.433  11.308  17.454  0.00  0.00    +0.000 A 
ATOM     13  C   UNL     1      -3.354  11.585  18.309  0.00  0.00    +0.000 A 
ATOM     14 CL   UNL     1      -3.730  12.522  19.714  0.00  0.00    +0.000 Cl
ENDBRANCH   3   8
BRANCH   1  15
ATOM     15  C   UNL     1       0.854  10.028  21.718  0.00  0.00    +0.000 C 
BRANCH  15  17
ATOM     16  O   UNL     1      -0.225   7.902  21.523  0.00  0.00    +0.000 OA
ATOM     17  C   UNL     1       0.773   8.573  21.269  0.00  0.00    +0.000 C 
ATOM     18  N   UNL     1       1.859   8.152  20.511  0.00  0.00    +0.000 N 
ATOM     19  H   UNL     1       2.650   8.791  20.453  0.00  0.00    +0.000 HD
BRANCH  18  20
ATOM     20  C   UNL     1       2.028   6.875  19.939  0.00  0.00    +0.000 A 
ATOM     21  C   UNL     1       1.789   5.686  20.637  0.00  0.00    +0.000 A 
ATOM     22  C   UNL     1       2.044   4.446  20.045  0.00  0.00    +0.000 A 
ATOM     23  C   UNL     1       2.536   4.392  18.746  0.00  0.00    +0.000 A 
ATOM     24 BR   UNL     1       2.951   2.717  17.973  0.00  0.00    +0.000 Br
ATOM     25  C   UNL     1       2.735   5.564  18.019  0.00  0.00    +0.000 A 
ATOM     26  C   UNL     1       2.466   6.803  18.611  0.00  0.00    +0.000 A 
ENDBRANCH  18  20
ENDBRANCH  15  17
ENDBRANCH   1  15
TORSDOF 4
ENDMDL
MODEL 9
REMARK VINA RESULT:      -8.0      6.088      8.227
REMARK  Name = 
REMARK  4 active torsions:
REMARK  status: ('A' for Active; 'I' for Inactive)
REMARK    1  A    between atoms: C_2  and  C_3
REMARK    2  A    between atoms: C_3  and  N_4
REMARK    3  A    between atoms: C_6  and  C_7
REMARK    4  A    between atoms: N_18  and  C_19
REMARK                            x       y       z     vdW  Elec       q    Type
REMARK                         _______ _______ _______ _____ _____    ______ ____
ROOT
ATOM      1  N   UNL     1       1.803   7.953  20.186  0.00  0.00    +0.000 N 
ATOM      2  N   UNL     1       2.095   6.619  20.022  0.00  0.00    +0.000 NA
ATOM      3  C   UNL     1       2.480   6.205  18.855  0.00  0.00    +0.000 A 
ATOM      4  C   UNL     1       2.665   7.121  17.699  0.00  0.00    +0.000 A 
ATOM      5  C   UNL     1       2.277   8.387  17.851  0.00  0.00    +0.000 A 
ATOM      6  C   UNL     1       1.747   8.858  19.143  0.00  0.00    +0.000 A 
ATOM      7  O   UNL     1       1.291   9.996  19.243  0.00  0.00    +0.000 OA
ENDROOT
BRANCH   3   8
ATOM      8  C   UNL     1       2.742   4.746  18.622  0.00  0.00    +0.000 A 
ATOM      9  C   UNL     1       3.767   4.377  17.728  0.00  0.00    +0.000 A 
ATOM     10  C   UNL     1       4.034   3.033  17.449  0.00  0.00    +0.000 A 
ATOM     11  C   UNL     1       3.265   2.036  18.035  0.00  0.00    +0.000 A 
ATOM     12  C   UNL     1       2.234   2.383  18.908  0.00  0.00    +0.000 A 
ATOM     13  C   UNL     1       1.971   3.728  19.211  0.00  0.00    +0.000 A 
ATOM     14 CL   UNL     1       0.714   4.007  20.366  0.00  0.00    +0.000 Cl
ENDBRANCH   3   8
BRANCH   1  15
ATOM     15  C   UNL     1       1.513   8.389  21.548  0.00  0.00    +0.000 C 
BRANCH  15  17
ATOM     16  O   UNL     1      -0.865   8.277  21.773  0.00  0.00    +0.000 OA
ATOM     17  C   UNL     1       0.125   9.002  21.697  0.00  0.00    +0.000 C 
ATOM     18  N   UNL     1       0.124  10.386  21.817  0.00  0.00    +0.000 N 
ATOM     19  H   UNL     1       1.012  10.858  21.651  0.00  0.00    +0.000 HD
BRANCH  18  20
ATOM     20  C   UNL     1      -1.009  11.203  22.001  0.00  0.00    +0.000 A 
ATOM     21  C   UNL     1      -1.645  11.362  23.236  0.00  0.00    +0.000 A 
ATOM     22  C   UNL     1      -2.810  12.127  23.347  0.00  0.00    +0.000 A 
ATOM     23  C   UNL     1      -3.341  12.739  22.218  0.00  0.00    +0.000 A 
ATOM     24 BR   UNL     1      -4.957  13.710  22.355  0.00  0.00    +0.000 Br
ATOM     25  C   UNL     1      -2.695  12.631  20.989  0.00  0.00    +0.000 A 
ATOM     26  C   UNL     1      -1.521  11.876  20.885  0.00  0.00    +0.000 A 
ENDBRANCH  18  20
ENDBRANCH  15  17
ENDBRANCH   1  15
TORSDOF 4
ENDMDL
