MODEL 1
REMARK VINA RESULT:      -9.3      0.000      0.000
REMARK  Name = 
REMARK  8 active torsions:
REMARK  status: ('A' for Active; 'I' for Inactive)
REMARK    1  A    between atoms: C_1  and  C_2
REMARK    2  A    between atoms: C_7  and  O_8
REMARK    3  A    between atoms: O_8  and  C_9
REMARK    4  A    between atoms: C_9  and  C_10
REMARK    5  A    between atoms: N_12  and  C_13
REMARK    6  A    between atoms: C_16  and  C_17
REMARK    7  A    between atoms: C_21  and  C_22
REMARK    8  A    between atoms: C_27  and  C_28
REMARK                            x       y       z     vdW  Elec       q    Type
REMARK                         _______ _______ _______ _____ _____    ______ ____
ROOT
ATOM      1  C   UNL     1      -0.083  10.506  20.046  0.00  0.00    +0.000 A 
ATOM      2  C   UNL     1       0.355   9.422  20.806  0.00  0.00    +0.000 A 
ATOM      3  C   UNL     1       1.218   8.482  20.229  0.00  0.00    +0.000 A 
ATOM      4  C   UNL     1       1.688   8.605  18.900  0.00  0.00    +0.000 A 
ATOM      5  C   UNL     1       1.311   9.737  18.184  0.00  0.00    +0.000 A 
ATOM      6  C   UNL     1       0.401  10.654  18.741  0.00  0.00    +0.000 A 
ENDROOT
BRANCH   4   7
ATOM      7  C   UNL     1       2.521   7.535  18.364  0.00  0.00    +0.000 A 
ATOM      8  N   UNL     1       3.692   7.705  17.777  0.00  0.00    +0.000 NA
ATOM      9  C   UNL     1       4.073   6.463  17.397  0.00  0.00    +0.000 A 
ATOM     10  C   UNL     1       5.195   6.107  16.654  0.00  0.00    +0.000 A 
ATOM     11  C   UNL     1       5.308   4.789  16.206  0.00  0.00    +0.000 A 
ATOM     12  C   UNL     1       4.401   3.824  16.685  0.00  0.00    +0.000 A 
ATOM     13  C   UNL     1       3.325   4.134  17.572  0.00  0.00    +0.000 A 
ATOM     14  C   UNL     1       3.158   5.506  17.816  0.00  0.00    +0.000 A 
ATOM     15  O   UNL     1       2.144   6.196  18.466  0.00  0.00    +0.000 OA
BRANCH  11  16
ATOM     16  C   UNL     1       6.349   4.459  15.166  0.00  0.00    +0.000 C 
ATOM     17  F   UNL     1       6.057   3.339  14.449  0.00  0.00    +0.000 F 
ATOM     18  F   UNL     1       6.530   5.452  14.258  0.00  0.00    +0.000 F 
ATOM     19  F   UNL     1       7.566   4.231  15.731  0.00  0.00    +0.000 F 
ENDBRANCH  11  16
BRANCH  13  20
ATOM     20  C   UNL     1       2.508   3.029  18.176  0.00  0.00    +0.000 C 
ATOM     21  F   UNL     1       1.163   3.231  18.026  0.00  0.00    +0.000 F 
ATOM     22  F   UNL     1       2.750   1.821  17.595  0.00  0.00    +0.000 F 
ATOM     23  F   UNL     1       2.702   2.864  19.508  0.00  0.00    +0.000 F 
ENDBRANCH  13  20
ENDBRANCH   4   7
BRANCH   1  26
ATOM     24  C   UNL     1      -0.850  12.399  21.460  0.00  0.00    +0.000 C 
ATOM     25  O   UNL     1       0.235  12.657  21.975  0.00  0.00    +0.000 OA
ATOM     26  N   UNL     1      -1.061  11.415  20.503  0.00  0.00    +0.000 N 
ATOM     27  H   UNL     1      -1.873  11.547  19.918  0.00  0.00    +0.000 HD
BRANCH  24  28
ATOM     28  C   UNL     1      -2.134  13.159  21.844  0.00  0.00    +0.000 C 
BRANCH  28  29
ATOM     29  O   UNL     1      -3.266  12.721  21.114  0.00  0.00    +0.000 OA
BRANCH  29  36
ATOM     30  C   UNL     1      -6.050  12.099  19.700  0.00  0.00    +0.000 C 
ATOM     31  C   UNL     1      -5.772  12.424  21.140  0.00  0.00    +0.000 A 
ATOM     32  C   UNL     1      -6.911  12.473  21.984  0.00  0.00    +0.000 A 
ATOM     33  C   UNL     1      -6.818  12.761  23.343  0.00  0.00    +0.000 A 
ATOM     34  C   UNL     1      -5.567  12.982  23.895  0.00  0.00    +0.000 A 
ATOM     35  C   UNL     1      -4.431  12.944  23.083  0.00  0.00    +0.000 A 
ATOM     36  C   UNL     1      -4.506  12.670  21.704  0.00  0.00    +0.000 A 
ENDBRANCH  29  36
ENDBRANCH  28  29
ENDBRANCH  24  28
ENDBRANCH   1  26
TORSDOF 7
ENDMDL
MODEL 2
REMARK VINA RESULT:      -9.2      0.881      1.500
REMARK  Name = 
REMARK  8 active torsions:
REMARK  status: ('A' for Active; 'I' for Inactive)
REMARK    1  A    between atoms: C_1  and  C_2
REMARK    2  A    between atoms: C_7  and  O_8
REMARK    3  A    between atoms: O_8  and  C_9
REMARK    4  A    between atoms: C_9  and  C_10
REMARK    5  A    between atoms: N_12  and  C_13
REMARK    6  A    between atoms: C_16  and  C_17
REMARK    7  A    between atoms: C_21  and  C_22
REMARK    8  A    between atoms: C_27  and  C_28
REMARK                            x       y       z     vdW  Elec       q    Type
REMARK                         _______ _______ _______ _____ _____    ______ ____
ROOT
ATOM      1  C   UNL     1       0.029  10.154  20.524  0.00  0.00    +0.000 A 
ATOM      2  C   UNL     1       0.587   9.088  21.227  0.00  0.00    +0.000 A 
ATOM      3  C   UNL     1       1.429   8.189  20.560  0.00  0.00    +0.000 A 
ATOM      4  C   UNL     1       1.759   8.339  19.192  0.00  0.00    +0.000 A 
ATOM      5  C   UNL     1       1.264   9.455  18.527  0.00  0.00    +0.000 A 
ATOM      6  C   UNL     1       0.374  10.329  19.178  0.00  0.00    +0.000 A 
ENDROOT
BRANCH   4   7
ATOM      7  C   UNL     1       2.580   7.308  18.568  0.00  0.00    +0.000 A 
ATOM      8  N   UNL     1       3.719   7.525  17.935  0.00  0.00    +0.000 NA
ATOM      9  C   UNL     1       4.099   6.309  17.479  0.00  0.00    +0.000 A 
ATOM     10  C   UNL     1       5.190   6.006  16.668  0.00  0.00    +0.000 A 
ATOM     11  C   UNL     1       5.301   4.713  16.154  0.00  0.00    +0.000 A 
ATOM     12  C   UNL     1       4.431   3.711  16.629  0.00  0.00    +0.000 A 
ATOM     13  C   UNL     1       3.394   3.961  17.578  0.00  0.00    +0.000 A 
ATOM     14  C   UNL     1       3.220   5.318  17.895  0.00  0.00    +0.000 A 
ATOM     15  O   UNL     1       2.228   5.960  18.624  0.00  0.00    +0.000 OA
BRANCH  11  16
ATOM     16  C   UNL     1       6.295   4.449  15.051  0.00  0.00    +0.000 C 
ATOM     17  F   UNL     1       7.570   4.290  15.503  0.00  0.00    +0.000 F 
ATOM     18  F   UNL     1       6.009   3.336  14.329  0.00  0.00    +0.000 F 
ATOM     19  F   UNL     1       6.343   5.480  14.163  0.00  0.00    +0.000 F 
ENDBRANCH  11  16
BRANCH  13  20
ATOM     20  C   UNL     1       2.623   2.817  18.168  0.00  0.00    +0.000 C 
ATOM     21  F   UNL     1       2.885   1.630  17.539  0.00  0.00    +0.000 F 
ATOM     22  F   UNL     1       2.930   2.597  19.476  0.00  0.00    +0.000 F 
ATOM     23  F   UNL     1       1.276   2.969  18.106  0.00  0.00    +0.000 F 
ENDBRANCH  13  20
ENDBRANCH   4   7
BRANCH   1  26
ATOM     24  C   UNL     1      -1.105  11.256  22.439  0.00  0.00    +0.000 C 
ATOM     25  O   UNL     1      -0.382  10.808  23.325  0.00  0.00    +0.000 OA
ATOM     26  N   UNL     1      -0.938  11.018  21.082  0.00  0.00    +0.000 N 
ATOM     27  H   UNL     1      -1.346  11.707  20.468  0.00  0.00    +0.000 HD
BRANCH  24  28
ATOM     28  C   UNL     1      -2.320  12.150  22.755  0.00  0.00    +0.000 C 
BRANCH  28  29
ATOM     29  O   UNL     1      -2.769  12.879  21.626  0.00  0.00    +0.000 OA
BRANCH  29  36
ATOM     30  C   UNL     1      -3.383  11.879  18.667  0.00  0.00    +0.000 C 
ATOM     31  C   UNL     1      -4.344  12.208  19.773  0.00  0.00    +0.000 A 
ATOM     32  C   UNL     1      -5.718  12.064  19.449  0.00  0.00    +0.000 A 
ATOM     33  C   UNL     1      -6.730  12.331  20.366  0.00  0.00    +0.000 A 
ATOM     34  C   UNL     1      -6.384  12.725  21.649  0.00  0.00    +0.000 A 
ATOM     35  C   UNL     1      -5.039  12.877  21.990  0.00  0.00    +0.000 A 
ATOM     36  C   UNL     1      -4.000  12.628  21.072  0.00  0.00    +0.000 A 
ENDBRANCH  29  36
ENDBRANCH  28  29
ENDBRANCH  24  28
ENDBRANCH   1  26
TORSDOF 7
ENDMDL
MODEL 3
REMARK VINA RESULT:      -9.1      1.035      1.659
REMARK  Name = 
REMARK  8 active torsions:
REMARK  status: ('A' for Active; 'I' for Inactive)
REMARK    1  A    between atoms: C_1  and  C_2
REMARK    2  A    between atoms: C_7  and  O_8
REMARK    3  A    between atoms: O_8  and  C_9
REMARK    4  A    between atoms: C_9  and  C_10
REMARK    5  A    between atoms: N_12  and  C_13
REMARK    6  A    between atoms: C_16  and  C_17
REMARK    7  A    between atoms: C_21  and  C_22
REMARK    8  A    between atoms: C_27  and  C_28
REMARK                            x       y       z     vdW  Elec       q    Type
REMARK                         _______ _______ _______ _____ _____    ______ ____
ROOT
ATOM      1  C   UNL     1       0.119   9.997  20.891  0.00  0.00    +0.000 A 
ATOM      2  C   UNL     1       0.731   8.922  21.536  0.00  0.00    +0.000 A 
ATOM      3  C   UNL     1       1.538   8.047  20.799  0.00  0.00    +0.000 A 
ATOM      4  C   UNL     1       1.782   8.229  19.417  0.00  0.00    +0.000 A 
ATOM      5  C   UNL     1       1.236   9.354  18.807  0.00  0.00    +0.000 A 
ATOM      6  C   UNL     1       0.380  10.203  19.531  0.00  0.00    +0.000 A 
ENDROOT
BRANCH   4   7
ATOM      7  C   UNL     1       2.574   7.221  18.721  0.00  0.00    +0.000 A 
ATOM      8  N   UNL     1       3.536   7.477  17.853  0.00  0.00    +0.000 NA
ATOM      9  C   UNL     1       3.951   6.261  17.427  0.00  0.00    +0.000 A 
ATOM     10  C   UNL     1       4.888   5.981  16.437  0.00  0.00    +0.000 A 
ATOM     11  C   UNL     1       5.038   4.658  16.015  0.00  0.00    +0.000 A 
ATOM     12  C   UNL     1       4.393   3.634  16.735  0.00  0.00    +0.000 A 
ATOM     13  C   UNL     1       3.542   3.881  17.855  0.00  0.00    +0.000 A 
ATOM     14  C   UNL     1       3.284   5.240  18.092  0.00  0.00    +0.000 A 
ATOM     15  O   UNL     1       2.390   5.858  18.955  0.00  0.00    +0.000 OA
BRANCH  11  16
ATOM     16  C   UNL     1       5.820   4.378  14.756  0.00  0.00    +0.000 C 
ATOM     17  F   UNL     1       6.499   3.198  14.796  0.00  0.00    +0.000 F 
ATOM     18  F   UNL     1       5.043   4.329  13.644  0.00  0.00    +0.000 F 
ATOM     19  F   UNL     1       6.758   5.337  14.526  0.00  0.00    +0.000 F 
ENDBRANCH  11  16
BRANCH  13  20
ATOM     20  C   UNL     1       3.031   2.735  18.678  0.00  0.00    +0.000 C 
ATOM     21  F   UNL     1       3.571   2.713  19.935  0.00  0.00    +0.000 F 
ATOM     22  F   UNL     1       1.684   2.790  18.874  0.00  0.00    +0.000 F 
ATOM     23  F   UNL     1       3.296   1.514  18.150  0.00  0.00    +0.000 F 
ENDBRANCH  13  20
ENDBRANCH   4   7
BRANCH   1  26
ATOM     24  C   UNL     1      -0.548  12.106  22.019  0.00  0.00    +0.000 C 
ATOM     25  O   UNL     1       0.524  12.693  21.896  0.00  0.00    +0.000 OA
ATOM     26  N   UNL     1      -0.819  10.838  21.526  0.00  0.00    +0.000 N 
ATOM     27  H   UNL     1      -1.795  10.632  21.373  0.00  0.00    +0.000 HD
BRANCH  24  28
ATOM     28  C   UNL     1      -1.737  12.735  22.770  0.00  0.00    +0.000 C 
BRANCH  28  29
ATOM     29  O   UNL     1      -2.989  12.302  22.268  0.00  0.00    +0.000 OA
BRANCH  29  36
ATOM     30  C   UNL     1      -4.714  12.332  24.944  0.00  0.00    +0.000 C 
ATOM     31  C   UNL     1      -4.952  13.068  23.657  0.00  0.00    +0.000 A 
ATOM     32  C   UNL     1      -6.115  13.879  23.626  0.00  0.00    +0.000 A 
ATOM     33  C   UNL     1      -6.473  14.624  22.506  0.00  0.00    +0.000 A 
ATOM     34  C   UNL     1      -5.651  14.591  21.390  0.00  0.00    +0.000 A 
ATOM     35  C   UNL     1      -4.503  13.796  21.396  0.00  0.00    +0.000 A 
ATOM     36  C   UNL     1      -4.132  13.024  22.513  0.00  0.00    +0.000 A 
ENDBRANCH  29  36
ENDBRANCH  28  29
ENDBRANCH  24  28
ENDBRANCH   1  26
TORSDOF 7
ENDMDL
MODEL 4
REMARK VINA RESULT:      -9.1      1.167      2.221
REMARK  Name = 
REMARK  8 active torsions:
REMARK  status: ('A' for Active; 'I' for Inactive)
REMARK    1  A    between atoms: C_1  and  C_2
REMARK    2  A    between atoms: C_7  and  O_8
REMARK    3  A    between atoms: O_8  and  C_9
REMARK    4  A    between atoms: C_9  and  C_10
REMARK    5  A    between atoms: N_12  and  C_13
REMARK    6  A    between atoms: C_16  and  C_17
REMARK    7  A    between atoms: C_21  and  C_22
REMARK    8  A    between atoms: C_27  and  C_28
REMARK                            x       y       z     vdW  Elec       q    Type
REMARK                         _______ _______ _______ _____ _____    ______ ____
ROOT
ATOM      1  C   UNL     1       0.307  10.343  20.597  0.00  0.00    +0.000 A 
ATOM      2  C   UNL     1       0.539  10.357  19.222  0.00  0.00    +0.000 A 
ATOM      3  C   UNL     1       1.273   9.317  18.638  0.00  0.00    +0.000 A 
ATOM      4  C   UNL     1       1.770   8.228  19.393  0.00  0.00    +0.000 A 
ATOM      5  C   UNL     1       1.457   8.185  20.748  0.00  0.00    +0.000 A 
ATOM      6  C   UNL     1       0.768   9.255  21.348  0.00  0.00    +0.000 A 
ENDROOT
BRANCH   4   7
ATOM      7  C   UNL     1       2.589   7.235  18.708  0.00  0.00    +0.000 A 
ATOM      8  N   UNL     1       3.511   7.504  17.801  0.00  0.00    +0.000 NA
ATOM      9  C   UNL     1       3.971   6.295  17.405  0.00  0.00    +0.000 A 
ATOM     10  C   UNL     1       4.891   6.025  16.396  0.00  0.00    +0.000 A 
ATOM     11  C   UNL     1       5.093   4.696  16.016  0.00  0.00    +0.000 A 
ATOM     12  C   UNL     1       4.521   3.668  16.791  0.00  0.00    +0.000 A 
ATOM     13  C   UNL     1       3.692   3.915  17.928  0.00  0.00    +0.000 A 
ATOM     14  C   UNL     1       3.376   5.268  18.126  0.00  0.00    +0.000 A 
ATOM     15  O   UNL     1       2.478   5.874  18.995  0.00  0.00    +0.000 OA
BRANCH  11  16
ATOM     16  C   UNL     1       5.850   4.408  14.743  0.00  0.00    +0.000 C 
ATOM     17  F   UNL     1       6.702   5.409  14.386  0.00  0.00    +0.000 F 
ATOM     18  F   UNL     1       6.601   3.280  14.813  0.00  0.00    +0.000 F 
ATOM     19  F   UNL     1       5.008   4.243  13.687  0.00  0.00    +0.000 F 
ENDBRANCH  11  16
BRANCH  13  20
ATOM     20  C   UNL     1       3.262   2.777  18.806  0.00  0.00    +0.000 C 
ATOM     21  F   UNL     1       3.540   3.001  20.127  0.00  0.00    +0.000 F 
ATOM     22  F   UNL     1       1.919   2.558  18.761  0.00  0.00    +0.000 F 
ATOM     23  F   UNL     1       3.857   1.594  18.508  0.00  0.00    +0.000 F 
ENDBRANCH  13  20
ENDBRANCH   4   7
BRANCH   1  26
ATOM     24  C   UNL     1       0.332  12.617  21.596  0.00  0.00    +0.000 C 
ATOM     25  O   UNL     1       1.468  12.927  21.247  0.00  0.00    +0.000 OA
ATOM     26  N   UNL     1      -0.296  11.419  21.283  0.00  0.00    +0.000 N 
ATOM     27  H   UNL     1      -1.305  11.439  21.307  0.00  0.00    +0.000 HD
BRANCH  24  28
ATOM     28  C   UNL     1      -0.539  13.553  22.456  0.00  0.00    +0.000 C 
BRANCH  28  29
ATOM     29  O   UNL     1      -1.516  12.854  23.206  0.00  0.00    +0.000 OA
BRANCH  29  36
ATOM     30  C   UNL     1      -2.816  14.937  25.232  0.00  0.00    +0.000 C 
ATOM     31  C   UNL     1      -3.464  14.179  24.109  0.00  0.00    +0.000 A 
ATOM     32  C   UNL     1      -4.852  14.416  23.936  0.00  0.00    +0.000 A 
ATOM     33  C   UNL     1      -5.595  13.790  22.939  0.00  0.00    +0.000 A 
ATOM     34  C   UNL     1      -4.951  12.924  22.069  0.00  0.00    +0.000 A 
ATOM     35  C   UNL     1      -3.586  12.672  22.223  0.00  0.00    +0.000 A 
ATOM     36  C   UNL     1      -2.821  13.283  23.234  0.00  0.00    +0.000 A 
ENDBRANCH  29  36
ENDBRANCH  28  29
ENDBRANCH  24  28
ENDBRANCH   1  26
TORSDOF 7
ENDMDL
MODEL 5
REMARK VINA RESULT:      -9.0      0.722      1.775
REMARK  Name = 
REMARK  8 active torsions:
REMARK  status: ('A' for Active; 'I' for Inactive)
REMARK    1  A    between atoms: C_1  and  C_2
REMARK    2  A    between atoms: C_7  and  O_8
REMARK    3  A    between atoms: O_8  and  C_9
REMARK    4  A    between atoms: C_9  and  C_10
REMARK    5  A    between atoms: N_12  and  C_13
REMARK    6  A    between atoms: C_16  and  C_17
REMARK    7  A    between atoms: C_21  and  C_22
REMARK    8  A    between atoms: C_27  and  C_28
REMARK                            x       y       z     vdW  Elec       q    Type
REMARK                         _______ _______ _______ _____ _____    ______ ____
ROOT
ATOM      1  C   UNL     1      -0.114  10.327  20.069  0.00  0.00    +0.000 A 
ATOM      2  C   UNL     1       0.607   9.438  20.866  0.00  0.00    +0.000 A 
ATOM      3  C   UNL     1       1.470   8.516  20.259  0.00  0.00    +0.000 A 
ATOM      4  C   UNL     1       1.660   8.470  18.858  0.00  0.00    +0.000 A 
ATOM      5  C   UNL     1       0.999   9.419  18.085  0.00  0.00    +0.000 A 
ATOM      6  C   UNL     1       0.090  10.309  18.684  0.00  0.00    +0.000 A 
ENDROOT
BRANCH   4   7
ATOM      7  C   UNL     1       2.519   7.423  18.317  0.00  0.00    +0.000 A 
ATOM      8  N   UNL     1       3.696   7.624  17.751  0.00  0.00    +0.000 NA
ATOM      9  C   UNL     1       4.104   6.396  17.355  0.00  0.00    +0.000 A 
ATOM     10  C   UNL     1       5.244   6.073  16.623  0.00  0.00    +0.000 A 
ATOM     11  C   UNL     1       5.387   4.766  16.154  0.00  0.00    +0.000 A 
ATOM     12  C   UNL     1       4.489   3.776  16.602  0.00  0.00    +0.000 A 
ATOM     13  C   UNL     1       3.395   4.051  17.477  0.00  0.00    +0.000 A 
ATOM     14  C   UNL     1       3.200   5.416  17.743  0.00  0.00    +0.000 A 
ATOM     15  O   UNL     1       2.165   6.076  18.389  0.00  0.00    +0.000 OA
BRANCH  11  16
ATOM     16  C   UNL     1       6.449   4.472  15.124  0.00  0.00    +0.000 C 
ATOM     17  F   UNL     1       7.698   4.363  15.656  0.00  0.00    +0.000 F 
ATOM     18  F   UNL     1       6.227   3.320  14.442  0.00  0.00    +0.000 F 
ATOM     19  F   UNL     1       6.528   5.461  14.192  0.00  0.00    +0.000 F 
ENDBRANCH  11  16
BRANCH  13  20
ATOM     20  C   UNL     1       2.588   2.922  18.049  0.00  0.00    +0.000 C 
ATOM     21  F   UNL     1       2.734   1.762  17.338  0.00  0.00    +0.000 F 
ATOM     22  F   UNL     1       2.960   2.605  19.320  0.00  0.00    +0.000 F 
ATOM     23  F   UNL     1       1.253   3.160  18.084  0.00  0.00    +0.000 F 
ENDBRANCH  13  20
ENDBRANCH   4   7
BRANCH   1  26
ATOM     24  C   UNL     1      -1.018  12.571  20.631  0.00  0.00    +0.000 C 
ATOM     25  O   UNL     1      -0.100  13.232  20.153  0.00  0.00    +0.000 OA
ATOM     26  N   UNL     1      -1.107  11.186  20.587  0.00  0.00    +0.000 N 
ATOM     27  H   UNL     1      -2.039  10.809  20.676  0.00  0.00    +0.000 HD
BRANCH  24  28
ATOM     28  C   UNL     1      -2.201  13.233  21.363  0.00  0.00    +0.000 C 
BRANCH  28  29
ATOM     29  O   UNL     1      -3.223  13.657  20.478  0.00  0.00    +0.000 OA
BRANCH  29  36
ATOM     30  C   UNL     1      -5.646  13.457  22.534  0.00  0.00    +0.000 C 
ATOM     31  C   UNL     1      -5.472  12.776  21.206  0.00  0.00    +0.000 A 
ATOM     32  C   UNL     1      -6.531  11.914  20.822  0.00  0.00    +0.000 A 
ATOM     33  C   UNL     1      -6.519  11.211  19.620  0.00  0.00    +0.000 A 
ATOM     34  C   UNL     1      -5.447  11.379  18.758  0.00  0.00    +0.000 A 
ATOM     35  C   UNL     1      -4.391  12.220  19.117  0.00  0.00    +0.000 A 
ATOM     36  C   UNL     1      -4.377  12.927  20.335  0.00  0.00    +0.000 A 
ENDBRANCH  29  36
ENDBRANCH  28  29
ENDBRANCH  24  28
ENDBRANCH   1  26
TORSDOF 7
ENDMDL
MODEL 6
REMARK VINA RESULT:      -9.0      1.234      1.844
REMARK  Name = 
REMARK  8 active torsions:
REMARK  status: ('A' for Active; 'I' for Inactive)
REMARK    1  A    between atoms: C_1  and  C_2
REMARK    2  A    between atoms: C_7  and  O_8
REMARK    3  A    between atoms: O_8  and  C_9
REMARK    4  A    between atoms: C_9  and  C_10
REMARK    5  A    between atoms: N_12  and  C_13
REMARK    6  A    between atoms: C_16  and  C_17
REMARK    7  A    between atoms: C_21  and  C_22
REMARK    8  A    between atoms: C_27  and  C_28
REMARK                            x       y       z     vdW  Elec       q    Type
REMARK                         _______ _______ _______ _____ _____    ______ ____
ROOT
ATOM      1  C   UNL     1       0.110  10.899  19.643  0.00  0.00    +0.000 A 
ATOM      2  C   UNL     1       0.299   9.741  20.395  0.00  0.00    +0.000 A 
ATOM      3  C   UNL     1       1.141   8.733  19.907  0.00  0.00    +0.000 A 
ATOM      4  C   UNL     1       1.836   8.859  18.681  0.00  0.00    +0.000 A 
ATOM      5  C   UNL     1       1.704  10.057  17.985  0.00  0.00    +0.000 A 
ATOM      6  C   UNL     1       0.817  11.046  18.443  0.00  0.00    +0.000 A 
ENDROOT
BRANCH   4   7
ATOM      7  C   UNL     1       2.628   7.725  18.221  0.00  0.00    +0.000 A 
ATOM      8  N   UNL     1       3.846   7.803  17.717  0.00  0.00    +0.000 NA
ATOM      9  C   UNL     1       4.165   6.531  17.383  0.00  0.00    +0.000 A 
ATOM     10  C   UNL     1       5.310   6.086  16.727  0.00  0.00    +0.000 A 
ATOM     11  C   UNL     1       5.362   4.755  16.307  0.00  0.00    +0.000 A 
ATOM     12  C   UNL     1       4.359   3.863  16.733  0.00  0.00    +0.000 A 
ATOM     13  C   UNL     1       3.247   4.262  17.536  0.00  0.00    +0.000 A 
ATOM     14  C   UNL     1       3.160   5.647  17.749  0.00  0.00    +0.000 A 
ATOM     15  O   UNL     1       2.153   6.416  18.315  0.00  0.00    +0.000 OA
BRANCH  11  16
ATOM     16  C   UNL     1       6.448   4.335  15.348  0.00  0.00    +0.000 C 
ATOM     17  F   UNL     1       6.159   3.184  14.678  0.00  0.00    +0.000 F 
ATOM     18  F   UNL     1       6.712   5.268  14.398  0.00  0.00    +0.000 F 
ATOM     19  F   UNL     1       7.624   4.103  15.994  0.00  0.00    +0.000 F 
ENDBRANCH  11  16
BRANCH  13  20
ATOM     20  C   UNL     1       2.315   3.227  18.096  0.00  0.00    +0.000 C 
ATOM     21  F   UNL     1       2.484   2.001  17.515  0.00  0.00    +0.000 F 
ATOM     22  F   UNL     1       2.508   3.015  19.428  0.00  0.00    +0.000 F 
ATOM     23  F   UNL     1       1.001   3.525  17.937  0.00  0.00    +0.000 F 
ENDBRANCH  13  20
ENDBRANCH   4   7
BRANCH   1  26
ATOM     24  C   UNL     1      -2.113  11.993  19.477  0.00  0.00    +0.000 C 
ATOM     25  O   UNL     1      -2.629  11.182  18.712  0.00  0.00    +0.000 OA
ATOM     26  N   UNL     1      -0.828  11.894  19.991  0.00  0.00    +0.000 N 
ATOM     27  H   UNL     1      -0.667  12.394  20.853  0.00  0.00    +0.000 HD
BRANCH  24  28
ATOM     28  C   UNL     1      -2.863  13.253  19.951  0.00  0.00    +0.000 C 
BRANCH  28  29
ATOM     29  O   UNL     1      -2.471  13.666  21.248  0.00  0.00    +0.000 OA
BRANCH  29  36
ATOM     30  C   UNL     1      -1.710  11.339  23.284  0.00  0.00    +0.000 C 
ATOM     31  C   UNL     1      -2.913  12.239  23.282  0.00  0.00    +0.000 A 
ATOM     32  C   UNL     1      -3.846  12.010  24.326  0.00  0.00    +0.000 A 
ATOM     33  C   UNL     1      -5.010  12.761  24.460  0.00  0.00    +0.000 A 
ATOM     34  C   UNL     1      -5.255  13.783  23.558  0.00  0.00    +0.000 A 
ATOM     35  C   UNL     1      -4.353  14.024  22.519  0.00  0.00    +0.000 A 
ATOM     36  C   UNL     1      -3.177  13.266  22.357  0.00  0.00    +0.000 A 
ENDBRANCH  29  36
ENDBRANCH  28  29
ENDBRANCH  24  28
ENDBRANCH   1  26
TORSDOF 7
ENDMDL
MODEL 7
REMARK VINA RESULT:      -9.0      1.039      1.214
REMARK  Name = 
REMARK  8 active torsions:
REMARK  status: ('A' for Active; 'I' for Inactive)
REMARK    1  A    between atoms: C_1  and  C_2
REMARK    2  A    between atoms: C_7  and  O_8
REMARK    3  A    between atoms: O_8  and  C_9
REMARK    4  A    between atoms: C_9  and  C_10
REMARK    5  A    between atoms: N_12  and  C_13
REMARK    6  A    between atoms: C_16  and  C_17
REMARK    7  A    between atoms: C_21  and  C_22
REMARK    8  A    between atoms: C_27  and  C_28
REMARK                            x       y       z     vdW  Elec       q    Type
REMARK                         _______ _______ _______ _____ _____    ______ ____
ROOT
ATOM      1  C   UNL     1       0.064  10.701  20.021  0.00  0.00    +0.000 A 
ATOM      2  C   UNL     1       0.324   9.520  20.714  0.00  0.00    +0.000 A 
ATOM      3  C   UNL     1       1.155   8.551  20.136  0.00  0.00    +0.000 A 
ATOM      4  C   UNL     1       1.767   8.739  18.874  0.00  0.00    +0.000 A 
ATOM      5  C   UNL     1       1.567   9.958  18.235  0.00  0.00    +0.000 A 
ATOM      6  C   UNL     1       0.691  10.910  18.786  0.00  0.00    +0.000 A 
ENDROOT
BRANCH   4   7
ATOM      7  C   UNL     1       2.552   7.641  18.322  0.00  0.00    +0.000 A 
ATOM      8  N   UNL     1       3.611   7.780  17.545  0.00  0.00    +0.000 NA
ATOM      9  C   UNL     1       3.980   6.516  17.233  0.00  0.00    +0.000 A 
ATOM     10  C   UNL     1       4.989   6.114  16.362  0.00  0.00    +0.000 A 
ATOM     11  C   UNL     1       5.087   4.761  16.033  0.00  0.00    +0.000 A 
ATOM     12  C   UNL     1       4.304   3.827  16.740  0.00  0.00    +0.000 A 
ATOM     13  C   UNL     1       3.365   4.198  17.749  0.00  0.00    +0.000 A 
ATOM     14  C   UNL     1       3.181   5.583  17.882  0.00  0.00    +0.000 A 
ATOM     15  O   UNL     1       2.251   6.310  18.612  0.00  0.00    +0.000 OA
BRANCH  11  16
ATOM     16  C   UNL     1       5.969   4.352  14.879  0.00  0.00    +0.000 C 
ATOM     17  F   UNL     1       6.569   3.143  15.063  0.00  0.00    +0.000 F 
ATOM     18  F   UNL     1       5.302   4.268  13.701  0.00  0.00    +0.000 F 
ATOM     19  F   UNL     1       6.981   5.242  14.685  0.00  0.00    +0.000 F 
ENDBRANCH  11  16
BRANCH  13  20
ATOM     20  C   UNL     1       2.696   3.141  18.579  0.00  0.00    +0.000 C 
ATOM     21  F   UNL     1       2.776   3.400  19.920  0.00  0.00    +0.000 F 
ATOM     22  F   UNL     1       1.363   3.037  18.318  0.00  0.00    +0.000 F 
ATOM     23  F   UNL     1       3.221   1.900  18.419  0.00  0.00    +0.000 F 
ENDBRANCH  13  20
ENDBRANCH   4   7
BRANCH   1  26
ATOM     24  C   UNL     1      -2.088  11.929  19.858  0.00  0.00    +0.000 C 
ATOM     25  O   UNL     1      -2.547  11.311  18.900  0.00  0.00    +0.000 OA
ATOM     26  N   UNL     1      -0.870  11.661  20.466  0.00  0.00    +0.000 N 
ATOM     27  H   UNL     1      -0.784  11.975  21.421  0.00  0.00    +0.000 HD
BRANCH  24  28
ATOM     28  C   UNL     1      -2.839  13.113  20.496  0.00  0.00    +0.000 C 
BRANCH  28  29
ATOM     29  O   UNL     1      -4.211  13.143  20.144  0.00  0.00    +0.000 OA
BRANCH  29  36
ATOM     30  C   UNL     1      -7.093  11.895  19.623  0.00  0.00    +0.000 C 
ATOM     31  C   UNL     1      -6.478  12.347  20.916  0.00  0.00    +0.000 A 
ATOM     32  C   UNL     1      -7.302  12.211  22.063  0.00  0.00    +0.000 A 
ATOM     33  C   UNL     1      -6.875  12.585  23.334  0.00  0.00    +0.000 A 
ATOM     34  C   UNL     1      -5.592  13.085  23.489  0.00  0.00    +0.000 A 
ATOM     35  C   UNL     1      -4.764  13.232  22.373  0.00  0.00    +0.000 A 
ATOM     36  C   UNL     1      -5.183  12.874  21.077  0.00  0.00    +0.000 A 
ENDBRANCH  29  36
ENDBRANCH  28  29
ENDBRANCH  24  28
ENDBRANCH   1  26
TORSDOF 7
ENDMDL
MODEL 8
REMARK VINA RESULT:      -9.0      1.732      2.515
REMARK  Name = 
REMARK  8 active torsions:
REMARK  status: ('A' for Active; 'I' for Inactive)
REMARK    1  A    between atoms: C_1  and  C_2
REMARK    2  A    between atoms: C_7  and  O_8
REMARK    3  A    between atoms: O_8  and  C_9
REMARK    4  A    between atoms: C_9  and  C_10
REMARK    5  A    between atoms: N_12  and  C_13
REMARK    6  A    between atoms: C_16  and  C_17
REMARK    7  A    between atoms: C_21  and  C_22
REMARK    8  A    between atoms: C_27  and  C_28
REMARK                            x       y       z     vdW  Elec       q    Type
REMARK                         _______ _______ _______ _____ _____    ______ ____
ROOT
ATOM      1  C   UNL     1       0.084   9.972  20.679  0.00  0.00    +0.000 A 
ATOM      2  C   UNL     1       0.662   8.882  21.328  0.00  0.00    +0.000 A 
ATOM      3  C   UNL     1       1.513   8.028  20.614  0.00  0.00    +0.000 A 
ATOM      4  C   UNL     1       1.832   8.247  19.253  0.00  0.00    +0.000 A 
ATOM      5  C   UNL     1       1.316   9.387  18.644  0.00  0.00    +0.000 A 
ATOM      6  C   UNL     1       0.418  10.215  19.341  0.00  0.00    +0.000 A 
ENDROOT
BRANCH   4   7
ATOM      7  C   UNL     1       2.665   7.260  18.576  0.00  0.00    +0.000 A 
ATOM      8  N   UNL     1       3.556   7.532  17.640  0.00  0.00    +0.000 NA
ATOM      9  C   UNL     1       4.044   6.326  17.266  0.00  0.00    +0.000 A 
ATOM     10  C   UNL     1       4.948   6.055  16.242  0.00  0.00    +0.000 A 
ATOM     11  C   UNL     1       5.181   4.723  15.894  0.00  0.00    +0.000 A 
ATOM     12  C   UNL     1       4.660   3.701  16.712  0.00  0.00    +0.000 A 
ATOM     13  C   UNL     1       3.851   3.955  17.862  0.00  0.00    +0.000 A 
ATOM     14  C   UNL     1       3.498   5.303  18.030  0.00  0.00    +0.000 A 
ATOM     15  O   UNL     1       2.604   5.905  18.903  0.00  0.00    +0.000 OA
BRANCH  11  16
ATOM     16  C   UNL     1       5.916   4.421  14.612  0.00  0.00    +0.000 C 
ATOM     17  F   UNL     1       6.758   5.421  14.227  0.00  0.00    +0.000 F 
ATOM     18  F   UNL     1       6.673   3.297  14.682  0.00  0.00    +0.000 F 
ATOM     19  F   UNL     1       5.056   4.241  13.573  0.00  0.00    +0.000 F 
ENDBRANCH  11  16
BRANCH  13  20
ATOM     20  C   UNL     1       3.479   2.829  18.782  0.00  0.00    +0.000 C 
ATOM     21  F   UNL     1       3.010   1.735  18.108  0.00  0.00    +0.000 F 
ATOM     22  F   UNL     1       4.539   2.370  19.503  0.00  0.00    +0.000 F 
ATOM     23  F   UNL     1       2.510   3.145  19.677  0.00  0.00    +0.000 F 
ENDBRANCH  13  20
ENDBRANCH   4   7
BRANCH   1  26
ATOM     24  C   UNL     1      -0.998  11.034  22.646  0.00  0.00    +0.000 C 
ATOM     25  O   UNL     1      -0.209  10.628  23.495  0.00  0.00    +0.000 OA
ATOM     26  N   UNL     1      -0.892  10.793  21.283  0.00  0.00    +0.000 N 
ATOM     27  H   UNL     1      -1.364  11.457  20.688  0.00  0.00    +0.000 HD
BRANCH  24  28
ATOM     28  C   UNL     1      -2.236  11.872  23.021  0.00  0.00    +0.000 C 
BRANCH  28  29
ATOM     29  O   UNL     1      -2.090  13.240  22.683  0.00  0.00    +0.000 OA
BRANCH  29  36
ATOM     30  C   UNL     1      -4.934  14.396  23.530  0.00  0.00    +0.000 C 
ATOM     31  C   UNL     1      -3.568  14.794  24.013  0.00  0.00    +0.000 A 
ATOM     32  C   UNL     1      -3.543  15.840  24.971  0.00  0.00    +0.000 A 
ATOM     33  C   UNL     1      -2.356  16.322  25.515  0.00  0.00    +0.000 A 
ATOM     34  C   UNL     1      -1.158  15.743  25.126  0.00  0.00    +0.000 A 
ATOM     35  C   UNL     1      -1.158  14.714  24.181  0.00  0.00    +0.000 A 
ATOM     36  C   UNL     1      -2.347  14.224  23.608  0.00  0.00    +0.000 A 
ENDBRANCH  29  36
ENDBRANCH  28  29
ENDBRANCH  24  28
ENDBRANCH   1  26
TORSDOF 7
ENDMDL
MODEL 9
REMARK VINA RESULT:      -8.9      1.011      1.971
REMARK  Name = 
REMARK  8 active torsions:
REMARK  status: ('A' for Active; 'I' for Inactive)
REMARK    1  A    between atoms: C_1  and  C_2
REMARK    2  A    between atoms: C_7  and  O_8
REMARK    3  A    between atoms: O_8  and  C_9
REMARK    4  A    between atoms: C_9  and  C_10
REMARK    5  A    between atoms: N_12  and  C_13
REMARK    6  A    between atoms: C_16  and  C_17
REMARK    7  A    between atoms: C_21  and  C_22
REMARK    8  A    between atoms: C_27  and  C_28
REMARK                            x       y       z     vdW  Elec       q    Type
REMARK                         _______ _______ _______ _____ _____    ______ ____
ROOT
ATOM      1  C   UNL     1       0.216  10.156  20.647  0.00  0.00    +0.000 A 
ATOM      2  C   UNL     1       0.422  10.183  19.268  0.00  0.00    +0.000 A 
ATOM      3  C   UNL     1       1.186   9.174  18.667  0.00  0.00    +0.000 A 
ATOM      4  C   UNL     1       1.738   8.104  19.409  0.00  0.00    +0.000 A 
ATOM      5  C   UNL     1       1.451   8.045  20.769  0.00  0.00    +0.000 A 
ATOM      6  C   UNL     1       0.732   9.085  21.385  0.00  0.00    +0.000 A 
ENDROOT
BRANCH   4   7
ATOM      7  C   UNL     1       2.583   7.145  18.706  0.00  0.00    +0.000 A 
ATOM      8  N   UNL     1       3.495   7.456  17.803  0.00  0.00    +0.000 NA
ATOM      9  C   UNL     1       3.988   6.267  17.386  0.00  0.00    +0.000 A 
ATOM     10  C   UNL     1       4.913   6.038  16.370  0.00  0.00    +0.000 A 
ATOM     11  C   UNL     1       5.151   4.722  15.968  0.00  0.00    +0.000 A 
ATOM     12  C   UNL     1       4.610   3.667  16.728  0.00  0.00    +0.000 A 
ATOM     13  C   UNL     1       3.777   3.871  17.870  0.00  0.00    +0.000 A 
ATOM     14  C   UNL     1       3.424   5.212  18.090  0.00  0.00    +0.000 A 
ATOM     15  O   UNL     1       2.512   5.777  18.971  0.00  0.00    +0.000 OA
BRANCH  11  16
ATOM     16  C   UNL     1       5.913   4.476  14.689  0.00  0.00    +0.000 C 
ATOM     17  F   UNL     1       5.113   4.117  13.647  0.00  0.00    +0.000 F 
ATOM     18  F   UNL     1       6.616   5.559  14.270  0.00  0.00    +0.000 F 
ATOM     19  F   UNL     1       6.813   3.465  14.830  0.00  0.00    +0.000 F 
ENDBRANCH  11  16
BRANCH  13  20
ATOM     20  C   UNL     1       3.383   2.707  18.731  0.00  0.00    +0.000 C 
ATOM     21  F   UNL     1       3.961   2.752  19.969  0.00  0.00    +0.000 F 
ATOM     22  F   UNL     1       2.042   2.663  18.969  0.00  0.00    +0.000 F 
ATOM     23  F   UNL     1       3.725   1.499  18.216  0.00  0.00    +0.000 F 
ENDBRANCH  13  20
ENDBRANCH   4   7
BRANCH   1  26
ATOM     24  C   UNL     1       0.169  12.426  21.654  0.00  0.00    +0.000 C 
ATOM     25  O   UNL     1       1.286  12.782  21.286  0.00  0.00    +0.000 OA
ATOM     26  N   UNL     1      -0.417  11.206  21.347  0.00  0.00    +0.000 N 
ATOM     27  H   UNL     1      -1.425  11.187  21.388  0.00  0.00    +0.000 HD
BRANCH  24  28
ATOM     28  C   UNL     1      -0.722  13.325  22.532  0.00  0.00    +0.000 C 
BRANCH  28  29
ATOM     29  O   UNL     1      -1.693  14.032  21.780  0.00  0.00    +0.000 OA
BRANCH  29  36
ATOM     30  C   UNL     1      -3.828  13.956  24.141  0.00  0.00    +0.000 C 
ATOM     31  C   UNL     1      -3.977  13.505  22.716  0.00  0.00    +0.000 A 
ATOM     32  C   UNL     1      -5.242  12.958  22.380  0.00  0.00    +0.000 A 
ATOM     33  C   UNL     1      -5.536  12.497  21.100  0.00  0.00    +0.000 A 
ATOM     34  C   UNL     1      -4.568  12.598  20.114  0.00  0.00    +0.000 A 
ATOM     35  C   UNL     1      -3.314  13.129  20.422  0.00  0.00    +0.000 A 
ATOM     36  C   UNL     1      -2.992  13.587  21.714  0.00  0.00    +0.000 A 
ENDBRANCH  29  36
ENDBRANCH  28  29
ENDBRANCH  24  28
ENDBRANCH   1  26
TORSDOF 7
ENDMDL
