MODEL 1
REMARK VINA RESULT:      -7.2      0.000      0.000
REMARK  Name = 
REMARK  3 active torsions:
REMARK  status: ('A' for Active; 'I' for Inactive)
REMARK    1  A    between atoms: C_5  and  C_6
REMARK    2  A    between atoms: N_7  and  C_8
REMARK    3  A    between atoms: C_9  and  C_10
REMARK                            x       y       z     vdW  Elec       q    Type
REMARK                         _______ _______ _______ _____ _____    ______ ____
ROOT
ATOM      1  C   UNL     1       3.956   5.410  17.673  0.00  0.00    +0.000 A 
ATOM      2  C   UNL     1       3.811   4.051  17.990  0.00  0.00    +0.000 A 
ATOM      3  N   UNL     1       4.523   3.235  17.121  0.00  0.00    +0.000 NA
ATOM      4  C   UNL     1       5.063   4.077  16.297  0.00  0.00    +0.000 A 
ATOM      5  N   UNL     1       4.756   5.369  16.569  0.00  0.00    +0.000 N 
ATOM      6  C   UNL     1       5.285   6.371  15.675  0.00  0.00    +0.000 C 
ATOM      7  C   UNL     1       6.428   5.726  14.901  0.00  0.00    +0.000 C 
ATOM      8  S   UNL     1       6.127   3.913  14.952  0.00  0.00    +0.000 S 
ENDROOT
BRANCH   2   9
ATOM      9  C   UNL     1       3.045   3.537  19.117  0.00  0.00    +0.000 A 
ATOM     10  C   UNL     1       1.652   3.683  19.173  0.00  0.00    +0.000 A 
ATOM     11  C   UNL     1       0.926   3.259  20.290  0.00  0.00    +0.000 A 
ATOM     12  C   UNL     1       1.597   2.679  21.363  0.00  0.00    +0.000 A 
ATOM     13 CL   UNL     1       0.709   2.200  22.757  0.00  0.00    +0.000 Cl
ATOM     14  C   UNL     1       2.976   2.488  21.315  0.00  0.00    +0.000 A 
ATOM     15  C   UNL     1       3.702   2.913  20.193  0.00  0.00    +0.000 A 
ENDBRANCH   2   9
BRANCH   1  17
ATOM     16  C   UNL     1       2.416   7.087  17.990  0.00  0.00    +0.000 C 
ATOM     17  N   UNL     1       3.538   6.536  18.313  0.00  0.00    +0.000 NA
BRANCH  16  22
ATOM     18 CL   UNL     1       0.300  11.864  20.881  0.00  0.00    +0.000 Cl
ATOM     19  C   UNL     1       0.912  10.485  20.055  0.00  0.00    +0.000 A 
ATOM     20  C   UNL     1       1.078   9.284  20.745  0.00  0.00    +0.000 A 
ATOM     21  C   UNL     1       1.582   8.168  20.076  0.00  0.00    +0.000 A 
ATOM     22  C   UNL     1       1.912   8.263  18.720  0.00  0.00    +0.000 A 
ATOM     23  C   UNL     1       1.739   9.464  18.027  0.00  0.00    +0.000 A 
ATOM     24  C   UNL     1       1.240  10.581  18.701  0.00  0.00    +0.000 A 
ENDBRANCH  16  22
ENDBRANCH   1  17
TORSDOF 3
ENDMDL
MODEL 2
REMARK VINA RESULT:      -7.1      0.185      1.003
REMARK  Name = 
REMARK  3 active torsions:
REMARK  status: ('A' for Active; 'I' for Inactive)
REMARK    1  A    between atoms: C_5  and  C_6
REMARK    2  A    between atoms: N_7  and  C_8
REMARK    3  A    between atoms: C_9  and  C_10
REMARK                            x       y       z     vdW  Elec       q    Type
REMARK                         _______ _______ _______ _____ _____    ______ ____
ROOT
ATOM      1  C   UNL     1       3.947   5.497  17.698  0.00  0.00    +0.000 A 
ATOM      2  C   UNL     1       3.802   4.157  18.092  0.00  0.00    +0.000 A 
ATOM      3  N   UNL     1       4.494   3.291  17.256  0.00  0.00    +0.000 NA
ATOM      4  C   UNL     1       5.022   4.084  16.378  0.00  0.00    +0.000 A 
ATOM      5  N   UNL     1       4.726   5.391  16.584  0.00  0.00    +0.000 N 
ATOM      6  C   UNL     1       5.243   6.340  15.627  0.00  0.00    +0.000 C 
ATOM      7  C   UNL     1       6.369   5.647  14.869  0.00  0.00    +0.000 C 
ATOM      8  S   UNL     1       6.060   3.841  15.024  0.00  0.00    +0.000 S 
ENDROOT
BRANCH   2   9
ATOM      9  C   UNL     1       3.055   3.710  19.260  0.00  0.00    +0.000 A 
ATOM     10  C   UNL     1       3.684   3.006  20.295  0.00  0.00    +0.000 A 
ATOM     11  C   UNL     1       2.953   2.509  21.379  0.00  0.00    +0.000 A 
ATOM     12  C   UNL     1       1.578   2.722  21.432  0.00  0.00    +0.000 A 
ATOM     13 CL   UNL     1       0.672   2.071  22.742  0.00  0.00    +0.000 Cl
ATOM     14  C   UNL     1       0.936   3.452  20.435  0.00  0.00    +0.000 A 
ATOM     15  C   UNL     1       1.671   3.950  19.350  0.00  0.00    +0.000 A 
ENDBRANCH   2   9
BRANCH   1  17
ATOM     16  C   UNL     1       2.404   7.177  17.979  0.00  0.00    +0.000 C 
ATOM     17  N   UNL     1       3.546   6.657  18.285  0.00  0.00    +0.000 NA
BRANCH  16  22
ATOM     18 CL   UNL     1       0.377  12.121  20.645  0.00  0.00    +0.000 Cl
ATOM     19  C   UNL     1       0.962  10.694  19.884  0.00  0.00    +0.000 A 
ATOM     20  C   UNL     1       1.016   9.500  20.603  0.00  0.00    +0.000 A 
ATOM     21  C   UNL     1       1.499   8.344  19.987  0.00  0.00    +0.000 A 
ATOM     22  C   UNL     1       1.921   8.393  18.655  0.00  0.00    +0.000 A 
ATOM     23  C   UNL     1       1.861   9.588  17.932  0.00  0.00    +0.000 A 
ATOM     24  C   UNL     1       1.382  10.744  18.553  0.00  0.00    +0.000 A 
ENDBRANCH  16  22
ENDBRANCH   1  17
TORSDOF 3
ENDMDL
MODEL 3
REMARK VINA RESULT:      -7.0      2.872      4.995
REMARK  Name = 
REMARK  3 active torsions:
REMARK  status: ('A' for Active; 'I' for Inactive)
REMARK    1  A    between atoms: C_5  and  C_6
REMARK    2  A    between atoms: N_7  and  C_8
REMARK    3  A    between atoms: C_9  and  C_10
REMARK                            x       y       z     vdW  Elec       q    Type
REMARK                         _______ _______ _______ _____ _____    ______ ____
ROOT
ATOM      1  C   UNL     1       3.762   5.068  19.203  0.00  0.00    +0.000 A 
ATOM      2  C   UNL     1       4.966   4.871  18.509  0.00  0.00    +0.000 A 
ATOM      3  N   UNL     1       5.094   3.567  18.048  0.00  0.00    +0.000 NA
ATOM      4  C   UNL     1       4.010   2.995  18.468  0.00  0.00    +0.000 A 
ATOM      5  N   UNL     1       3.194   3.828  19.160  0.00  0.00    +0.000 N 
ATOM      6  C   UNL     1       1.981   3.261  19.699  0.00  0.00    +0.000 C 
ATOM      7  C   UNL     1       1.727   1.954  18.957  0.00  0.00    +0.000 C 
ATOM      8  S   UNL     1       3.355   1.410  18.298  0.00  0.00    +0.000 S 
ENDROOT
BRANCH   2   9
ATOM      9  C   UNL     1       5.958   5.907  18.254  0.00  0.00    +0.000 A 
ATOM     10  C   UNL     1       7.184   5.917  18.931  0.00  0.00    +0.000 A 
ATOM     11  C   UNL     1       8.104   6.953  18.744  0.00  0.00    +0.000 A 
ATOM     12  C   UNL     1       7.797   7.990  17.867  0.00  0.00    +0.000 A 
ATOM     13 CL   UNL     1       8.910   9.289  17.671  0.00  0.00    +0.000 Cl
ATOM     14  C   UNL     1       6.602   7.982  17.152  0.00  0.00    +0.000 A 
ATOM     15  C   UNL     1       5.682   6.941  17.342  0.00  0.00    +0.000 A 
ENDBRANCH   2   9
BRANCH   1  17
ATOM     16  C   UNL     1       2.463   6.948  18.953  0.00  0.00    +0.000 C 
ATOM     17  N   UNL     1       3.187   6.191  19.710  0.00  0.00    +0.000 NA
BRANCH  16  22
ATOM     18 CL   UNL     1      -0.257  11.745  21.243  0.00  0.00    +0.000 Cl
ATOM     19  C   UNL     1       0.524  10.365  20.577  0.00  0.00    +0.000 A 
ATOM     20  C   UNL     1       0.857  10.347  19.222  0.00  0.00    +0.000 A 
ATOM     21  C   UNL     1       1.483   9.224  18.681  0.00  0.00    +0.000 A 
ATOM     22  C   UNL     1       1.774   8.129  19.501  0.00  0.00    +0.000 A 
ATOM     23  C   UNL     1       1.447   8.150  20.860  0.00  0.00    +0.000 A 
ATOM     24  C   UNL     1       0.814   9.273  21.397  0.00  0.00    +0.000 A 
ENDBRANCH  16  22
ENDBRANCH   1  17
TORSDOF 3
ENDMDL
MODEL 4
REMARK VINA RESULT:      -6.9      3.144      5.066
REMARK  Name = 
REMARK  3 active torsions:
REMARK  status: ('A' for Active; 'I' for Inactive)
REMARK    1  A    between atoms: C_5  and  C_6
REMARK    2  A    between atoms: N_7  and  C_8
REMARK    3  A    between atoms: C_9  and  C_10
REMARK                            x       y       z     vdW  Elec       q    Type
REMARK                         _______ _______ _______ _____ _____    ______ ____
ROOT
ATOM      1  C   UNL     1       3.555   5.044  19.093  0.00  0.00    +0.000 A 
ATOM      2  C   UNL     1       4.426   4.164  18.431  0.00  0.00    +0.000 A 
ATOM      3  N   UNL     1       4.447   2.909  19.025  0.00  0.00    +0.000 NA
ATOM      4  C   UNL     1       3.631   3.037  20.022  0.00  0.00    +0.000 A 
ATOM      5  N   UNL     1       3.084   4.275  20.116  0.00  0.00    +0.000 N 
ATOM      6  C   UNL     1       2.191   4.516  21.224  0.00  0.00    +0.000 C 
ATOM      7  C   UNL     1       1.755   3.156  21.755  0.00  0.00    +0.000 C 
ATOM      8  S   UNL     1       3.051   1.959  21.235  0.00  0.00    +0.000 S 
ENDROOT
BRANCH   2   9
ATOM      9  C   UNL     1       5.191   4.494  17.237  0.00  0.00    +0.000 A 
ATOM     10  C   UNL     1       4.723   4.155  15.960  0.00  0.00    +0.000 A 
ATOM     11  C   UNL     1       5.492   4.401  14.819  0.00  0.00    +0.000 A 
ATOM     12  C   UNL     1       6.743   4.997  14.954  0.00  0.00    +0.000 A 
ATOM     13 CL   UNL     1       7.710   5.258  13.554  0.00  0.00    +0.000 Cl
ATOM     14  C   UNL     1       7.215   5.379  16.207  0.00  0.00    +0.000 A 
ATOM     15  C   UNL     1       6.440   5.131  17.350  0.00  0.00    +0.000 A 
ENDBRANCH   2   9
BRANCH   1  17
ATOM     16  C   UNL     1       2.275   6.901  19.534  0.00  0.00    +0.000 C 
ATOM     17  N   UNL     1       3.147   6.306  18.790  0.00  0.00    +0.000 NA
BRANCH  16  22
ATOM     18 CL   UNL     1       0.692  12.571  18.530  0.00  0.00    +0.000 Cl
ATOM     19  C   UNL     1       1.149  10.936  18.812  0.00  0.00    +0.000 A 
ATOM     20  C   UNL     1       1.886  10.249  17.847  0.00  0.00    +0.000 A 
ATOM     21  C   UNL     1       2.249   8.921  18.073  0.00  0.00    +0.000 A 
ATOM     22  C   UNL     1       1.873   8.292  19.265  0.00  0.00    +0.000 A 
ATOM     23  C   UNL     1       1.141   8.983  20.234  0.00  0.00    +0.000 A 
ATOM     24  C   UNL     1       0.774  10.311  20.002  0.00  0.00    +0.000 A 
ENDBRANCH  16  22
ENDBRANCH   1  17
TORSDOF 3
ENDMDL
MODEL 5
REMARK VINA RESULT:      -6.7      3.159      5.127
REMARK  Name = 
REMARK  3 active torsions:
REMARK  status: ('A' for Active; 'I' for Inactive)
REMARK    1  A    between atoms: C_5  and  C_6
REMARK    2  A    between atoms: N_7  and  C_8
REMARK    3  A    between atoms: C_9  and  C_10
REMARK                            x       y       z     vdW  Elec       q    Type
REMARK                         _______ _______ _______ _____ _____    ______ ____
ROOT
ATOM      1  C   UNL     1       3.569   4.917  19.203  0.00  0.00    +0.000 A 
ATOM      2  C   UNL     1       4.436   4.007  18.579  0.00  0.00    +0.000 A 
ATOM      3  N   UNL     1       4.396   2.755  19.180  0.00  0.00    +0.000 NA
ATOM      4  C   UNL     1       3.547   2.915  20.145  0.00  0.00    +0.000 A 
ATOM      5  N   UNL     1       3.036   4.169  20.211  0.00  0.00    +0.000 N 
ATOM      6  C   UNL     1       2.111   4.446  21.284  0.00  0.00    +0.000 C 
ATOM      7  C   UNL     1       1.613   3.103  21.806  0.00  0.00    +0.000 C 
ATOM      8  S   UNL     1       2.889   1.864  21.341  0.00  0.00    +0.000 S 
ENDROOT
BRANCH   2   9
ATOM      9  C   UNL     1       5.255   4.304  17.412  0.00  0.00    +0.000 A 
ATOM     10  C   UNL     1       6.443   5.038  17.531  0.00  0.00    +0.000 A 
ATOM     11  C   UNL     1       7.190   5.391  16.402  0.00  0.00    +0.000 A 
ATOM     12  C   UNL     1       6.748   5.002  15.141  0.00  0.00    +0.000 A 
ATOM     13 CL   UNL     1       7.642   5.475  13.748  0.00  0.00    +0.000 Cl
ATOM     14  C   UNL     1       5.592   4.238  15.000  0.00  0.00    +0.000 A 
ATOM     15  C   UNL     1       4.845   3.886  16.134  0.00  0.00    +0.000 A 
ENDBRANCH   2   9
BRANCH   1  17
ATOM     16  C   UNL     1       2.267   6.783  19.529  0.00  0.00    +0.000 C 
ATOM     17  N   UNL     1       3.212   6.190  18.879  0.00  0.00    +0.000 NA
BRANCH  16  22
ATOM     18 CL   UNL     1       0.883  12.490  18.448  0.00  0.00    +0.000 Cl
ATOM     19  C   UNL     1       1.282  10.845  18.752  0.00  0.00    +0.000 A 
ATOM     20  C   UNL     1       2.004  10.123  17.802  0.00  0.00    +0.000 A 
ATOM     21  C   UNL     1       2.321   8.786  18.046  0.00  0.00    +0.000 A 
ATOM     22  C   UNL     1       1.915   8.184  19.241  0.00  0.00    +0.000 A 
ATOM     23  C   UNL     1       1.197   8.910  20.196  0.00  0.00    +0.000 A 
ATOM     24  C   UNL     1       0.877  10.246  19.946  0.00  0.00    +0.000 A 
ENDBRANCH  16  22
ENDBRANCH   1  17
TORSDOF 3
ENDMDL
MODEL 6
REMARK VINA RESULT:      -6.6      2.863      4.866
REMARK  Name = 
REMARK  3 active torsions:
REMARK  status: ('A' for Active; 'I' for Inactive)
REMARK    1  A    between atoms: C_5  and  C_6
REMARK    2  A    between atoms: N_7  and  C_8
REMARK    3  A    between atoms: C_9  and  C_10
REMARK                            x       y       z     vdW  Elec       q    Type
REMARK                         _______ _______ _______ _____ _____    ______ ____
ROOT
ATOM      1  C   UNL     1       3.114   5.269  18.866  0.00  0.00    +0.000 A 
ATOM      2  C   UNL     1       4.396   4.886  18.445  0.00  0.00    +0.000 A 
ATOM      3  N   UNL     1       4.491   3.515  18.242  0.00  0.00    +0.000 NA
ATOM      4  C   UNL     1       3.308   3.087  18.551  0.00  0.00    +0.000 A 
ATOM      5  N   UNL     1       2.460   4.073  18.933  0.00  0.00    +0.000 N 
ATOM      6  C   UNL     1       1.131   3.678  19.333  0.00  0.00    +0.000 C 
ATOM      7  C   UNL     1       0.897   2.273  18.791  0.00  0.00    +0.000 C 
ATOM      8  S   UNL     1       2.561   1.534  18.538  0.00  0.00    +0.000 S 
ENDROOT
BRANCH   2   9
ATOM      9  C   UNL     1       5.500   5.805  18.200  0.00  0.00    +0.000 A 
ATOM     10  C   UNL     1       6.726   5.656  18.862  0.00  0.00    +0.000 A 
ATOM     11  C   UNL     1       7.758   6.582  18.686  0.00  0.00    +0.000 A 
ATOM     12  C   UNL     1       7.567   7.668  17.836  0.00  0.00    +0.000 A 
ATOM     13 CL   UNL     1       8.821   8.833  17.655  0.00  0.00    +0.000 Cl
ATOM     14  C   UNL     1       6.372   7.816  17.136  0.00  0.00    +0.000 A 
ATOM     15  C   UNL     1       5.338   6.886  17.314  0.00  0.00    +0.000 A 
ENDBRANCH   2   9
BRANCH   1  17
ATOM     16  C   UNL     1       2.060   6.802  20.216  0.00  0.00    +0.000 C 
ATOM     17  N   UNL     1       2.558   6.494  19.064  0.00  0.00    +0.000 NA
BRANCH  16  22
ATOM     18 CL   UNL     1      -0.212  12.238  21.186  0.00  0.00    +0.000 Cl
ATOM     19  C   UNL     1       0.445  10.672  20.913  0.00  0.00    +0.000 A 
ATOM     20  C   UNL     1       0.671   9.821  21.995  0.00  0.00    +0.000 A 
ATOM     21  C   UNL     1       1.212   8.553  21.774  0.00  0.00    +0.000 A 
ATOM     22  C   UNL     1       1.518   8.148  20.471  0.00  0.00    +0.000 A 
ATOM     23  C   UNL     1       1.285   8.998  19.387  0.00  0.00    +0.000 A 
ATOM     24  C   UNL     1       0.749  10.268  19.612  0.00  0.00    +0.000 A 
ENDBRANCH  16  22
ENDBRANCH   1  17
TORSDOF 3
ENDMDL
MODEL 7
REMARK VINA RESULT:      -6.5      3.455      6.944
REMARK  Name = 
REMARK  3 active torsions:
REMARK  status: ('A' for Active; 'I' for Inactive)
REMARK    1  A    between atoms: C_5  and  C_6
REMARK    2  A    between atoms: N_7  and  C_8
REMARK    3  A    between atoms: C_9  and  C_10
REMARK                            x       y       z     vdW  Elec       q    Type
REMARK                         _______ _______ _______ _____ _____    ______ ____
ROOT
ATOM      1  C   UNL     1       3.206   5.112  19.243  0.00  0.00    +0.000 A 
ATOM      2  C   UNL     1       2.284   5.967  19.865  0.00  0.00    +0.000 A 
ATOM      3  N   UNL     1       1.631   5.349  20.923  0.00  0.00    +0.000 NA
ATOM      4  C   UNL     1       2.131   4.154  20.923  0.00  0.00    +0.000 A 
ATOM      5  N   UNL     1       3.056   3.956  19.951  0.00  0.00    +0.000 N 
ATOM      6  C   UNL     1       3.636   2.638  19.855  0.00  0.00    +0.000 C 
ATOM      7  C   UNL     1       3.365   1.929  21.177  0.00  0.00    +0.000 C 
ATOM      8  S   UNL     1       1.909   2.768  21.923  0.00  0.00    +0.000 S 
ENDROOT
BRANCH   2   9
ATOM      9  C   UNL     1       2.055   7.356  19.491  0.00  0.00    +0.000 A 
ATOM     10  C   UNL     1       1.506   8.270  20.400  0.00  0.00    +0.000 A 
ATOM     11  C   UNL     1       1.214   9.583  20.018  0.00  0.00    +0.000 A 
ATOM     12  C   UNL     1       1.478   9.990  18.713  0.00  0.00    +0.000 A 
ATOM     13 CL   UNL     1       1.076  11.593  18.230  0.00  0.00    +0.000 Cl
ATOM     14  C   UNL     1       2.060   9.113  17.802  0.00  0.00    +0.000 A 
ATOM     15  C   UNL     1       2.352   7.797  18.188  0.00  0.00    +0.000 A 
ENDBRANCH   2   9
BRANCH   1  17
ATOM     16  C   UNL     1       4.348   4.433  17.367  0.00  0.00    +0.000 C 
ATOM     17  N   UNL     1       4.125   5.334  18.265  0.00  0.00    +0.000 NA
BRANCH  16  22
ATOM     18 CL   UNL     1       8.228   5.420  12.937  0.00  0.00    +0.000 Cl
ATOM     19  C   UNL     1       7.106   5.133  14.209  0.00  0.00    +0.000 A 
ATOM     20  C   UNL     1       6.050   4.243  14.009  0.00  0.00    +0.000 A 
ATOM     21  C   UNL     1       5.135   4.017  15.039  0.00  0.00    +0.000 A 
ATOM     22  C   UNL     1       5.286   4.683  16.259  0.00  0.00    +0.000 A 
ATOM     23  C   UNL     1       6.347   5.569  16.461  0.00  0.00    +0.000 A 
ATOM     24  C   UNL     1       7.258   5.798  15.427  0.00  0.00    +0.000 A 
ENDBRANCH  16  22
ENDBRANCH   1  17
TORSDOF 3
ENDMDL
MODEL 8
REMARK VINA RESULT:      -6.5      3.475      6.949
REMARK  Name = 
REMARK  3 active torsions:
REMARK  status: ('A' for Active; 'I' for Inactive)
REMARK    1  A    between atoms: C_5  and  C_6
REMARK    2  A    between atoms: N_7  and  C_8
REMARK    3  A    between atoms: C_9  and  C_10
REMARK                            x       y       z     vdW  Elec       q    Type
REMARK                         _______ _______ _______ _____ _____    ______ ____
ROOT
ATOM      1  C   UNL     1       3.225   5.038  19.259  0.00  0.00    +0.000 A 
ATOM      2  C   UNL     1       2.264   5.907  19.798  0.00  0.00    +0.000 A 
ATOM      3  N   UNL     1       1.553   5.319  20.836  0.00  0.00    +0.000 NA
ATOM      4  C   UNL     1       2.058   4.128  20.904  0.00  0.00    +0.000 A 
ATOM      5  N   UNL     1       3.038   3.905  19.994  0.00  0.00    +0.000 N 
ATOM      6  C   UNL     1       3.629   2.588  19.975  0.00  0.00    +0.000 C 
ATOM      7  C   UNL     1       3.285   1.921  21.301  0.00  0.00    +0.000 C 
ATOM      8  S   UNL     1       1.784   2.774  21.933  0.00  0.00    +0.000 S 
ENDROOT
BRANCH   2   9
ATOM      9  C   UNL     1       2.051   7.282  19.366  0.00  0.00    +0.000 A 
ATOM     10  C   UNL     1       2.432   7.706  18.086  0.00  0.00    +0.000 A 
ATOM     11  C   UNL     1       2.299   9.043  17.699  0.00  0.00    +0.000 A 
ATOM     12  C   UNL     1       1.774   9.967  18.598  0.00  0.00    +0.000 A 
ATOM     13 CL   UNL     1       1.653  11.621  18.137  0.00  0.00    +0.000 Cl
ATOM     14  C   UNL     1       1.351   9.563  19.862  0.00  0.00    +0.000 A 
ATOM     15  C   UNL     1       1.485   8.221  20.248  0.00  0.00    +0.000 A 
ENDBRANCH   2   9
BRANCH   1  17
ATOM     16  C   UNL     1       4.281   4.456  17.302  0.00  0.00    +0.000 C 
ATOM     17  N   UNL     1       4.198   5.235  18.329  0.00  0.00    +0.000 NA
BRANCH  16  22
ATOM     18 CL   UNL     1       8.265   5.447  12.966  0.00  0.00    +0.000 Cl
ATOM     19  C   UNL     1       7.122   5.164  14.220  0.00  0.00    +0.000 A 
ATOM     20  C   UNL     1       7.194   5.906  15.400  0.00  0.00    +0.000 A 
ATOM     21  C   UNL     1       6.272   5.670  16.420  0.00  0.00    +0.000 A 
ATOM     22  C   UNL     1       5.282   4.696  16.249  0.00  0.00    +0.000 A 
ATOM     23  C   UNL     1       5.206   3.959  15.064  0.00  0.00    +0.000 A 
ATOM     24  C   UNL     1       6.135   4.193  14.047  0.00  0.00    +0.000 A 
ENDBRANCH  16  22
ENDBRANCH   1  17
TORSDOF 3
ENDMDL
MODEL 9
REMARK VINA RESULT:      -6.4      2.902      4.908
REMARK  Name = 
REMARK  3 active torsions:
REMARK  status: ('A' for Active; 'I' for Inactive)
REMARK    1  A    between atoms: C_5  and  C_6
REMARK    2  A    between atoms: N_7  and  C_8
REMARK    3  A    between atoms: C_9  and  C_10
REMARK                            x       y       z     vdW  Elec       q    Type
REMARK                         _______ _______ _______ _____ _____    ______ ____
ROOT
ATOM      1  C   UNL     1       3.646   5.041  19.293  0.00  0.00    +0.000 A 
ATOM      2  C   UNL     1       4.848   4.887  18.585  0.00  0.00    +0.000 A 
ATOM      3  N   UNL     1       5.000   3.599  18.089  0.00  0.00    +0.000 NA
ATOM      4  C   UNL     1       3.932   2.994  18.502  0.00  0.00    +0.000 A 
ATOM      5  N   UNL     1       3.105   3.791  19.223  0.00  0.00    +0.000 N 
ATOM      6  C   UNL     1       1.908   3.185  19.756  0.00  0.00    +0.000 C 
ATOM      7  C   UNL     1       1.675   1.892  18.982  0.00  0.00    +0.000 C 
ATOM      8  S   UNL     1       3.309   1.401  18.296  0.00  0.00    +0.000 S 
ENDROOT
BRANCH   2   9
ATOM      9  C   UNL     1       5.816   5.951  18.350  0.00  0.00    +0.000 A 
ATOM     10  C   UNL     1       5.534   7.004  17.469  0.00  0.00    +0.000 A 
ATOM     11  C   UNL     1       6.491   7.982  17.183  0.00  0.00    +0.000 A 
ATOM     12  C   UNL     1       7.743   7.911  17.787  0.00  0.00    +0.000 A 
ATOM     13 CL   UNL     1       8.937   9.089  17.400  0.00  0.00    +0.000 Cl
ATOM     14  C   UNL     1       8.034   6.897  18.697  0.00  0.00    +0.000 A 
ATOM     15  C   UNL     1       7.072   5.917  18.982  0.00  0.00    +0.000 A 
ENDBRANCH   2   9
BRANCH   1  17
ATOM     16  C   UNL     1       2.448   6.990  19.075  0.00  0.00    +0.000 C 
ATOM     17  N   UNL     1       3.052   6.138  19.835  0.00  0.00    +0.000 NA
BRANCH  16  22
ATOM     18 CL   UNL     1      -0.357  11.686  21.469  0.00  0.00    +0.000 Cl
ATOM     19  C   UNL     1       0.449  10.335  20.773  0.00  0.00    +0.000 A 
ATOM     20  C   UNL     1       0.775  10.350  19.417  0.00  0.00    +0.000 A 
ATOM     21  C   UNL     1       1.421   9.250  18.851  0.00  0.00    +0.000 A 
ATOM     22  C   UNL     1       1.738   8.146  19.648  0.00  0.00    +0.000 A 
ATOM     23  C   UNL     1       1.417   8.134  21.008  0.00  0.00    +0.000 A 
ATOM     24  C   UNL     1       0.765   9.234  21.570  0.00  0.00    +0.000 A 
ENDBRANCH  16  22
ENDBRANCH   1  17
TORSDOF 3
ENDMDL
