MODEL 1
REMARK VINA RESULT:      -8.2      0.000      0.000
REMARK  Name = 
REMARK  8 active torsions:
REMARK  status: ('A' for Active; 'I' for Inactive)
REMARK    1  A    between atoms: C_1  and  O_2
REMARK    2  A    between atoms: O_2  and  C_3
REMARK    3  A    between atoms: C_5  and  C_6
REMARK    4  A    between atoms: C_13  and  N_14
REMARK    5  A    between atoms: N_14  and  C_15
REMARK    6  A    between atoms: C_18  and  C_19
REMARK    7  A    between atoms: C_33  and  O_34
REMARK    8  A    between atoms: C_35  and  O_36
REMARK                            x       y       z     vdW  Elec       q    Type
REMARK                         _______ _______ _______ _____ _____    ______ ____
ROOT
ATOM      1  C   UNL     1      -0.201  13.098  19.644  0.00  0.00    +0.000 C 
ATOM      2  C   UNL     1      -1.558  12.605  19.019  0.00  0.00    +0.000 A 
ATOM      3  C   UNL     1      -2.909  12.738  19.385  0.00  0.00    +0.000 A 
ATOM      4  C   UNL     1      -3.843  11.925  18.709  0.00  0.00    +0.000 A 
ATOM      5  C   UNL     1      -3.459  11.171  17.625  0.00  0.00    +0.000 A 
ATOM      6  C   UNL     1      -2.145  10.948  17.390  0.00  0.00    +0.000 A 
ATOM      7  C   UNL     1      -1.332  11.357  18.424  0.00  0.00    +0.000 A 
ATOM      8  C   UNL     1      -0.726  10.328  19.502  0.00  0.00    +0.000 C 
ATOM      9  C   UNL     1      -0.728  11.069  20.918  0.00  0.00    +0.000 C 
ATOM     10  C   UNL     1      -0.591  10.573  22.339  0.00  0.00    +0.000 C 
ATOM     11  O   UNL     1      -0.424  11.807  23.100  0.00  0.00    +0.000 OA
ATOM     12  C   UNL     1      -0.094  12.863  22.287  0.00  0.00    +0.000 C 
ATOM     13  O   UNL     1       0.106  14.007  22.663  0.00  0.00    +0.000 OA
ATOM     14  C   UNL     1       0.146  12.325  20.920  0.00  0.00    +0.000 C 
ATOM     15  O   UNL     1      -4.482  10.625  16.932  0.00  0.00    +0.000 OA
ATOM     16  C   UNL     1      -5.548  10.844  17.870  0.00  0.00    +0.000 C 
ATOM     17  O   UNL     1      -5.164  11.716  18.974  0.00  0.00    +0.000 OA
ENDROOT
BRANCH   1  20
ATOM     18  C   UNL     1       1.447  16.494  18.904  0.00  0.00    +0.000 A 
ATOM     19  C   UNL     1       0.483  15.525  19.246  0.00  0.00    +0.000 A 
ATOM     20  C   UNL     1       0.686  14.161  18.982  0.00  0.00    +0.000 A 
ATOM     21  C   UNL     1       1.934  13.779  18.425  0.00  0.00    +0.000 A 
ATOM     22  C   UNL     1       2.902  14.730  18.115  0.00  0.00    +0.000 A 
ATOM     23  C   UNL     1       2.649  16.081  18.322  0.00  0.00    +0.000 A 
BRANCH  18  25
ATOM     24  C   UNL     1       0.391  18.537  18.314  0.00  0.00    +0.000 C 
ATOM     25  O   UNL     1       1.312  17.839  19.139  0.00  0.00    +0.000 OA
ENDBRANCH  18  25
BRANCH  22  26
ATOM     26  O   UNL     1       4.144  14.382  17.650  0.00  0.00    +0.000 OA
ATOM     27  H   UNL     1       4.248  14.735  16.750  0.00  0.00    +0.000 HD
ENDBRANCH  22  26
BRANCH  23  28
ATOM     28  O   UNL     1       3.614  16.991  17.969  0.00  0.00    +0.000 OA
ATOM     29  H   UNL     1       3.118  17.781  17.681  0.00  0.00    +0.000 HD
ENDBRANCH  23  28
ENDBRANCH   1  20
BRANCH   8  30
ATOM     30  N   UNL     1       0.573  10.114  18.905  0.00  0.00    +0.000 N 
ATOM     31  H   UNL     1       0.513  10.286  17.899  0.00  0.00    +0.000 HD
BRANCH  30  32
ATOM     32  C   UNL     1       1.395   9.029  19.074  0.00  0.00    +0.000 A 
ATOM     33  C   UNL     1       1.399   8.255  20.226  0.00  0.00    +0.000 A 
ATOM     34  C   UNL     1       2.146   7.062  20.253  0.00  0.00    +0.000 A 
ATOM     35  C   UNL     1       2.841   6.658  19.105  0.00  0.00    +0.000 A 
ATOM     36  C   UNL     1       2.833   7.434  17.952  0.00  0.00    +0.000 A 
ATOM     37  C   UNL     1       2.096   8.604  17.947  0.00  0.00    +0.000 A 
BRANCH  35  38
ATOM     38  C   UNL     1       3.564   5.420  19.144  0.00  0.00    +0.000 C 
ATOM     39  N   UNL     1       4.167   4.454  19.173  0.00  0.00    +0.000 NA
ENDBRANCH  35  38
ENDBRANCH  30  32
ENDBRANCH   8  30
TORSDOF 7
ENDMDL
MODEL 2
REMARK VINA RESULT:      -8.0      0.686      1.750
REMARK  Name = 
REMARK  8 active torsions:
REMARK  status: ('A' for Active; 'I' for Inactive)
REMARK    1  A    between atoms: C_1  and  O_2
REMARK    2  A    between atoms: O_2  and  C_3
REMARK    3  A    between atoms: C_5  and  C_6
REMARK    4  A    between atoms: C_13  and  N_14
REMARK    5  A    between atoms: N_14  and  C_15
REMARK    6  A    between atoms: C_18  and  C_19
REMARK    7  A    between atoms: C_33  and  O_34
REMARK    8  A    between atoms: C_35  and  O_36
REMARK                            x       y       z     vdW  Elec       q    Type
REMARK                         _______ _______ _______ _____ _____    ______ ____
ROOT
ATOM      1  C   UNL     1      -0.325  13.164  20.116  0.00  0.00    +0.000 C 
ATOM      2  C   UNL     1      -1.600  12.679  19.333  0.00  0.00    +0.000 A 
ATOM      3  C   UNL     1      -2.980  12.698  19.604  0.00  0.00    +0.000 A 
ATOM      4  C   UNL     1      -3.811  11.925  18.767  0.00  0.00    +0.000 A 
ATOM      5  C   UNL     1      -3.304  11.327  17.637  0.00  0.00    +0.000 A 
ATOM      6  C   UNL     1      -1.965  11.202  17.482  0.00  0.00    +0.000 A 
ATOM      7  C   UNL     1      -1.256  11.526  18.618  0.00  0.00    +0.000 A 
ATOM      8  C   UNL     1      -0.668  10.408  19.614  0.00  0.00    +0.000 C 
ATOM      9  C   UNL     1      -0.817  10.973  21.102  0.00  0.00    +0.000 C 
ATOM     10  C   UNL     1      -0.754  10.317  22.463  0.00  0.00    +0.000 C 
ATOM     11  O   UNL     1      -0.718  11.458  23.371  0.00  0.00    +0.000 OA
ATOM     12  C   UNL     1      -0.395  12.620  22.715  0.00  0.00    +0.000 C 
ATOM     13  O   UNL     1      -0.293  13.719  23.235  0.00  0.00    +0.000 OA
ATOM     14  C   UNL     1      -0.024  12.263  21.317  0.00  0.00    +0.000 C 
ATOM     15  O   UNL     1      -4.239  10.815  16.806  0.00  0.00    +0.000 OA
ATOM     16  C   UNL     1      -5.382  10.865  17.677  0.00  0.00    +0.000 C 
ATOM     17  O   UNL     1      -5.133  11.616  18.901  0.00  0.00    +0.000 OA
ENDROOT
BRANCH   1  20
ATOM     18  C   UNL     1       2.491  15.135  18.388  0.00  0.00    +0.000 A 
ATOM     19  C   UNL     1       1.807  14.121  19.087  0.00  0.00    +0.000 A 
ATOM     20  C   UNL     1       0.542  14.343  19.654  0.00  0.00    +0.000 A 
ATOM     21  C   UNL     1      -0.063  15.608  19.434  0.00  0.00    +0.000 A 
ATOM     22  C   UNL     1       0.596  16.603  18.716  0.00  0.00    +0.000 A 
ATOM     23  C   UNL     1       1.877  16.380  18.225  0.00  0.00    +0.000 A 
BRANCH  18  25
ATOM     24  C   UNL     1       4.841  14.976  18.685  0.00  0.00    +0.000 C 
ATOM     25  O   UNL     1       3.724  14.981  17.808  0.00  0.00    +0.000 OA
ENDBRANCH  18  25
BRANCH  22  26
ATOM     26  O   UNL     1       0.004  17.803  18.422  0.00  0.00    +0.000 OA
ATOM     27  H   UNL     1      -0.686  17.979  19.085  0.00  0.00    +0.000 HD
ENDBRANCH  22  26
BRANCH  23  28
ATOM     28  O   UNL     1       2.508  17.398  17.555  0.00  0.00    +0.000 OA
ATOM     29  H   UNL     1       2.676  17.042  16.661  0.00  0.00    +0.000 HD
ENDBRANCH  23  28
ENDBRANCH   1  20
BRANCH   8  30
ATOM     30  N   UNL     1       0.681  10.334  19.101  0.00  0.00    +0.000 N 
ATOM     31  H   UNL     1       0.717  10.783  18.183  0.00  0.00    +0.000 HD
BRANCH  30  32
ATOM     32  C   UNL     1       1.484   9.224  19.031  0.00  0.00    +0.000 A 
ATOM     33  C   UNL     1       1.542   8.269  20.037  0.00  0.00    +0.000 A 
ATOM     34  C   UNL     1       2.257   7.077  19.816  0.00  0.00    +0.000 A 
ATOM     35  C   UNL     1       2.865   6.859  18.571  0.00  0.00    +0.000 A 
ATOM     36  C   UNL     1       2.802   7.816  17.566  0.00  0.00    +0.000 A 
ATOM     37  C   UNL     1       2.098   8.982  17.804  0.00  0.00    +0.000 A 
BRANCH  35  38
ATOM     38  C   UNL     1       3.556   5.621  18.355  0.00  0.00    +0.000 C 
ATOM     39  N   UNL     1       4.123   4.643  18.212  0.00  0.00    +0.000 NA
ENDBRANCH  35  38
ENDBRANCH  30  32
ENDBRANCH   8  30
TORSDOF 7
ENDMDL
MODEL 3
REMARK VINA RESULT:      -7.9      0.837      1.150
REMARK  Name = 
REMARK  8 active torsions:
REMARK  status: ('A' for Active; 'I' for Inactive)
REMARK    1  A    between atoms: C_1  and  O_2
REMARK    2  A    between atoms: O_2  and  C_3
REMARK    3  A    between atoms: C_5  and  C_6
REMARK    4  A    between atoms: C_13  and  N_14
REMARK    5  A    between atoms: N_14  and  C_15
REMARK    6  A    between atoms: C_18  and  C_19
REMARK    7  A    between atoms: C_33  and  O_34
REMARK    8  A    between atoms: C_35  and  O_36
REMARK                            x       y       z     vdW  Elec       q    Type
REMARK                         _______ _______ _______ _____ _____    ______ ____
ROOT
ATOM      1  C   UNL     1       0.014  13.057  19.973  0.00  0.00    +0.000 C 
ATOM      2  C   UNL     1      -1.179  12.422  19.168  0.00  0.00    +0.000 A 
ATOM      3  C   UNL     1      -2.578  12.537  19.239  0.00  0.00    +0.000 A 
ATOM      4  C   UNL     1      -3.340  11.599  18.511  0.00  0.00    +0.000 A 
ATOM      5  C   UNL     1      -2.730  10.728  17.639  0.00  0.00    +0.000 A 
ATOM      6  C   UNL     1      -1.391  10.539  17.700  0.00  0.00    +0.000 A 
ATOM      7  C   UNL     1      -0.812  11.119  18.807  0.00  0.00    +0.000 A 
ATOM      8  C   UNL     1      -0.414  10.271  20.114  0.00  0.00    +0.000 C 
ATOM      9  C   UNL     1      -0.716  11.190  21.387  0.00  0.00    +0.000 C 
ATOM     10  C   UNL     1      -0.858  10.892  22.862  0.00  0.00    +0.000 C 
ATOM     11  O   UNL     1      -0.873  12.221  23.462  0.00  0.00    +0.000 OA
ATOM     12  C   UNL     1      -0.407  13.177  22.592  0.00  0.00    +0.000 C 
ATOM     13  O   UNL     1      -0.311  14.368  22.838  0.00  0.00    +0.000 OA
ATOM     14  C   UNL     1       0.113  12.476  21.386  0.00  0.00    +0.000 C 
ATOM     15  O   UNL     1      -3.581  10.047  16.841  0.00  0.00    +0.000 OA
ATOM     16  C   UNL     1      -4.819  10.337  17.512  0.00  0.00    +0.000 C 
ATOM     17  O   UNL     1      -4.683  11.363  18.538  0.00  0.00    +0.000 OA
ENDROOT
BRANCH   1  20
ATOM     18  C   UNL     1       1.456  16.376  18.668  0.00  0.00    +0.000 A 
ATOM     19  C   UNL     1       0.551  15.334  18.951  0.00  0.00    +0.000 A 
ATOM     20  C   UNL     1       0.994  14.066  19.358  0.00  0.00    +0.000 A 
ATOM     21  C   UNL     1       2.389  13.888  19.551  0.00  0.00    +0.000 A 
ATOM     22  C   UNL     1       3.285  14.925  19.303  0.00  0.00    +0.000 A 
ATOM     23  C   UNL     1       2.826  16.150  18.833  0.00  0.00    +0.000 A 
BRANCH  18  25
ATOM     24  C   UNL     1      -0.188  17.763  17.663  0.00  0.00    +0.000 C 
ATOM     25  O   UNL     1       1.089  17.636  18.271  0.00  0.00    +0.000 OA
ENDBRANCH  18  25
BRANCH  22  26
ATOM     26  O   UNL     1       4.627  14.804  19.556  0.00  0.00    +0.000 OA
ATOM     27  H   UNL     1       5.046  14.366  18.796  0.00  0.00    +0.000 HD
ENDBRANCH  22  26
BRANCH  23  28
ATOM     28  O   UNL     1       3.743  17.135  18.566  0.00  0.00    +0.000 OA
ATOM     29  H   UNL     1       4.552  16.657  18.299  0.00  0.00    +0.000 HD
ENDBRANCH  23  28
ENDBRANCH   1  20
BRANCH   8  30
ATOM     30  N   UNL     1       0.982  10.043  19.820  0.00  0.00    +0.000 N 
ATOM     31  H   UNL     1       1.355  10.849  19.312  0.00  0.00    +0.000 HD
BRANCH  30  32
ATOM     32  C   UNL     1       1.540   8.925  19.253  0.00  0.00    +0.000 A 
ATOM     33  C   UNL     1       2.064   8.910  17.968  0.00  0.00    +0.000 A 
ATOM     34  C   UNL     1       2.769   7.776  17.523  0.00  0.00    +0.000 A 
ATOM     35  C   UNL     1       2.963   6.698  18.398  0.00  0.00    +0.000 A 
ATOM     36  C   UNL     1       2.440   6.717  19.686  0.00  0.00    +0.000 A 
ATOM     37  C   UNL     1       1.747   7.839  20.102  0.00  0.00    +0.000 A 
BRANCH  35  38
ATOM     38  C   UNL     1       3.718   5.570  17.937  0.00  0.00    +0.000 C 
ATOM     39  N   UNL     1       4.288   4.657  17.563  0.00  0.00    +0.000 NA
ENDBRANCH  35  38
ENDBRANCH  30  32
ENDBRANCH   8  30
TORSDOF 7
ENDMDL
MODEL 4
REMARK VINA RESULT:      -7.7      1.604      2.044
REMARK  Name = 
REMARK  8 active torsions:
REMARK  status: ('A' for Active; 'I' for Inactive)
REMARK    1  A    between atoms: C_1  and  O_2
REMARK    2  A    between atoms: O_2  and  C_3
REMARK    3  A    between atoms: C_5  and  C_6
REMARK    4  A    between atoms: C_13  and  N_14
REMARK    5  A    between atoms: N_14  and  C_15
REMARK    6  A    between atoms: C_18  and  C_19
REMARK    7  A    between atoms: C_33  and  O_34
REMARK    8  A    between atoms: C_35  and  O_36
REMARK                            x       y       z     vdW  Elec       q    Type
REMARK                         _______ _______ _______ _____ _____    ______ ____
ROOT
ATOM      1  C   UNL     1       0.401  12.760  20.350  0.00  0.00    +0.000 C 
ATOM      2  C   UNL     1      -0.627  12.247  19.275  0.00  0.00    +0.000 A 
ATOM      3  C   UNL     1      -1.985  12.505  19.019  0.00  0.00    +0.000 A 
ATOM      4  C   UNL     1      -2.645  11.647  18.115  0.00  0.00    +0.000 A 
ATOM      5  C   UNL     1      -1.938  10.715  17.392  0.00  0.00    +0.000 A 
ATOM      6  C   UNL     1      -0.676  10.391  17.760  0.00  0.00    +0.000 A 
ATOM      7  C   UNL     1      -0.319  10.913  18.984  0.00  0.00    +0.000 A 
ATOM      8  C   UNL     1      -0.326  10.033  20.330  0.00  0.00    +0.000 C 
ATOM      9  C   UNL     1      -0.824  10.983  21.515  0.00  0.00    +0.000 C 
ATOM     10  C   UNL     1      -1.338  10.706  22.910  0.00  0.00    +0.000 C 
ATOM     11  O   UNL     1      -1.360  12.033  23.517  0.00  0.00    +0.000 OA
ATOM     12  C   UNL     1      -0.610  12.932  22.800  0.00  0.00    +0.000 C 
ATOM     13  O   UNL     1      -0.455  14.108  23.086  0.00  0.00    +0.000 OA
ATOM     14  C   UNL     1       0.106  12.177  21.735  0.00  0.00    +0.000 C 
ATOM     15  O   UNL     1      -2.642  10.122  16.403  0.00  0.00    +0.000 OA
ATOM     16  C   UNL     1      -3.967  10.540  16.771  0.00  0.00    +0.000 C 
ATOM     17  O   UNL     1      -3.974  11.550  17.822  0.00  0.00    +0.000 OA
ENDROOT
BRANCH   1  20
ATOM     18  C   UNL     1       3.888  14.376  20.505  0.00  0.00    +0.000 A 
ATOM     19  C   UNL     1       2.661  13.812  20.903  0.00  0.00    +0.000 A 
ATOM     20  C   UNL     1       1.594  13.660  20.002  0.00  0.00    +0.000 A 
ATOM     21  C   UNL     1       1.821  14.027  18.650  0.00  0.00    +0.000 A 
ATOM     22  C   UNL     1       3.043  14.555  18.245  0.00  0.00    +0.000 A 
ATOM     23  C   UNL     1       4.059  14.760  19.172  0.00  0.00    +0.000 A 
BRANCH  18  25
ATOM     24  C   UNL     1       4.855  15.561  22.322  0.00  0.00    +0.000 C 
ATOM     25  O   UNL     1       4.968  14.548  21.333  0.00  0.00    +0.000 OA
ENDBRANCH  18  25
BRANCH  22  26
ATOM     26  O   UNL     1       3.314  14.843  16.933  0.00  0.00    +0.000 OA
ATOM     27  H   UNL     1       4.031  14.260  16.630  0.00  0.00    +0.000 HD
ENDBRANCH  22  26
BRANCH  23  28
ATOM     28  O   UNL     1       5.237  15.317  18.741  0.00  0.00    +0.000 OA
ATOM     29  H   UNL     1       5.895  15.064  19.417  0.00  0.00    +0.000 HD
ENDBRANCH  23  28
ENDBRANCH   1  20
BRANCH   8  30
ATOM     30  N   UNL     1       1.070   9.662  20.367  0.00  0.00    +0.000 N 
ATOM     31  H   UNL     1       1.617  10.362  19.861  0.00  0.00    +0.000 HD
BRANCH  30  32
ATOM     32  C   UNL     1       1.613   8.439  20.062  0.00  0.00    +0.000 A 
ATOM     33  C   UNL     1       1.480   7.328  20.882  0.00  0.00    +0.000 A 
ATOM     34  C   UNL     1       1.918   6.072  20.420  0.00  0.00    +0.000 A 
ATOM     35  C   UNL     1       2.444   5.960  19.125  0.00  0.00    +0.000 A 
ATOM     36  C   UNL     1       2.572   7.074  18.305  0.00  0.00    +0.000 A 
ATOM     37  C   UNL     1       2.141   8.299  18.779  0.00  0.00    +0.000 A 
BRANCH  35  38
ATOM     38  C   UNL     1       2.848   4.665  18.661  0.00  0.00    +0.000 C 
ATOM     39  N   UNL     1       3.199   3.641  18.306  0.00  0.00    +0.000 NA
ENDBRANCH  35  38
ENDBRANCH  30  32
ENDBRANCH   8  30
TORSDOF 7
ENDMDL
MODEL 5
REMARK VINA RESULT:      -7.4      2.944      6.797
REMARK  Name = 
REMARK  8 active torsions:
REMARK  status: ('A' for Active; 'I' for Inactive)
REMARK    1  A    between atoms: C_1  and  O_2
REMARK    2  A    between atoms: O_2  and  C_3
REMARK    3  A    between atoms: C_5  and  C_6
REMARK    4  A    between atoms: C_13  and  N_14
REMARK    5  A    between atoms: N_14  and  C_15
REMARK    6  A    between atoms: C_18  and  C_19
REMARK    7  A    between atoms: C_33  and  O_34
REMARK    8  A    between atoms: C_35  and  O_36
REMARK                            x       y       z     vdW  Elec       q    Type
REMARK                         _______ _______ _______ _____ _____    ______ ____
ROOT
ATOM      1  C   UNL     1       0.605  10.397  20.618  0.00  0.00    +0.000 C 
ATOM      2  C   UNL     1       0.691  11.867  20.065  0.00  0.00    +0.000 A 
ATOM      3  C   UNL     1       1.146  13.087  20.597  0.00  0.00    +0.000 A 
ATOM      4  C   UNL     1       0.818  14.261  19.887  0.00  0.00    +0.000 A 
ATOM      5  C   UNL     1       0.232  14.187  18.645  0.00  0.00    +0.000 A 
ATOM      6  C   UNL     1      -0.323  13.025  18.228  0.00  0.00    +0.000 A 
ATOM      7  C   UNL     1      -0.409  12.078  19.225  0.00  0.00    +0.000 A 
ATOM      8  C   UNL     1      -1.778  11.784  20.016  0.00  0.00    +0.000 C 
ATOM      9  C   UNL     1      -1.392  11.484  21.538  0.00  0.00    +0.000 C 
ATOM     10  C   UNL     1      -2.198  11.448  22.817  0.00  0.00    +0.000 C 
ATOM     11  O   UNL     1      -1.264  10.862  23.772  0.00  0.00    +0.000 OA
ATOM     12  C   UNL     1      -0.210  10.249  23.142  0.00  0.00    +0.000 C 
ATOM     13  O   UNL     1       0.712   9.679  23.702  0.00  0.00    +0.000 OA
ATOM     14  C   UNL     1      -0.490  10.257  21.679  0.00  0.00    +0.000 C 
ATOM     15  O   UNL     1       0.182  15.361  17.979  0.00  0.00    +0.000 OA
ATOM     16  C   UNL     1       0.509  16.258  19.054  0.00  0.00    +0.000 C 
ATOM     17  O   UNL     1       0.966  15.567  20.252  0.00  0.00    +0.000 OA
ENDROOT
BRANCH   1  20
ATOM     18  C   UNL     1       2.020   6.857  20.108  0.00  0.00    +0.000 A 
ATOM     19  C   UNL     1       1.493   8.005  20.729  0.00  0.00    +0.000 A 
ATOM     20  C   UNL     1       1.466   9.248  20.075  0.00  0.00    +0.000 A 
ATOM     21  C   UNL     1       1.920   9.292  18.732  0.00  0.00    +0.000 A 
ATOM     22  C   UNL     1       2.412   8.152  18.103  0.00  0.00    +0.000 A 
ATOM     23  C   UNL     1       2.494   6.950  18.796  0.00  0.00    +0.000 A 
BRANCH  18  25
ATOM     24  C   UNL     1       0.995   4.735  20.402  0.00  0.00    +0.000 C 
ATOM     25  O   UNL     1       2.072   5.615  20.689  0.00  0.00    +0.000 OA
ENDBRANCH  18  25
BRANCH  22  26
ATOM     26  O   UNL     1       2.783   8.150  16.783  0.00  0.00    +0.000 OA
ATOM     27  H   UNL     1       3.378   8.903  16.628  0.00  0.00    +0.000 HD
ENDBRANCH  22  26
BRANCH  23  28
ATOM     28  O   UNL     1       3.019   5.857  18.153  0.00  0.00    +0.000 OA
ATOM     29  H   UNL     1       3.162   5.197  18.859  0.00  0.00    +0.000 HD
ENDBRANCH  23  28
ENDBRANCH   1  20
BRANCH   8  30
ATOM     30  N   UNL     1      -2.243  10.649  19.250  0.00  0.00    +0.000 N 
ATOM     31  H   UNL     1      -1.658   9.838  19.464  0.00  0.00    +0.000 HD
BRANCH  30  32
ATOM     32  C   UNL     1      -2.504  10.607  17.904  0.00  0.00    +0.000 A 
ATOM     33  C   UNL     1      -1.800   9.798  17.023  0.00  0.00    +0.000 A 
ATOM     34  C   UNL     1      -2.239   9.684  15.690  0.00  0.00    +0.000 A 
ATOM     35  C   UNL     1      -3.401  10.357  15.287  0.00  0.00    +0.000 A 
ATOM     36  C   UNL     1      -4.105  11.164  16.173  0.00  0.00    +0.000 A 
ATOM     37  C   UNL     1      -3.655  11.266  17.477  0.00  0.00    +0.000 A 
BRANCH  35  38
ATOM     38  C   UNL     1      -3.851  10.195  13.935  0.00  0.00    +0.000 C 
ATOM     39  N   UNL     1      -4.210  10.033  12.866  0.00  0.00    +0.000 NA
ENDBRANCH  35  38
ENDBRANCH  30  32
ENDBRANCH   8  30
TORSDOF 7
ENDMDL
MODEL 6
REMARK VINA RESULT:      -7.3      1.155      1.332
REMARK  Name = 
REMARK  8 active torsions:
REMARK  status: ('A' for Active; 'I' for Inactive)
REMARK    1  A    between atoms: C_1  and  O_2
REMARK    2  A    between atoms: O_2  and  C_3
REMARK    3  A    between atoms: C_5  and  C_6
REMARK    4  A    between atoms: C_13  and  N_14
REMARK    5  A    between atoms: N_14  and  C_15
REMARK    6  A    between atoms: C_18  and  C_19
REMARK    7  A    between atoms: C_33  and  O_34
REMARK    8  A    between atoms: C_35  and  O_36
REMARK                            x       y       z     vdW  Elec       q    Type
REMARK                         _______ _______ _______ _____ _____    ______ ____
ROOT
ATOM      1  C   UNL     1      -1.063  13.642  20.312  0.00  0.00    +0.000 C 
ATOM      2  C   UNL     1      -2.324  13.000  19.623  0.00  0.00    +0.000 A 
ATOM      3  C   UNL     1      -3.695  12.962  19.933  0.00  0.00    +0.000 A 
ATOM      4  C   UNL     1      -4.494  12.055  19.207  0.00  0.00    +0.000 A 
ATOM      5  C   UNL     1      -3.978  11.373  18.131  0.00  0.00    +0.000 A 
ATOM      6  C   UNL     1      -2.638  11.314  17.949  0.00  0.00    +0.000 A 
ATOM      7  C   UNL     1      -1.924  11.800  19.023  0.00  0.00    +0.000 A 
ATOM      8  C   UNL     1      -1.242  10.832  20.111  0.00  0.00    +0.000 C 
ATOM      9  C   UNL     1      -1.391  11.541  21.536  0.00  0.00    +0.000 C 
ATOM     10  C   UNL     1      -1.253  11.040  22.955  0.00  0.00    +0.000 C 
ATOM     11  O   UNL     1      -1.268  12.271  23.738  0.00  0.00    +0.000 OA
ATOM     12  C   UNL     1      -1.036  13.374  22.954  0.00  0.00    +0.000 C 
ATOM     13  O   UNL     1      -0.992  14.526  23.353  0.00  0.00    +0.000 OA
ATOM     14  C   UNL     1      -0.677  12.893  21.591  0.00  0.00    +0.000 C 
ATOM     15  O   UNL     1      -4.898  10.719  17.388  0.00  0.00    +0.000 OA
ATOM     16  C   UNL     1      -6.020  10.792  18.283  0.00  0.00    +0.000 C 
ATOM     17  O   UNL     1      -5.790  11.683  19.413  0.00  0.00    +0.000 OA
ENDROOT
BRANCH   1  20
ATOM     18  C   UNL     1      -0.165  17.222  19.232  0.00  0.00    +0.000 A 
ATOM     19  C   UNL     1      -0.909  16.058  19.501  0.00  0.00    +0.000 A 
ATOM     20  C   UNL     1      -0.285  14.816  19.703  0.00  0.00    +0.000 A 
ATOM     21  C   UNL     1       1.133  14.787  19.703  0.00  0.00    +0.000 A 
ATOM     22  C   UNL     1       1.874  15.943  19.469  0.00  0.00    +0.000 A 
ATOM     23  C   UNL     1       1.231  17.145  19.202  0.00  0.00    +0.000 A 
BRANCH  18  25
ATOM     24  C   UNL     1      -1.492  18.629  17.854  0.00  0.00    +0.000 C 
ATOM     25  O   UNL     1      -0.712  18.464  19.029  0.00  0.00    +0.000 OA
ENDBRANCH  18  25
BRANCH  22  26
ATOM     26  O   UNL     1       3.243  15.958  19.542  0.00  0.00    +0.000 OA
ATOM     27  H   UNL     1       3.514  15.529  20.372  0.00  0.00    +0.000 HD
ENDBRANCH  22  26
BRANCH  23  28
ATOM     28  O   UNL     1       1.996  18.254  18.941  0.00  0.00    +0.000 OA
ATOM     29  H   UNL     1       1.367  18.913  18.588  0.00  0.00    +0.000 HD
ENDBRANCH  23  28
ENDBRANCH   1  20
BRANCH   8  30
ATOM     30  N   UNL     1       0.097  10.787  19.568  0.00  0.00    +0.000 N 
ATOM     31  H   UNL     1       0.092  11.195  18.630  0.00  0.00    +0.000 HD
BRANCH  30  32
ATOM     32  C   UNL     1       0.940   9.706  19.527  0.00  0.00    +0.000 A 
ATOM     33  C   UNL     1       1.019   8.770  20.549  0.00  0.00    +0.000 A 
ATOM     34  C   UNL     1       1.781   7.602  20.356  0.00  0.00    +0.000 A 
ATOM     35  C   UNL     1       2.415   7.387  19.124  0.00  0.00    +0.000 A 
ATOM     36  C   UNL     1       2.331   8.325  18.103  0.00  0.00    +0.000 A 
ATOM     37  C   UNL     1       1.581   9.468  18.313  0.00  0.00    +0.000 A 
BRANCH  35  38
ATOM     38  C   UNL     1       3.154   6.172  18.938  0.00  0.00    +0.000 C 
ATOM     39  N   UNL     1       3.750   5.208  18.822  0.00  0.00    +0.000 NA
ENDBRANCH  35  38
ENDBRANCH  30  32
ENDBRANCH   8  30
TORSDOF 7
ENDMDL
MODEL 7
REMARK VINA RESULT:      -7.1      2.974      6.865
REMARK  Name = 
REMARK  8 active torsions:
REMARK  status: ('A' for Active; 'I' for Inactive)
REMARK    1  A    between atoms: C_1  and  O_2
REMARK    2  A    between atoms: O_2  and  C_3
REMARK    3  A    between atoms: C_5  and  C_6
REMARK    4  A    between atoms: C_13  and  N_14
REMARK    5  A    between atoms: N_14  and  C_15
REMARK    6  A    between atoms: C_18  and  C_19
REMARK    7  A    between atoms: C_33  and  O_34
REMARK    8  A    between atoms: C_35  and  O_36
REMARK                            x       y       z     vdW  Elec       q    Type
REMARK                         _______ _______ _______ _____ _____    ______ ____
ROOT
ATOM      1  C   UNL     1       0.500  10.052  20.568  0.00  0.00    +0.000 C 
ATOM      2  C   UNL     1       0.846  11.465  19.970  0.00  0.00    +0.000 A 
ATOM      3  C   UNL     1       1.581  12.570  20.434  0.00  0.00    +0.000 A 
ATOM      4  C   UNL     1       1.450  13.778  19.716  0.00  0.00    +0.000 A 
ATOM      5  C   UNL     1       0.770  13.812  18.521  0.00  0.00    +0.000 A 
ATOM      6  C   UNL     1      -0.042  12.785  18.178  0.00  0.00    +0.000 A 
ATOM      7  C   UNL     1      -0.247  11.890  19.204  0.00  0.00    +0.000 A 
ATOM      8  C   UNL     1      -1.584  11.896  20.098  0.00  0.00    +0.000 C 
ATOM      9  C   UNL     1      -1.155  11.542  21.597  0.00  0.00    +0.000 C 
ATOM     10  C   UNL     1      -1.853  11.691  22.930  0.00  0.00    +0.000 C 
ATOM     11  O   UNL     1      -0.992  10.935  23.833  0.00  0.00    +0.000 OA
ATOM     12  C   UNL     1      -0.136  10.109  23.146  0.00  0.00    +0.000 C 
ATOM     13  O   UNL     1       0.687   9.366  23.655  0.00  0.00    +0.000 OA
ATOM     14  C   UNL     1      -0.518  10.156  21.708  0.00  0.00    +0.000 C 
ATOM     15  O   UNL     1       0.914  14.963  17.828  0.00  0.00    +0.000 OA
ATOM     16  C   UNL     1       1.499  15.785  18.852  0.00  0.00    +0.000 C 
ATOM     17  O   UNL     1       1.892  15.029  20.034  0.00  0.00    +0.000 OA
ENDROOT
BRANCH   1  20
ATOM     18  C   UNL     1       2.523   7.630  18.370  0.00  0.00    +0.000 A 
ATOM     19  C   UNL     1       1.747   8.734  18.772  0.00  0.00    +0.000 A 
ATOM     20  C   UNL     1       1.061   8.742  19.997  0.00  0.00    +0.000 A 
ATOM     21  C   UNL     1       1.238   7.627  20.856  0.00  0.00    +0.000 A 
ATOM     22  C   UNL     1       2.030   6.547  20.476  0.00  0.00    +0.000 A 
ATOM     23  C   UNL     1       2.642   6.533  19.228  0.00  0.00    +0.000 A 
BRANCH  18  25
ATOM     24  C   UNL     1       4.630   7.420  17.294  0.00  0.00    +0.000 C 
ATOM     25  O   UNL     1       3.220   7.560  17.190  0.00  0.00    +0.000 OA
ENDBRANCH  18  25
BRANCH  22  26
ATOM     26  O   UNL     1       2.281   5.495  21.318  0.00  0.00    +0.000 OA
ATOM     27  H   UNL     1       2.311   5.829  22.231  0.00  0.00    +0.000 HD
ENDBRANCH  22  26
BRANCH  23  28
ATOM     28  O   UNL     1       3.386   5.435  18.875  0.00  0.00    +0.000 OA
ATOM     29  H   UNL     1       3.622   5.011  19.723  0.00  0.00    +0.000 HD
ENDBRANCH  23  28
ENDBRANCH   1  20
BRANCH   8  30
ATOM     30  N   UNL     1      -2.330  10.874  19.399  0.00  0.00    +0.000 N 
ATOM     31  H   UNL     1      -2.032   9.954  19.733  0.00  0.00    +0.000 HD
BRANCH  30  32
ATOM     32  C   UNL     1      -2.517  10.763  18.045  0.00  0.00    +0.000 A 
ATOM     33  C   UNL     1      -1.830   9.849  17.259  0.00  0.00    +0.000 A 
ATOM     34  C   UNL     1      -2.202   9.680  15.912  0.00  0.00    +0.000 A 
ATOM     35  C   UNL     1      -3.283  10.410  15.398  0.00  0.00    +0.000 A 
ATOM     36  C   UNL     1      -3.971  11.323  16.189  0.00  0.00    +0.000 A 
ATOM     37  C   UNL     1      -3.588  11.477  17.508  0.00  0.00    +0.000 A 
BRANCH  35  38
ATOM     38  C   UNL     1      -3.668  10.194  14.034  0.00  0.00    +0.000 C 
ATOM     39  N   UNL     1      -3.951   9.997  12.948  0.00  0.00    +0.000 NA
ENDBRANCH  35  38
ENDBRANCH  30  32
ENDBRANCH   8  30
TORSDOF 7
ENDMDL
MODEL 8
REMARK VINA RESULT:      -7.0      2.094      5.677
REMARK  Name = 
REMARK  8 active torsions:
REMARK  status: ('A' for Active; 'I' for Inactive)
REMARK    1  A    between atoms: C_1  and  O_2
REMARK    2  A    between atoms: O_2  and  C_3
REMARK    3  A    between atoms: C_5  and  C_6
REMARK    4  A    between atoms: C_13  and  N_14
REMARK    5  A    between atoms: N_14  and  C_15
REMARK    6  A    between atoms: C_18  and  C_19
REMARK    7  A    between atoms: C_33  and  O_34
REMARK    8  A    between atoms: C_35  and  O_36
REMARK                            x       y       z     vdW  Elec       q    Type
REMARK                         _______ _______ _______ _____ _____    ______ ____
ROOT
ATOM      1  C   UNL     1      -1.292  12.753  20.737  0.00  0.00    +0.000 C 
ATOM      2  C   UNL     1      -0.048  13.518  20.154  0.00  0.00    +0.000 A 
ATOM      3  C   UNL     1       0.111  14.557  19.220  0.00  0.00    +0.000 A 
ATOM      4  C   UNL     1       1.418  14.806  18.751  0.00  0.00    +0.000 A 
ATOM      5  C   UNL     1       2.499  14.173  19.320  0.00  0.00    +0.000 A 
ATOM      6  C   UNL     1       2.308  13.085  20.102  0.00  0.00    +0.000 A 
ATOM      7  C   UNL     1       1.015  12.612  20.065  0.00  0.00    +0.000 A 
ATOM      8  C   UNL     1       0.589  11.339  19.179  0.00  0.00    +0.000 C 
ATOM      9  C   UNL     1      -0.869  11.634  18.595  0.00  0.00    +0.000 C 
ATOM     10  C   UNL     1      -1.676  11.013  17.478  0.00  0.00    +0.000 C 
ATOM     11  O   UNL     1      -2.999  11.597  17.669  0.00  0.00    +0.000 OA
ATOM     12  C   UNL     1      -3.132  12.158  18.916  0.00  0.00    +0.000 C 
ATOM     13  O   UNL     1      -4.134  12.711  19.338  0.00  0.00    +0.000 OA
ATOM     14  C   UNL     1      -1.913  11.813  19.699  0.00  0.00    +0.000 C 
ATOM     15  O   UNL     1       3.699  14.666  18.943  0.00  0.00    +0.000 OA
ATOM     16  C   UNL     1       3.284  15.473  17.827  0.00  0.00    +0.000 C 
ATOM     17  O   UNL     1       1.836  15.611  17.732  0.00  0.00    +0.000 OA
ENDROOT
BRANCH   1  20
ATOM     18  C   UNL     1      -1.808  14.225  24.253  0.00  0.00    +0.000 A 
ATOM     19  C   UNL     1      -1.210  13.885  23.024  0.00  0.00    +0.000 A 
ATOM     20  C   UNL     1      -1.747  12.885  22.197  0.00  0.00    +0.000 A 
ATOM     21  C   UNL     1      -2.961  12.276  22.607  0.00  0.00    +0.000 A 
ATOM     22  C   UNL     1      -3.573  12.632  23.806  0.00  0.00    +0.000 A 
ATOM     23  C   UNL     1      -2.984  13.575  24.640  0.00  0.00    +0.000 A 
BRANCH  18  25
ATOM     24  C   UNL     1      -0.846  16.382  24.501  0.00  0.00    +0.000 C 
ATOM     25  O   UNL     1      -1.337  15.193  25.104  0.00  0.00    +0.000 OA
ENDBRANCH  18  25
BRANCH  22  26
ATOM     26  O   UNL     1      -4.785  12.118  24.187  0.00  0.00    +0.000 OA
ATOM     27  H   UNL     1      -4.861  12.188  25.154  0.00  0.00    +0.000 HD
ENDBRANCH  22  26
BRANCH  23  28
ATOM     28  O   UNL     1      -3.598  13.872  25.831  0.00  0.00    +0.000 OA
ATOM     29  H   UNL     1      -3.059  13.421  26.509  0.00  0.00    +0.000 HD
ENDBRANCH  23  28
ENDBRANCH   1  20
BRANCH   8  30
ATOM     30  N   UNL     1       0.663  10.317  20.198  0.00  0.00    +0.000 N 
ATOM     31  H   UNL     1       0.974  10.740  21.076  0.00  0.00    +0.000 HD
BRANCH  30  32
ATOM     32  C   UNL     1       1.282   9.096  20.106  0.00  0.00    +0.000 A 
ATOM     33  C   UNL     1       1.192   8.127  21.096  0.00  0.00    +0.000 A 
ATOM     34  C   UNL     1       1.711   6.841  20.852  0.00  0.00    +0.000 A 
ATOM     35  C   UNL     1       2.274   6.551  19.601  0.00  0.00    +0.000 A 
ATOM     36  C   UNL     1       2.360   7.523  18.612  0.00  0.00    +0.000 A 
ATOM     37  C   UNL     1       1.848   8.781  18.872  0.00  0.00    +0.000 A 
BRANCH  35  38
ATOM     38  C   UNL     1       2.762   5.224  19.362  0.00  0.00    +0.000 C 
ATOM     39  N   UNL     1       3.177   4.178  19.189  0.00  0.00    +0.000 NA
ENDBRANCH  35  38
ENDBRANCH  30  32
ENDBRANCH   8  30
TORSDOF 7
ENDMDL
MODEL 9
REMARK VINA RESULT:      -7.0      2.238      5.839
REMARK  Name = 
REMARK  8 active torsions:
REMARK  status: ('A' for Active; 'I' for Inactive)
REMARK    1  A    between atoms: C_1  and  O_2
REMARK    2  A    between atoms: O_2  and  C_3
REMARK    3  A    between atoms: C_5  and  C_6
REMARK    4  A    between atoms: C_13  and  N_14
REMARK    5  A    between atoms: N_14  and  C_15
REMARK    6  A    between atoms: C_18  and  C_19
REMARK    7  A    between atoms: C_33  and  O_34
REMARK    8  A    between atoms: C_35  and  O_36
REMARK                            x       y       z     vdW  Elec       q    Type
REMARK                         _______ _______ _______ _____ _____    ______ ____
ROOT
ATOM      1  C   UNL     1      -1.576  13.066  20.875  0.00  0.00    +0.000 C 
ATOM      2  C   UNL     1      -0.462  14.002  20.276  0.00  0.00    +0.000 A 
ATOM      3  C   UNL     1      -0.474  15.092  19.388  0.00  0.00    +0.000 A 
ATOM      4  C   UNL     1       0.769  15.518  18.875  0.00  0.00    +0.000 A 
ATOM      5  C   UNL     1       1.944  14.997  19.364  0.00  0.00    +0.000 A 
ATOM      6  C   UNL     1       1.924  13.860  20.099  0.00  0.00    +0.000 A 
ATOM      7  C   UNL     1       0.696  13.236  20.096  0.00  0.00    +0.000 A 
ATOM      8  C   UNL     1       0.381  11.961  19.168  0.00  0.00    +0.000 C 
ATOM      9  C   UNL     1      -1.129  12.102  18.664  0.00  0.00    +0.000 C 
ATOM     10  C   UNL     1      -1.911  11.436  17.554  0.00  0.00    +0.000 C 
ATOM     11  O   UNL     1      -3.283  11.846  17.832  0.00  0.00    +0.000 OA
ATOM     12  C   UNL     1      -3.419  12.332  19.109  0.00  0.00    +0.000 C 
ATOM     13  O   UNL     1      -4.458  12.741  19.601  0.00  0.00    +0.000 OA
ATOM     14  C   UNL     1      -2.131  12.104  19.820  0.00  0.00    +0.000 C 
ATOM     15  O   UNL     1       3.056  15.648  18.959  0.00  0.00    +0.000 OA
ATOM     16  C   UNL     1       2.494  16.446  17.904  0.00  0.00    +0.000 C 
ATOM     17  O   UNL     1       1.037  16.411  17.879  0.00  0.00    +0.000 OA
ENDROOT
BRANCH   1  20
ATOM     18  C   UNL     1      -2.034  14.289  24.493  0.00  0.00    +0.000 A 
ATOM     19  C   UNL     1      -1.471  14.068  23.221  0.00  0.00    +0.000 A 
ATOM     20  C   UNL     1      -1.970  13.078  22.358  0.00  0.00    +0.000 A 
ATOM     21  C   UNL     1      -3.115  12.355  22.781  0.00  0.00    +0.000 A 
ATOM     22  C   UNL     1      -3.694  12.593  24.025  0.00  0.00    +0.000 A 
ATOM     23  C   UNL     1      -3.139  13.530  24.889  0.00  0.00    +0.000 A 
BRANCH  18  25
ATOM     24  C   UNL     1      -1.987  16.580  25.115  0.00  0.00    +0.000 C 
ATOM     25  O   UNL     1      -1.598  15.240  25.380  0.00  0.00    +0.000 OA
ENDBRANCH  18  25
BRANCH  22  26
ATOM     26  O   UNL     1      -4.845  11.966  24.425  0.00  0.00    +0.000 OA
ATOM     27  H   UNL     1      -5.197  11.457  23.674  0.00  0.00    +0.000 HD
ENDBRANCH  22  26
BRANCH  23  28
ATOM     28  O   UNL     1      -3.717  13.709  26.121  0.00  0.00    +0.000 OA
ATOM     29  H   UNL     1      -4.029  14.634  26.117  0.00  0.00    +0.000 HD
ENDBRANCH  23  28
ENDBRANCH   1  20
BRANCH   8  30
ATOM     30  N   UNL     1       0.627  10.912  20.132  0.00  0.00    +0.000 N 
ATOM     31  H   UNL     1       1.213  11.279  20.886  0.00  0.00    +0.000 HD
BRANCH  30  32
ATOM     32  C   UNL     1       1.063   9.636  19.877  0.00  0.00    +0.000 A 
ATOM     33  C   UNL     1       1.638   9.259  18.672  0.00  0.00    +0.000 A 
ATOM     34  C   UNL     1       2.213   7.981  18.551  0.00  0.00    +0.000 A 
ATOM     35  C   UNL     1       2.229   7.124  19.661  0.00  0.00    +0.000 A 
ATOM     36  C   UNL     1       1.654   7.505  20.867  0.00  0.00    +0.000 A 
ATOM     37  C   UNL     1       1.091   8.764  20.965  0.00  0.00    +0.000 A 
BRANCH  35  38
ATOM     38  C   UNL     1       2.853   5.840  19.526  0.00  0.00    +0.000 C 
ATOM     39  N   UNL     1       3.367   4.833  19.392  0.00  0.00    +0.000 NA
ENDBRANCH  35  38
ENDBRANCH  30  32
ENDBRANCH   8  30
TORSDOF 7
ENDMDL
