MODEL 1
REMARK VINA RESULT:      -8.1      0.000      0.000
REMARK  Name = 
REMARK  3 active torsions:
REMARK  status: ('A' for Active; 'I' for Inactive)
REMARK    1  A    between atoms: P_2  and  O_3
REMARK    2  A    between atoms: C_8  and  N_9
REMARK    3  A    between atoms: C_18  and  O_19
REMARK                            x       y       z     vdW  Elec       q    Type
REMARK                         _______ _______ _______ _____ _____    ______ ____
ROOT
ATOM      1  O   UNL     1       7.841   5.201  14.347  0.00  0.00    +0.000 OA
ATOM      2  P   UNL     1       6.531   4.513  14.498  0.00  0.00    +0.000 P 
ATOM      3  O   UNL     1       5.264   5.497  14.378  0.00  0.00    +0.000 OA
ATOM      4  C   UNL     1       5.163   6.506  15.389  0.00  0.00    +0.000 C 
ATOM      5  C   UNL     1       5.820   6.038  16.686  0.00  0.00    +0.000 C 
ATOM      6  O   UNL     1       5.391   6.694  17.873  0.00  0.00    +0.000 OA
ATOM      7  C   UNL     1       5.297   5.670  18.913  0.00  0.00    +0.000 C 
ATOM      8  C   UNL     1       5.881   4.366  18.326  0.00  0.00    +0.000 C 
ATOM      9  C   UNL     1       5.563   4.545  16.852  0.00  0.00    +0.000 C 
ATOM     10  O   UNL     1       6.330   3.790  15.931  0.00  0.00    +0.000 OA
ENDROOT
BRANCH   7  11
ATOM     11  N   UNL     1       3.891   5.565  19.290  0.00  0.00    +0.000 N 
ATOM     12  N   UNL     1       3.149   6.698  19.373  0.00  0.00    +0.000 NA
ATOM     13  C   UNL     1       2.018   6.296  19.948  0.00  0.00    +0.000 A 
ATOM     14  C   UNL     1       1.996   4.910  20.193  0.00  0.00    +0.000 A 
ATOM     15  C   UNL     1       1.081   4.013  20.769  0.00  0.00    +0.000 A 
ATOM     16  C   UNL     1       1.415   2.658  20.833  0.00  0.00    +0.000 A 
ATOM     17  C   UNL     1       2.629   2.196  20.323  0.00  0.00    +0.000 A 
ATOM     18  C   UNL     1       3.558   3.078  19.755  0.00  0.00    +0.000 A 
ATOM     19  C   UNL     1       3.218   4.439  19.714  0.00  0.00    +0.000 A 
ENDBRANCH   7  11
BRANCH   2  20
ATOM     20  O   UNL     1       6.247   3.378  13.415  0.00  0.00    +0.000 OA
ATOM     21  H   UNL     1       6.358   2.486  13.791  0.00  0.00    +0.000 HD
ENDBRANCH   2  20
BRANCH   8  22
ATOM     22  O   UNL     1       7.296   4.306  18.582  0.00  0.00    +0.000 OA
ATOM     23  H   UNL     1       7.455   3.865  19.436  0.00  0.00    +0.000 HD
ENDBRANCH   8  22
TORSDOF 3
ENDMDL
MODEL 2
REMARK VINA RESULT:      -7.5      2.245      3.579
REMARK  Name = 
REMARK  3 active torsions:
REMARK  status: ('A' for Active; 'I' for Inactive)
REMARK    1  A    between atoms: P_2  and  O_3
REMARK    2  A    between atoms: C_8  and  N_9
REMARK    3  A    between atoms: C_18  and  O_19
REMARK                            x       y       z     vdW  Elec       q    Type
REMARK                         _______ _______ _______ _____ _____    ______ ____
ROOT
ATOM      1  O   UNL     1       7.907   4.056  16.659  0.00  0.00    +0.000 OA
ATOM      2  P   UNL     1       7.124   5.068  15.902  0.00  0.00    +0.000 P 
ATOM      3  O   UNL     1       7.286   6.567  16.464  0.00  0.00    +0.000 OA
ATOM      4  C   UNL     1       6.807   6.787  17.795  0.00  0.00    +0.000 C 
ATOM      5  C   UNL     1       5.674   5.819  18.128  0.00  0.00    +0.000 C 
ATOM      6  O   UNL     1       4.803   6.218  19.180  0.00  0.00    +0.000 OA
ATOM      7  C   UNL     1       3.449   5.839  18.776  0.00  0.00    +0.000 C 
ATOM      8  C   UNL     1       3.573   5.009  17.480  0.00  0.00    +0.000 C 
ATOM      9  C   UNL     1       4.832   5.604  16.875  0.00  0.00    +0.000 C 
ATOM     10  O   UNL     1       5.526   4.813  15.925  0.00  0.00    +0.000 OA
ENDROOT
BRANCH   7  11
ATOM     11  N   UNL     1       2.688   7.073  18.611  0.00  0.00    +0.000 N 
ATOM     12  N   UNL     1       2.783   7.750  17.439  0.00  0.00    +0.000 NA
ATOM     13  C   UNL     1       2.177   8.909  17.690  0.00  0.00    +0.000 A 
ATOM     14  C   UNL     1       1.647   8.973  18.993  0.00  0.00    +0.000 A 
ATOM     15  C   UNL     1       0.951   9.937  19.740  0.00  0.00    +0.000 A 
ATOM     16  C   UNL     1       0.566   9.628  21.048  0.00  0.00    +0.000 A 
ATOM     17  C   UNL     1       0.853   8.380  21.601  0.00  0.00    +0.000 A 
ATOM     18  C   UNL     1       1.556   7.410  20.874  0.00  0.00    +0.000 A 
ATOM     19  C   UNL     1       1.954   7.741  19.570  0.00  0.00    +0.000 A 
ENDBRANCH   7  11
BRANCH   2  20
ATOM     20  O   UNL     1       7.504   5.187  14.359  0.00  0.00    +0.000 OA
ATOM     21  H   UNL     1       6.992   5.886  13.914  0.00  0.00    +0.000 HD
ENDBRANCH   2  20
BRANCH   8  22
ATOM     22  O   UNL     1       3.721   3.615  17.806  0.00  0.00    +0.000 OA
ATOM     23  H   UNL     1       2.891   3.279  18.190  0.00  0.00    +0.000 HD
ENDBRANCH   8  22
TORSDOF 3
ENDMDL
MODEL 3
REMARK VINA RESULT:      -7.4      3.948      5.555
REMARK  Name = 
REMARK  3 active torsions:
REMARK  status: ('A' for Active; 'I' for Inactive)
REMARK    1  A    between atoms: P_2  and  O_3
REMARK    2  A    between atoms: C_8  and  N_9
REMARK    3  A    between atoms: C_18  and  O_19
REMARK                            x       y       z     vdW  Elec       q    Type
REMARK                         _______ _______ _______ _____ _____    ______ ____
ROOT
ATOM      1  O   UNL     1       2.896   1.527  18.923  0.00  0.00    +0.000 OA
ATOM      2  P   UNL     1       1.710   2.311  18.488  0.00  0.00    +0.000 P 
ATOM      3  O   UNL     1       1.958   3.177  17.154  0.00  0.00    +0.000 OA
ATOM      4  C   UNL     1       2.946   4.208  17.257  0.00  0.00    +0.000 C 
ATOM      5  C   UNL     1       3.046   4.718  18.693  0.00  0.00    +0.000 C 
ATOM      6  O   UNL     1       3.601   6.018  18.855  0.00  0.00    +0.000 OA
ATOM      7  C   UNL     1       2.827   6.682  19.903  0.00  0.00    +0.000 C 
ATOM      8  C   UNL     1       1.873   5.628  20.505  0.00  0.00    +0.000 C 
ATOM      9  C   UNL     1       1.651   4.721  19.309  0.00  0.00    +0.000 C 
ATOM     10  O   UNL     1       1.209   3.401  19.573  0.00  0.00    +0.000 OA
ENDROOT
BRANCH   7  11
ATOM     11  N   UNL     1       2.139   7.809  19.282  0.00  0.00    +0.000 N 
ATOM     12  N   UNL     1       2.421   8.117  17.991  0.00  0.00    +0.000 NA
ATOM     13  C   UNL     1       1.825   9.294  17.808  0.00  0.00    +0.000 A 
ATOM     14  C   UNL     1       1.119   9.729  18.946  0.00  0.00    +0.000 A 
ATOM     15  C   UNL     1       0.358  10.862  19.274  0.00  0.00    +0.000 A 
ATOM     16  C   UNL     1      -0.218  10.942  20.546  0.00  0.00    +0.000 A 
ATOM     17  C   UNL     1      -0.054   9.911  21.471  0.00  0.00    +0.000 A 
ATOM     18  C   UNL     1       0.712   8.778  21.163  0.00  0.00    +0.000 A 
ATOM     19  C   UNL     1       1.301   8.719  19.891  0.00  0.00    +0.000 A 
ENDBRANCH   7  11
BRANCH   2  20
ATOM     20  O   UNL     1       0.421   1.436  18.150  0.00  0.00    +0.000 OA
ATOM     21  H   UNL     1       0.618   0.745  17.493  0.00  0.00    +0.000 HD
ENDBRANCH   2  20
BRANCH   8  22
ATOM     22  O   UNL     1       2.520   4.952  21.599  0.00  0.00    +0.000 OA
ATOM     23  H   UNL     1       2.566   3.997  21.412  0.00  0.00    +0.000 HD
ENDBRANCH   8  22
TORSDOF 3
ENDMDL
MODEL 4
REMARK VINA RESULT:      -7.0      3.360      5.370
REMARK  Name = 
REMARK  3 active torsions:
REMARK  status: ('A' for Active; 'I' for Inactive)
REMARK    1  A    between atoms: P_2  and  O_3
REMARK    2  A    between atoms: C_8  and  N_9
REMARK    3  A    between atoms: C_18  and  O_19
REMARK                            x       y       z     vdW  Elec       q    Type
REMARK                         _______ _______ _______ _____ _____    ______ ____
ROOT
ATOM      1  O   UNL     1       4.005   1.357  18.198  0.00  0.00    +0.000 OA
ATOM      2  P   UNL     1       4.206   2.168  19.428  0.00  0.00    +0.000 P 
ATOM      3  O   UNL     1       2.861   2.398  20.281  0.00  0.00    +0.000 OA
ATOM      4  C   UNL     1       1.829   3.143  19.625  0.00  0.00    +0.000 C 
ATOM      5  C   UNL     1       2.426   4.113  18.609  0.00  0.00    +0.000 C 
ATOM      6  O   UNL     1       1.608   5.219  18.247  0.00  0.00    +0.000 OA
ATOM      7  C   UNL     1       2.490   6.381  18.137  0.00  0.00    +0.000 C 
ATOM      8  C   UNL     1       3.941   5.869  18.273  0.00  0.00    +0.000 C 
ATOM      9  C   UNL     1       3.737   4.657  19.164  0.00  0.00    +0.000 C 
ATOM     10  O   UNL     1       4.750   3.666  19.146  0.00  0.00    +0.000 OA
ENDROOT
BRANCH   7  11
ATOM     11  N   UNL     1       2.099   7.320  19.182  0.00  0.00    +0.000 N 
ATOM     12  N   UNL     1       1.855   6.846  20.430  0.00  0.00    +0.000 NA
ATOM     13  C   UNL     1       1.311   7.883  21.064  0.00  0.00    +0.000 A 
ATOM     14  C   UNL     1       1.245   9.037  20.260  0.00  0.00    +0.000 A 
ATOM     15  C   UNL     1       0.769  10.347  20.432  0.00  0.00    +0.000 A 
ATOM     16  C   UNL     1       0.887  11.252  19.373  0.00  0.00    +0.000 A 
ATOM     17  C   UNL     1       1.479  10.870  18.169  0.00  0.00    +0.000 A 
ATOM     18  C   UNL     1       1.950   9.564  17.977  0.00  0.00    +0.000 A 
ATOM     19  C   UNL     1       1.808   8.660  19.040  0.00  0.00    +0.000 A 
ENDBRANCH   7  11
BRANCH   2  20
ATOM     20  O   UNL     1       5.231   1.544  20.478  0.00  0.00    +0.000 OA
ATOM     21  H   UNL     1       5.717   2.236  20.961  0.00  0.00    +0.000 HD
ENDBRANCH   2  20
BRANCH   8  22
ATOM     22  O   UNL     1       4.459   5.520  16.976  0.00  0.00    +0.000 OA
ATOM     23  H   UNL     1       3.774   5.668  16.299  0.00  0.00    +0.000 HD
ENDBRANCH   8  22
TORSDOF 3
ENDMDL
MODEL 5
REMARK VINA RESULT:      -6.9      2.064      3.415
REMARK  Name = 
REMARK  3 active torsions:
REMARK  status: ('A' for Active; 'I' for Inactive)
REMARK    1  A    between atoms: P_2  and  O_3
REMARK    2  A    between atoms: C_8  and  N_9
REMARK    3  A    between atoms: C_18  and  O_19
REMARK                            x       y       z     vdW  Elec       q    Type
REMARK                         _______ _______ _______ _____ _____    ______ ____
ROOT
ATOM      1  O   UNL     1       7.885   7.384  16.654  0.00  0.00    +0.000 OA
ATOM      2  P   UNL     1       7.620   6.612  17.897  0.00  0.00    +0.000 P 
ATOM      3  O   UNL     1       7.764   5.019  17.715  0.00  0.00    +0.000 OA
ATOM      4  C   UNL     1       6.836   4.411  16.810  0.00  0.00    +0.000 C 
ATOM      5  C   UNL     1       5.536   5.209  16.753  0.00  0.00    +0.000 C 
ATOM      6  O   UNL     1       4.389   4.499  16.301  0.00  0.00    +0.000 OA
ATOM      7  C   UNL     1       3.264   4.941  17.127  0.00  0.00    +0.000 C 
ATOM      8  C   UNL     1       3.768   6.113  17.997  0.00  0.00    +0.000 C 
ATOM      9  C   UNL     1       5.235   5.754  18.145  0.00  0.00    +0.000 C 
ATOM     10  O   UNL     1       6.125   6.804  18.484  0.00  0.00    +0.000 OA
ENDROOT
BRANCH   7  11
ATOM     11  N   UNL     1       2.819   3.786  17.900  0.00  0.00    +0.000 N 
ATOM     12  N   UNL     1       2.508   2.639  17.244  0.00  0.00    +0.000 NA
ATOM     13  C   UNL     1       1.932   1.885  18.178  0.00  0.00    +0.000 A 
ATOM     14  C   UNL     1       1.909   2.507  19.441  0.00  0.00    +0.000 A 
ATOM     15  C   UNL     1       1.425   2.163  20.713  0.00  0.00    +0.000 A 
ATOM     16  C   UNL     1       1.599   3.065  21.767  0.00  0.00    +0.000 A 
ATOM     17  C   UNL     1       2.254   4.280  21.567  0.00  0.00    +0.000 A 
ATOM     18  C   UNL     1       2.734   4.644  20.302  0.00  0.00    +0.000 A 
ATOM     19  C   UNL     1       2.535   3.739  19.249  0.00  0.00    +0.000 A 
ENDBRANCH   7  11
BRANCH   2  20
ATOM     20  O   UNL     1       8.592   6.955  19.113  0.00  0.00    +0.000 OA
ATOM     21  H   UNL     1       8.847   7.895  19.116  0.00  0.00    +0.000 HD
ENDBRANCH   2  20
BRANCH   8  22
ATOM     22  O   UNL     1       3.570   7.357  17.301  0.00  0.00    +0.000 OA
ATOM     23  H   UNL     1       3.452   7.185  16.349  0.00  0.00    +0.000 HD
ENDBRANCH   8  22
TORSDOF 3
ENDMDL
MODEL 6
REMARK VINA RESULT:      -6.9      3.759      6.220
REMARK  Name = 
REMARK  3 active torsions:
REMARK  status: ('A' for Active; 'I' for Inactive)
REMARK    1  A    between atoms: P_2  and  O_3
REMARK    2  A    between atoms: C_8  and  N_9
REMARK    3  A    between atoms: C_18  and  O_19
REMARK                            x       y       z     vdW  Elec       q    Type
REMARK                         _______ _______ _______ _____ _____    ______ ____
ROOT
ATOM      1  O   UNL     1       0.519   3.131  20.050  0.00  0.00    +0.000 OA
ATOM      2  P   UNL     1       1.752   3.201  20.879  0.00  0.00    +0.000 P 
ATOM      3  O   UNL     1       2.203   4.702  21.243  0.00  0.00    +0.000 OA
ATOM      4  C   UNL     1       2.570   5.528  20.133  0.00  0.00    +0.000 C 
ATOM      5  C   UNL     1       3.111   4.680  18.985  0.00  0.00    +0.000 C 
ATOM      6  O   UNL     1       3.937   5.357  18.046  0.00  0.00    +0.000 OA
ATOM      7  C   UNL     1       5.022   4.440  17.696  0.00  0.00    +0.000 C 
ATOM      8  C   UNL     1       4.698   3.078  18.348  0.00  0.00    +0.000 C 
ATOM      9  C   UNL     1       3.911   3.521  19.568  0.00  0.00    +0.000 C 
ATOM     10  O   UNL     1       3.057   2.563  20.168  0.00  0.00    +0.000 OA
ENDROOT
BRANCH   7  11
ATOM     11  N   UNL     1       6.263   5.038  18.175  0.00  0.00    +0.000 N 
ATOM     12  N   UNL     1       7.005   4.364  19.091  0.00  0.00    +0.000 NA
ATOM     13  C   UNL     1       7.914   5.254  19.481  0.00  0.00    +0.000 A 
ATOM     14  C   UNL     1       7.805   6.480  18.796  0.00  0.00    +0.000 A 
ATOM     15  C   UNL     1       8.484   7.708  18.834  0.00  0.00    +0.000 A 
ATOM     16  C   UNL     1       8.083   8.727  17.965  0.00  0.00    +0.000 A 
ATOM     17  C   UNL     1       7.038   8.528  17.064  0.00  0.00    +0.000 A 
ATOM     18  C   UNL     1       6.343   7.312  17.019  0.00  0.00    +0.000 A 
ATOM     19  C   UNL     1       6.742   6.304  17.910  0.00  0.00    +0.000 A 
ENDBRANCH   7  11
BRANCH   2  20
ATOM     20  O   UNL     1       1.647   2.471  22.292  0.00  0.00    +0.000 OA
ATOM     21  H   UNL     1       1.610   3.111  23.025  0.00  0.00    +0.000 HD
ENDBRANCH   2  20
BRANCH   8  22
ATOM     22  O   UNL     1       3.912   2.279  17.444  0.00  0.00    +0.000 OA
ATOM     23  H   UNL     1       2.983   2.270  17.738  0.00  0.00    +0.000 HD
ENDBRANCH   8  22
TORSDOF 3
ENDMDL
MODEL 7
REMARK VINA RESULT:      -6.9      3.835      6.488
REMARK  Name = 
REMARK  3 active torsions:
REMARK  status: ('A' for Active; 'I' for Inactive)
REMARK    1  A    between atoms: P_2  and  O_3
REMARK    2  A    between atoms: C_8  and  N_9
REMARK    3  A    between atoms: C_18  and  O_19
REMARK                            x       y       z     vdW  Elec       q    Type
REMARK                         _______ _______ _______ _____ _____    ______ ____
ROOT
ATOM      1  O   UNL     1       0.623   3.318  20.841  0.00  0.00    +0.000 OA
ATOM      2  P   UNL     1       2.099   3.255  21.011  0.00  0.00    +0.000 P 
ATOM      3  O   UNL     1       2.822   4.692  20.943  0.00  0.00    +0.000 OA
ATOM      4  C   UNL     1       2.718   5.382  19.693  0.00  0.00    +0.000 C 
ATOM      5  C   UNL     1       2.576   4.391  18.540  0.00  0.00    +0.000 C 
ATOM      6  O   UNL     1       2.940   4.877  17.254  0.00  0.00    +0.000 OA
ATOM      7  C   UNL     1       3.639   3.787  16.572  0.00  0.00    +0.000 C 
ATOM      8  C   UNL     1       3.513   2.533  17.464  0.00  0.00    +0.000 C 
ATOM      9  C   UNL     1       3.430   3.165  18.842  0.00  0.00    +0.000 C 
ATOM     10  O   UNL     1       2.855   2.385  19.875  0.00  0.00    +0.000 OA
ENDROOT
BRANCH   7  11
ATOM     11  N   UNL     1       5.016   4.222  16.364  0.00  0.00    +0.000 N 
ATOM     12  N   UNL     1       5.694   4.771  17.404  0.00  0.00    +0.000 NA
ATOM     13  C   UNL     1       6.797   5.260  16.842  0.00  0.00    +0.000 A 
ATOM     14  C   UNL     1       6.869   4.992  15.461  0.00  0.00    +0.000 A 
ATOM     15  C   UNL     1       7.780   5.285  14.434  0.00  0.00    +0.000 A 
ATOM     16  C   UNL     1       7.508   4.830  13.141  0.00  0.00    +0.000 A 
ATOM     17  C   UNL     1       6.360   4.084  12.872  0.00  0.00    +0.000 A 
ATOM     18  C   UNL     1       5.435   3.791  13.884  0.00  0.00    +0.000 A 
ATOM     19  C   UNL     1       5.709   4.272  15.173  0.00  0.00    +0.000 A 
ENDBRANCH   7  11
BRANCH   2  20
ATOM     20  O   UNL     1       2.584   2.640  22.399  0.00  0.00    +0.000 OA
ATOM     21  H   UNL     1       2.537   3.294  23.119  0.00  0.00    +0.000 HD
ENDBRANCH   2  20
BRANCH   8  22
ATOM     22  O   UNL     1       2.320   1.806  17.117  0.00  0.00    +0.000 OA
ATOM     23  H   UNL     1       1.596   2.059  17.718  0.00  0.00    +0.000 HD
ENDBRANCH   8  22
TORSDOF 3
ENDMDL
MODEL 8
REMARK VINA RESULT:      -6.8      3.478      5.697
REMARK  Name = 
REMARK  3 active torsions:
REMARK  status: ('A' for Active; 'I' for Inactive)
REMARK    1  A    between atoms: P_2  and  O_3
REMARK    2  A    between atoms: C_8  and  N_9
REMARK    3  A    between atoms: C_18  and  O_19
REMARK                            x       y       z     vdW  Elec       q    Type
REMARK                         _______ _______ _______ _____ _____    ______ ____
ROOT
ATOM      1  O   UNL     1       1.217   2.304  20.674  0.00  0.00    +0.000 OA
ATOM      2  P   UNL     1       1.521   2.473  19.228  0.00  0.00    +0.000 P 
ATOM      3  O   UNL     1       2.806   1.640  18.733  0.00  0.00    +0.000 OA
ATOM      4  C   UNL     1       4.056   2.015  19.323  0.00  0.00    +0.000 C 
ATOM      5  C   UNL     1       4.039   3.487  19.729  0.00  0.00    +0.000 C 
ATOM      6  O   UNL     1       5.312   4.107  19.870  0.00  0.00    +0.000 OA
ATOM      7  C   UNL     1       5.187   5.458  19.321  0.00  0.00    +0.000 C 
ATOM      8  C   UNL     1       3.693   5.687  19.004  0.00  0.00    +0.000 C 
ATOM      9  C   UNL     1       3.243   4.271  18.694  0.00  0.00    +0.000 C 
ATOM     10  O   UNL     1       1.857   3.997  18.802  0.00  0.00    +0.000 OA
ENDROOT
BRANCH   7  11
ATOM     11  N   UNL     1       6.053   5.529  18.149  0.00  0.00    +0.000 N 
ATOM     12  N   UNL     1       7.086   6.409  18.150  0.00  0.00    +0.000 NA
ATOM     13  C   UNL     1       7.518   6.394  16.891  0.00  0.00    +0.000 A 
ATOM     14  C   UNL     1       6.812   5.480  16.085  0.00  0.00    +0.000 A 
ATOM     15  C   UNL     1       6.859   5.098  14.735  0.00  0.00    +0.000 A 
ATOM     16  C   UNL     1       5.974   4.114  14.282  0.00  0.00    +0.000 A 
ATOM     17  C   UNL     1       5.069   3.510  15.154  0.00  0.00    +0.000 A 
ATOM     18  C   UNL     1       5.002   3.887  16.502  0.00  0.00    +0.000 A 
ATOM     19  C   UNL     1       5.881   4.889  16.940  0.00  0.00    +0.000 A 
ENDBRANCH   7  11
BRANCH   2  20
ATOM     20  O   UNL     1       0.355   2.013  18.245  0.00  0.00    +0.000 OA
ATOM     21  H   UNL     1      -0.166   1.280  18.621  0.00  0.00    +0.000 HD
ENDBRANCH   2  20
BRANCH   8  22
ATOM     22  O   UNL     1       3.029   6.239  20.156  0.00  0.00    +0.000 OA
ATOM     23  H   UNL     1       3.224   5.693  20.939  0.00  0.00    +0.000 HD
ENDBRANCH   8  22
TORSDOF 3
ENDMDL
MODEL 9
REMARK VINA RESULT:      -6.6      1.055      1.994
REMARK  Name = 
REMARK  3 active torsions:
REMARK  status: ('A' for Active; 'I' for Inactive)
REMARK    1  A    between atoms: P_2  and  O_3
REMARK    2  A    between atoms: C_8  and  N_9
REMARK    3  A    between atoms: C_18  and  O_19
REMARK                            x       y       z     vdW  Elec       q    Type
REMARK                         _______ _______ _______ _____ _____    ______ ____
ROOT
ATOM      1  O   UNL     1       7.601   5.507  13.814  0.00  0.00    +0.000 OA
ATOM      2  P   UNL     1       6.659   4.407  14.153  0.00  0.00    +0.000 P 
ATOM      3  O   UNL     1       5.139   4.895  14.355  0.00  0.00    +0.000 OA
ATOM      4  C   UNL     1       4.914   5.797  15.445  0.00  0.00    +0.000 C 
ATOM      5  C   UNL     1       5.942   5.571  16.552  0.00  0.00    +0.000 C 
ATOM      6  O   UNL     1       5.570   6.027  17.847  0.00  0.00    +0.000 OA
ATOM      7  C   UNL     1       6.042   5.022  18.801  0.00  0.00    +0.000 C 
ATOM      8  C   UNL     1       6.896   4.006  18.011  0.00  0.00    +0.000 C 
ATOM      9  C   UNL     1       6.241   4.079  16.644  0.00  0.00    +0.000 C 
ATOM     10  O   UNL     1       7.011   3.645  15.536  0.00  0.00    +0.000 OA
ENDROOT
BRANCH   7  11
ATOM     11  N   UNL     1       4.862   4.435  19.427  0.00  0.00    +0.000 N 
ATOM     12  N   UNL     1       4.834   3.095  19.642  0.00  0.00    +0.000 NA
ATOM     13  C   UNL     1       3.572   2.857  19.995  0.00  0.00    +0.000 A 
ATOM     14  C   UNL     1       2.795   4.029  20.060  0.00  0.00    +0.000 A 
ATOM     15  C   UNL     1       1.455   4.322  20.358  0.00  0.00    +0.000 A 
ATOM     16  C   UNL     1       1.033   5.654  20.327  0.00  0.00    +0.000 A 
ATOM     17  C   UNL     1       1.926   6.680  20.021  0.00  0.00    +0.000 A 
ATOM     18  C   UNL     1       3.265   6.404  19.710  0.00  0.00    +0.000 A 
ATOM     19  C   UNL     1       3.671   5.062  19.725  0.00  0.00    +0.000 A 
ENDBRANCH   7  11
BRANCH   2  20
ATOM     20  O   UNL     1       6.557   3.255  13.056  0.00  0.00    +0.000 OA
ATOM     21  H   UNL     1       5.665   3.207  12.667  0.00  0.00    +0.000 HD
ENDBRANCH   2  20
BRANCH   8  22
ATOM     22  O   UNL     1       8.270   4.436  17.990  0.00  0.00    +0.000 OA
ATOM     23  H   UNL     1       8.393   5.170  18.618  0.00  0.00    +0.000 HD
ENDBRANCH   8  22
TORSDOF 3
ENDMDL
