MODEL 1
REMARK VINA RESULT:      -8.4      0.000      0.000
REMARK  Name = 
REMARK  5 active torsions:
REMARK  status: ('A' for Active; 'I' for Inactive)
REMARK    1  A    between atoms: C_1  and  N_2
REMARK    2  A    between atoms: C_3  and  C_4
REMARK    3  A    between atoms: N_6  and  C_7
REMARK    4  A    between atoms: C_7  and  C_8
REMARK    5  A    between atoms: N_19  and  C_20
REMARK                            x       y       z     vdW  Elec       q    Type
REMARK                         _______ _______ _______ _____ _____    ______ ____
ROOT
ATOM      1  C   UNL     1       1.554   6.102  20.802  0.00  0.00    +0.000 C 
ATOM      2  N   UNL     1       1.848   7.104  19.797  0.00  0.00    +0.000 N 
ATOM      3  C   UNL     1       2.529   6.848  18.602  0.00  0.00    +0.000 A 
ATOM      4  C   UNL     1       2.577   8.065  17.932  0.00  0.00    +0.000 A 
ATOM      5  C   UNL     1       1.936   9.046  18.719  0.00  0.00    +0.000 A 
ATOM      6  C   UNL     1       1.754  10.463  18.423  0.00  0.00    +0.000 A 
ATOM      7  O   UNL     1       2.177  10.939  17.386  0.00  0.00    +0.000 OA
ATOM      8  N   UNL     1       1.070  11.204  19.404  0.00  0.00    +0.000 N 
ATOM      9  C   UNL     1       0.869  12.621  19.141  0.00  0.00    +0.000 C 
ATOM     10  C   UNL     1       0.573  10.617  20.624  0.00  0.00    +0.000 A 
ATOM     11  C   UNL     1      -0.107  11.411  21.568  0.00  0.00    +0.000 A 
ATOM     12  C   UNL     1      -0.594  10.862  22.752  0.00  0.00    +0.000 A 
ATOM     13  C   UNL     1      -0.411   9.512  23.012  0.00  0.00    +0.000 A 
ATOM     14  C   UNL     1       0.260   8.704  22.090  0.00  0.00    +0.000 A 
ATOM     15  C   UNL     1       0.761   9.229  20.893  0.00  0.00    +0.000 A 
ATOM     16  C   UNL     1       1.478   8.444  19.871  0.00  0.00    +0.000 A 
ENDROOT
BRANCH   3  17
ATOM     17  C   UNL     1       3.093   5.565  18.176  0.00  0.00    +0.000 C 
ATOM     18  O   UNL     1       2.443   4.666  17.648  0.00  0.00    +0.000 OA
ATOM     19  N   UNL     1       4.445   5.427  18.403  0.00  0.00    +0.000 N 
ATOM     20  H   UNL     1       4.953   6.226  18.753  0.00  0.00    +0.000 HD
BRANCH  19  21
ATOM     21  C   UNL     1       5.167   4.224  18.022  0.00  0.00    +0.000 C 
BRANCH  21  22
ATOM     22  C   UNL     1       5.850   4.341  16.675  0.00  0.00    +0.000 A 
ATOM     23  C   UNL     1       7.149   4.855  16.533  0.00  0.00    +0.000 A 
ATOM     24  C   UNL     1       7.690   5.104  15.267  0.00  0.00    +0.000 A 
ATOM     25  C   UNL     1       6.983   4.738  14.130  0.00  0.00    +0.000 A 
ATOM     26 CL   UNL     1       7.632   5.092  12.577  0.00  0.00    +0.000 Cl
ATOM     27  C   UNL     1       5.751   4.101  14.248  0.00  0.00    +0.000 A 
ATOM     28  C   UNL     1       5.172   3.935  15.512  0.00  0.00    +0.000 A 
ENDBRANCH  21  22
ENDBRANCH  19  21
ENDBRANCH   3  17
TORSDOF 3
ENDMDL
MODEL 2
REMARK VINA RESULT:      -8.3      4.206      8.504
REMARK  Name = 
REMARK  5 active torsions:
REMARK  status: ('A' for Active; 'I' for Inactive)
REMARK    1  A    between atoms: C_1  and  N_2
REMARK    2  A    between atoms: C_3  and  C_4
REMARK    3  A    between atoms: N_6  and  C_7
REMARK    4  A    between atoms: C_7  and  C_8
REMARK    5  A    between atoms: N_19  and  C_20
REMARK                            x       y       z     vdW  Elec       q    Type
REMARK                         _______ _______ _______ _____ _____    ______ ____
ROOT
ATOM      1  C   UNL     1       0.876   7.713  21.016  0.00  0.00    +0.000 C 
ATOM      2  N   UNL     1       1.688   7.726  19.817  0.00  0.00    +0.000 N 
ATOM      3  C   UNL     1       1.815   8.825  18.960  0.00  0.00    +0.000 A 
ATOM      4  C   UNL     1       2.690   8.420  17.958  0.00  0.00    +0.000 A 
ATOM      5  C   UNL     1       3.082   7.086  18.207  0.00  0.00    +0.000 A 
ATOM      6  C   UNL     1       3.980   6.249  17.419  0.00  0.00    +0.000 A 
ATOM      7  O   UNL     1       4.500   6.679  16.406  0.00  0.00    +0.000 OA
ATOM      8  N   UNL     1       4.187   4.949  17.915  0.00  0.00    +0.000 N 
ATOM      9  C   UNL     1       5.078   4.086  17.155  0.00  0.00    +0.000 C 
ATOM     10  C   UNL     1       3.563   4.462  19.122  0.00  0.00    +0.000 A 
ATOM     11  C   UNL     1       3.812   3.151  19.569  0.00  0.00    +0.000 A 
ATOM     12  C   UNL     1       3.219   2.663  20.731  0.00  0.00    +0.000 A 
ATOM     13  C   UNL     1       2.370   3.477  21.466  0.00  0.00    +0.000 A 
ATOM     14  C   UNL     1       2.109   4.783  21.041  0.00  0.00    +0.000 A 
ATOM     15  C   UNL     1       2.690   5.299  19.877  0.00  0.00    +0.000 A 
ATOM     16  C   UNL     1       2.466   6.663  19.364  0.00  0.00    +0.000 A 
ENDROOT
BRANCH   3  17
ATOM     17  C   UNL     1       1.134  10.116  19.091  0.00  0.00    +0.000 C 
ATOM     18  O   UNL     1       1.461  10.991  19.889  0.00  0.00    +0.000 OA
ATOM     19  N   UNL     1       0.076  10.299  18.227  0.00  0.00    +0.000 N 
ATOM     20  H   UNL     1      -0.096   9.592  17.528  0.00  0.00    +0.000 HD
BRANCH  19  21
ATOM     21  C   UNL     1      -0.695  11.532  18.210  0.00  0.00    +0.000 C 
BRANCH  21  22
ATOM     22  C   UNL     1      -2.188  11.302  18.315  0.00  0.00    +0.000 A 
ATOM     23  C   UNL     1      -2.835  10.250  17.649  0.00  0.00    +0.000 A 
ATOM     24  C   UNL     1      -4.232  10.161  17.631  0.00  0.00    +0.000 A 
ATOM     25  C   UNL     1      -4.991  11.057  18.370  0.00  0.00    +0.000 A 
ATOM     26 CL   UNL     1      -6.707  10.973  18.304  0.00  0.00    +0.000 Cl
ATOM     27  C   UNL     1      -4.365  12.027  19.149  0.00  0.00    +0.000 A 
ATOM     28  C   UNL     1      -2.973  12.171  19.094  0.00  0.00    +0.000 A 
ENDBRANCH  21  22
ENDBRANCH  19  21
ENDBRANCH   3  17
TORSDOF 3
ENDMDL
MODEL 3
REMARK VINA RESULT:      -8.1      3.798      8.771
REMARK  Name = 
REMARK  5 active torsions:
REMARK  status: ('A' for Active; 'I' for Inactive)
REMARK    1  A    between atoms: C_1  and  N_2
REMARK    2  A    between atoms: C_3  and  C_4
REMARK    3  A    between atoms: N_6  and  C_7
REMARK    4  A    between atoms: C_7  and  C_8
REMARK    5  A    between atoms: N_19  and  C_20
REMARK                            x       y       z     vdW  Elec       q    Type
REMARK                         _______ _______ _______ _____ _____    ______ ____
ROOT
ATOM      1  C   UNL     1       2.912   8.511  18.155  0.00  0.00    +0.000 C 
ATOM      2  N   UNL     1       2.613   7.369  18.994  0.00  0.00    +0.000 N 
ATOM      3  C   UNL     1       1.823   7.421  20.148  0.00  0.00    +0.000 A 
ATOM      4  C   UNL     1       1.779   6.118  20.630  0.00  0.00    +0.000 A 
ATOM      5  C   UNL     1       2.541   5.289  19.778  0.00  0.00    +0.000 A 
ATOM      6  C   UNL     1       2.785   3.856  19.895  0.00  0.00    +0.000 A 
ATOM      7  O   UNL     1       2.305   3.219  20.815  0.00  0.00    +0.000 OA
ATOM      8  N   UNL     1       3.590   3.294  18.888  0.00  0.00    +0.000 N 
ATOM      9  C   UNL     1       3.853   1.865  18.973  0.00  0.00    +0.000 C 
ATOM     10  C   UNL     1       4.144   4.069  17.804  0.00  0.00    +0.000 A 
ATOM     11  C   UNL     1       4.942   3.448  16.824  0.00  0.00    +0.000 A 
ATOM     12  C   UNL     1       5.485   4.179  15.770  0.00  0.00    +0.000 A 
ATOM     13  C   UNL     1       5.239   5.541  15.677  0.00  0.00    +0.000 A 
ATOM     14  C   UNL     1       4.449   6.178  16.638  0.00  0.00    +0.000 A 
ATOM     15  C   UNL     1       3.892   5.469  17.708  0.00  0.00    +0.000 A 
ATOM     16  C   UNL     1       3.049   6.067  18.760  0.00  0.00    +0.000 A 
ENDROOT
BRANCH   3  17
ATOM     17  C   UNL     1       1.205   8.616  20.728  0.00  0.00    +0.000 C 
ATOM     18  O   UNL     1       1.319   8.950  21.905  0.00  0.00    +0.000 OA
ATOM     19  N   UNL     1       0.472   9.374  19.840  0.00  0.00    +0.000 N 
ATOM     20  H   UNL     1       0.484   9.110  18.867  0.00  0.00    +0.000 HD
BRANCH  19  21
ATOM     21  C   UNL     1      -0.190  10.603  20.246  0.00  0.00    +0.000 C 
BRANCH  21  22
ATOM     22  C   UNL     1      -1.363  10.969  19.361  0.00  0.00    +0.000 A 
ATOM     23  C   UNL     1      -2.314  11.932  19.734  0.00  0.00    +0.000 A 
ATOM     24  C   UNL     1      -3.473  12.130  18.975  0.00  0.00    +0.000 A 
ATOM     25  C   UNL     1      -3.640  11.448  17.777  0.00  0.00    +0.000 A 
ATOM     26 CL   UNL     1      -5.088  11.659  16.875  0.00  0.00    +0.000 Cl
ATOM     27  C   UNL     1      -2.645  10.588  17.319  0.00  0.00    +0.000 A 
ATOM     28  C   UNL     1      -1.529  10.323  18.123  0.00  0.00    +0.000 A 
ENDBRANCH  21  22
ENDBRANCH  19  21
ENDBRANCH   3  17
TORSDOF 3
ENDMDL
MODEL 4
REMARK VINA RESULT:      -8.1      3.855      8.742
REMARK  Name = 
REMARK  5 active torsions:
REMARK  status: ('A' for Active; 'I' for Inactive)
REMARK    1  A    between atoms: C_1  and  N_2
REMARK    2  A    between atoms: C_3  and  C_4
REMARK    3  A    between atoms: N_6  and  C_7
REMARK    4  A    between atoms: C_7  and  C_8
REMARK    5  A    between atoms: N_19  and  C_20
REMARK                            x       y       z     vdW  Elec       q    Type
REMARK                         _______ _______ _______ _____ _____    ______ ____
ROOT
ATOM      1  C   UNL     1       0.682   7.792  20.981  0.00  0.00    +0.000 C 
ATOM      2  N   UNL     1       1.541   7.810  19.815  0.00  0.00    +0.000 N 
ATOM      3  C   UNL     1       1.684   8.905  18.955  0.00  0.00    +0.000 A 
ATOM      4  C   UNL     1       2.604   8.507  17.993  0.00  0.00    +0.000 A 
ATOM      5  C   UNL     1       3.008   7.183  18.266  0.00  0.00    +0.000 A 
ATOM      6  C   UNL     1       3.950   6.354  17.521  0.00  0.00    +0.000 A 
ATOM      7  O   UNL     1       4.503   6.786  16.526  0.00  0.00    +0.000 OA
ATOM      8  N   UNL     1       4.158   5.062  18.035  0.00  0.00    +0.000 N 
ATOM      9  C   UNL     1       5.093   4.208  17.318  0.00  0.00    +0.000 C 
ATOM     10  C   UNL     1       3.495   4.573  19.220  0.00  0.00    +0.000 A 
ATOM     11  C   UNL     1       3.747   3.269  19.687  0.00  0.00    +0.000 A 
ATOM     12  C   UNL     1       3.116   2.780  20.828  0.00  0.00    +0.000 A 
ATOM     13  C   UNL     1       2.226   3.585  21.523  0.00  0.00    +0.000 A 
ATOM     14  C   UNL     1       1.960   4.883  21.078  0.00  0.00    +0.000 A 
ATOM     15  C   UNL     1       2.578   5.400  19.934  0.00  0.00    +0.000 A 
ATOM     16  C   UNL     1       2.353   6.757  19.402  0.00  0.00    +0.000 A 
ENDROOT
BRANCH   3  17
ATOM     17  C   UNL     1       0.977  10.186  19.049  0.00  0.00    +0.000 C 
ATOM     18  O   UNL     1       0.089  10.542  18.280  0.00  0.00    +0.000 OA
ATOM     19  N   UNL     1       1.377  10.988  20.097  0.00  0.00    +0.000 N 
ATOM     20  H   UNL     1       2.043  10.613  20.755  0.00  0.00    +0.000 HD
BRANCH  19  21
ATOM     21  C   UNL     1       0.765  12.282  20.347  0.00  0.00    +0.000 C 
BRANCH  21  22
ATOM     22  C   UNL     1      -0.458  12.201  21.237  0.00  0.00    +0.000 A 
ATOM     23  C   UNL     1      -1.583  13.018  21.045  0.00  0.00    +0.000 A 
ATOM     24  C   UNL     1      -2.625  13.038  21.978  0.00  0.00    +0.000 A 
ATOM     25  C   UNL     1      -2.607  12.160  23.054  0.00  0.00    +0.000 A 
ATOM     26 CL   UNL     1      -3.867  12.224  24.223  0.00  0.00    +0.000 Cl
ATOM     27  C   UNL     1      -1.567  11.245  23.190  0.00  0.00    +0.000 A 
ATOM     28  C   UNL     1      -0.481  11.288  22.307  0.00  0.00    +0.000 A 
ENDBRANCH  21  22
ENDBRANCH  19  21
ENDBRANCH   3  17
TORSDOF 3
ENDMDL
MODEL 5
REMARK VINA RESULT:      -8.0      1.837      3.159
REMARK  Name = 
REMARK  5 active torsions:
REMARK  status: ('A' for Active; 'I' for Inactive)
REMARK    1  A    between atoms: C_1  and  N_2
REMARK    2  A    between atoms: C_3  and  C_4
REMARK    3  A    between atoms: N_6  and  C_7
REMARK    4  A    between atoms: C_7  and  C_8
REMARK    5  A    between atoms: N_19  and  C_20
REMARK                            x       y       z     vdW  Elec       q    Type
REMARK                         _______ _______ _______ _____ _____    ______ ____
ROOT
ATOM      1  C   UNL     1       2.348   8.737  17.966  0.00  0.00    +0.000 C 
ATOM      2  N   UNL     1       1.768   8.550  19.281  0.00  0.00    +0.000 N 
ATOM      3  C   UNL     1       1.833   7.358  20.011  0.00  0.00    +0.000 A 
ATOM      4  C   UNL     1       1.173   7.617  21.207  0.00  0.00    +0.000 A 
ATOM      5  C   UNL     1       0.710   8.950  21.195  0.00  0.00    +0.000 A 
ATOM      6  C   UNL     1      -0.040   9.655  22.229  0.00  0.00    +0.000 A 
ATOM      7  O   UNL     1      -0.343   9.094  23.266  0.00  0.00    +0.000 OA
ATOM      8  N   UNL     1      -0.369  10.991  21.936  0.00  0.00    +0.000 N 
ATOM      9  C   UNL     1      -1.116  11.725  22.946  0.00  0.00    +0.000 C 
ATOM     10  C   UNL     1       0.006  11.637  20.701  0.00  0.00    +0.000 A 
ATOM     11  C   UNL     1      -0.351  12.978  20.466  0.00  0.00    +0.000 A 
ATOM     12  C   UNL     1       0.002  13.619  19.281  0.00  0.00    +0.000 A 
ATOM     13  C   UNL     1       0.717  12.931  18.312  0.00  0.00    +0.000 A 
ATOM     14  C   UNL     1       1.082  11.599  18.523  0.00  0.00    +0.000 A 
ATOM     15  C   UNL     1       0.740  10.930  19.704  0.00  0.00    +0.000 A 
ATOM     16  C   UNL     1       1.088   9.528  20.002  0.00  0.00    +0.000 A 
ENDROOT
BRANCH   3  17
ATOM     17  C   UNL     1       2.446   6.101  19.577  0.00  0.00    +0.000 C 
ATOM     18  O   UNL     1       1.826   5.168  19.072  0.00  0.00    +0.000 OA
ATOM     19  N   UNL     1       3.810   6.031  19.765  0.00  0.00    +0.000 N 
ATOM     20  H   UNL     1       4.288   6.855  20.096  0.00  0.00    +0.000 HD
BRANCH  19  21
ATOM     21  C   UNL     1       4.579   4.862  19.369  0.00  0.00    +0.000 C 
BRANCH  21  22
ATOM     22  C   UNL     1       5.165   4.977  17.977  0.00  0.00    +0.000 A 
ATOM     23  C   UNL     1       4.568   4.374  16.858  0.00  0.00    +0.000 A 
ATOM     24  C   UNL     1       5.217   4.358  15.619  0.00  0.00    +0.000 A 
ATOM     25  C   UNL     1       6.415   5.041  15.456  0.00  0.00    +0.000 A 
ATOM     26 CL   UNL     1       7.231   4.976  13.944  0.00  0.00    +0.000 Cl
ATOM     27  C   UNL     1       6.957   5.761  16.517  0.00  0.00    +0.000 A 
ATOM     28  C   UNL     1       6.354   5.701  17.780  0.00  0.00    +0.000 A 
ENDBRANCH  21  22
ENDBRANCH  19  21
ENDBRANCH   3  17
TORSDOF 3
ENDMDL
MODEL 6
REMARK VINA RESULT:      -8.0      3.868      8.709
REMARK  Name = 
REMARK  5 active torsions:
REMARK  status: ('A' for Active; 'I' for Inactive)
REMARK    1  A    between atoms: C_1  and  N_2
REMARK    2  A    between atoms: C_3  and  C_4
REMARK    3  A    between atoms: N_6  and  C_7
REMARK    4  A    between atoms: C_7  and  C_8
REMARK    5  A    between atoms: N_19  and  C_20
REMARK                            x       y       z     vdW  Elec       q    Type
REMARK                         _______ _______ _______ _____ _____    ______ ____
ROOT
ATOM      1  C   UNL     1       0.867   8.028  20.865  0.00  0.00    +0.000 C 
ATOM      2  N   UNL     1       1.695   7.944  19.679  0.00  0.00    +0.000 N 
ATOM      3  C   UNL     1       1.890   8.993  18.774  0.00  0.00    +0.000 A 
ATOM      4  C   UNL     1       2.757   8.497  17.807  0.00  0.00    +0.000 A 
ATOM      5  C   UNL     1       3.078   7.159  18.124  0.00  0.00    +0.000 A 
ATOM      6  C   UNL     1       3.943   6.241  17.392  0.00  0.00    +0.000 A 
ATOM      7  O   UNL     1       4.498   6.596  16.368  0.00  0.00    +0.000 OA
ATOM      8  N   UNL     1       4.076   4.957  17.951  0.00  0.00    +0.000 N 
ATOM      9  C   UNL     1       4.932   4.015  17.247  0.00  0.00    +0.000 C 
ATOM     10  C   UNL     1       3.411   4.561  19.169  0.00  0.00    +0.000 A 
ATOM     11  C   UNL     1       3.586   3.261  19.681  0.00  0.00    +0.000 A 
ATOM     12  C   UNL     1       2.953   2.859  20.855  0.00  0.00    +0.000 A 
ATOM     13  C   UNL     1       2.137   3.749  21.537  0.00  0.00    +0.000 A 
ATOM     14  C   UNL     1       1.948   5.045  21.048  0.00  0.00    +0.000 A 
ATOM     15  C   UNL     1       2.571   5.475  19.870  0.00  0.00    +0.000 A 
ATOM     16  C   UNL     1       2.424   6.823  19.290  0.00  0.00    +0.000 A 
ENDROOT
BRANCH   3  17
ATOM     17  C   UNL     1       1.274  10.321  18.834  0.00  0.00    +0.000 C 
ATOM     18  O   UNL     1       1.906  11.372  18.910  0.00  0.00    +0.000 OA
ATOM     19  N   UNL     1      -0.104  10.320  18.785  0.00  0.00    +0.000 N 
ATOM     20  H   UNL     1      -0.573   9.441  18.629  0.00  0.00    +0.000 HD
BRANCH  19  21
ATOM     21  C   UNL     1      -0.872  11.553  18.812  0.00  0.00    +0.000 C 
BRANCH  21  22
ATOM     22  C   UNL     1      -1.480  11.848  20.168  0.00  0.00    +0.000 A 
ATOM     23  C   UNL     1      -0.871  11.445  21.367  0.00  0.00    +0.000 A 
ATOM     24  C   UNL     1      -1.534  11.583  22.592  0.00  0.00    +0.000 A 
ATOM     25  C   UNL     1      -2.762  12.228  22.644  0.00  0.00    +0.000 A 
ATOM     26 CL   UNL     1      -3.593  12.351  24.145  0.00  0.00    +0.000 Cl
ATOM     27  C   UNL     1      -3.322  12.758  21.485  0.00  0.00    +0.000 A 
ATOM     28  C   UNL     1      -2.702  12.538  20.249  0.00  0.00    +0.000 A 
ENDBRANCH  21  22
ENDBRANCH  19  21
ENDBRANCH   3  17
TORSDOF 3
ENDMDL
MODEL 7
REMARK VINA RESULT:      -7.9      1.731      2.976
REMARK  Name = 
REMARK  5 active torsions:
REMARK  status: ('A' for Active; 'I' for Inactive)
REMARK    1  A    between atoms: C_1  and  N_2
REMARK    2  A    between atoms: C_3  and  C_4
REMARK    3  A    between atoms: N_6  and  C_7
REMARK    4  A    between atoms: C_7  and  C_8
REMARK    5  A    between atoms: N_19  and  C_20
REMARK                            x       y       z     vdW  Elec       q    Type
REMARK                         _______ _______ _______ _____ _____    ______ ____
ROOT
ATOM      1  C   UNL     1       2.712   8.438  17.911  0.00  0.00    +0.000 C 
ATOM      2  N   UNL     1       2.026   8.296  19.179  0.00  0.00    +0.000 N 
ATOM      3  C   UNL     1       1.939   7.100  19.901  0.00  0.00    +0.000 A 
ATOM      4  C   UNL     1       1.220   7.409  21.050  0.00  0.00    +0.000 A 
ATOM      5  C   UNL     1       0.871   8.776  21.018  0.00  0.00    +0.000 A 
ATOM      6  C   UNL     1       0.111   9.537  22.003  0.00  0.00    +0.000 A 
ATOM      7  O   UNL     1      -0.311   9.000  23.011  0.00  0.00    +0.000 OA
ATOM      8  N   UNL     1      -0.083  10.897  21.700  0.00  0.00    +0.000 N 
ATOM      9  C   UNL     1      -0.836  11.687  22.662  0.00  0.00    +0.000 C 
ATOM     10  C   UNL     1       0.431  11.514  20.502  0.00  0.00    +0.000 A 
ATOM     11  C   UNL     1       0.205  12.881  20.255  0.00  0.00    +0.000 A 
ATOM     12  C   UNL     1       0.693  13.495  19.104  0.00  0.00    +0.000 A 
ATOM     13  C   UNL     1       1.415  12.753  18.181  0.00  0.00    +0.000 A 
ATOM     14  C   UNL     1       1.652  11.394  18.404  0.00  0.00    +0.000 A 
ATOM     15  C   UNL     1       1.173  10.751  19.552  0.00  0.00    +0.000 A 
ATOM     16  C   UNL     1       1.380   9.324  19.860  0.00  0.00    +0.000 A 
ENDROOT
BRANCH   3  17
ATOM     17  C   UNL     1       2.476   5.797  19.499  0.00  0.00    +0.000 C 
ATOM     18  O   UNL     1       1.839   4.951  18.876  0.00  0.00    +0.000 OA
ATOM     19  N   UNL     1       3.786   5.576  19.865  0.00  0.00    +0.000 N 
ATOM     20  H   UNL     1       4.295   6.335  20.292  0.00  0.00    +0.000 HD
BRANCH  19  21
ATOM     21  C   UNL     1       4.479   4.344  19.526  0.00  0.00    +0.000 C 
BRANCH  21  22
ATOM     22  C   UNL     1       5.235   4.427  18.216  0.00  0.00    +0.000 A 
ATOM     23  C   UNL     1       6.496   5.035  18.114  0.00  0.00    +0.000 A 
ATOM     24  C   UNL     1       7.095   5.244  16.867  0.00  0.00    +0.000 A 
ATOM     25  C   UNL     1       6.494   4.746  15.719  0.00  0.00    +0.000 A 
ATOM     26 CL   UNL     1       7.210   5.048  14.186  0.00  0.00    +0.000 Cl
ATOM     27  C   UNL     1       5.310   4.019  15.811  0.00  0.00    +0.000 A 
ATOM     28  C   UNL     1       4.666   3.890  17.047  0.00  0.00    +0.000 A 
ENDBRANCH  21  22
ENDBRANCH  19  21
ENDBRANCH   3  17
TORSDOF 3
ENDMDL
MODEL 8
REMARK VINA RESULT:      -7.9      4.001      8.871
REMARK  Name = 
REMARK  5 active torsions:
REMARK  status: ('A' for Active; 'I' for Inactive)
REMARK    1  A    between atoms: C_1  and  N_2
REMARK    2  A    between atoms: C_3  and  C_4
REMARK    3  A    between atoms: N_6  and  C_7
REMARK    4  A    between atoms: C_7  and  C_8
REMARK    5  A    between atoms: N_19  and  C_20
REMARK                            x       y       z     vdW  Elec       q    Type
REMARK                         _______ _______ _______ _____ _____    ______ ____
ROOT
ATOM      1  C   UNL     1       2.538   8.894  17.921  0.00  0.00    +0.000 C 
ATOM      2  N   UNL     1       2.289   7.907  18.951  0.00  0.00    +0.000 N 
ATOM      3  C   UNL     1       1.454   8.110  20.056  0.00  0.00    +0.000 A 
ATOM      4  C   UNL     1       1.485   6.919  20.772  0.00  0.00    +0.000 A 
ATOM      5  C   UNL     1       2.335   6.008  20.108  0.00  0.00    +0.000 A 
ATOM      6  C   UNL     1       2.675   4.643  20.496  0.00  0.00    +0.000 A 
ATOM      7  O   UNL     1       2.207   4.152  21.507  0.00  0.00    +0.000 OA
ATOM      8  N   UNL     1       3.556   3.969  19.632  0.00  0.00    +0.000 N 
ATOM      9  C   UNL     1       3.916   2.605  19.988  0.00  0.00    +0.000 C 
ATOM     10  C   UNL     1       4.094   4.571  18.436  0.00  0.00    +0.000 A 
ATOM     11  C   UNL     1       4.971   3.843  17.609  0.00  0.00    +0.000 A 
ATOM     12  C   UNL     1       5.500   4.407  16.450  0.00  0.00    +0.000 A 
ATOM     13  C   UNL     1       5.162   5.705  16.099  0.00  0.00    +0.000 A 
ATOM     14  C   UNL     1       4.293   6.446  16.904  0.00  0.00    +0.000 A 
ATOM     15  C   UNL     1       3.747   5.906  18.074  0.00  0.00    +0.000 A 
ATOM     16  C   UNL     1       2.825   6.622  18.975  0.00  0.00    +0.000 A 
ENDROOT
BRANCH   3  17
ATOM     17  C   UNL     1       0.731   9.340  20.388  0.00  0.00    +0.000 C 
ATOM     18  O   UNL     1       0.397   9.659  21.526  0.00  0.00    +0.000 OA
ATOM     19  N   UNL     1       0.449  10.151  19.309  0.00  0.00    +0.000 N 
ATOM     20  H   UNL     1       0.825   9.893  18.409  0.00  0.00    +0.000 HD
BRANCH  19  21
ATOM     21  C   UNL     1      -0.244  11.420  19.464  0.00  0.00    +0.000 C 
BRANCH  21  22
ATOM     22  C   UNL     1      -1.708  11.349  19.084  0.00  0.00    +0.000 A 
ATOM     23  C   UNL     1      -2.200  10.413  18.162  0.00  0.00    +0.000 A 
ATOM     24  C   UNL     1      -3.522  10.478  17.706  0.00  0.00    +0.000 A 
ATOM     25  C   UNL     1      -4.395  11.409  18.251  0.00  0.00    +0.000 A 
ATOM     26 CL   UNL     1      -6.004  11.517  17.652  0.00  0.00    +0.000 Cl
ATOM     27  C   UNL     1      -3.965  12.259  19.266  0.00  0.00    +0.000 A 
ATOM     28  C   UNL     1      -2.620  12.254  19.656  0.00  0.00    +0.000 A 
ENDBRANCH  21  22
ENDBRANCH  19  21
ENDBRANCH   3  17
TORSDOF 3
ENDMDL
MODEL 9
REMARK VINA RESULT:      -7.8      3.895      8.406
REMARK  Name = 
REMARK  5 active torsions:
REMARK  status: ('A' for Active; 'I' for Inactive)
REMARK    1  A    between atoms: C_1  and  N_2
REMARK    2  A    between atoms: C_3  and  C_4
REMARK    3  A    between atoms: N_6  and  C_7
REMARK    4  A    between atoms: C_7  and  C_8
REMARK    5  A    between atoms: N_19  and  C_20
REMARK                            x       y       z     vdW  Elec       q    Type
REMARK                         _______ _______ _______ _____ _____    ______ ____
ROOT
ATOM      1  C   UNL     1       1.183   6.021  20.498  0.00  0.00    +0.000 C 
ATOM      2  N   UNL     1       2.044   6.478  19.426  0.00  0.00    +0.000 N 
ATOM      3  C   UNL     1       2.198   7.818  19.053  0.00  0.00    +0.000 A 
ATOM      4  C   UNL     1       3.116   7.812  18.009  0.00  0.00    +0.000 A 
ATOM      5  C   UNL     1       3.509   6.481  17.753  0.00  0.00    +0.000 A 
ATOM      6  C   UNL     1       4.445   5.994  16.746  0.00  0.00    +0.000 A 
ATOM      7  O   UNL     1       5.003   6.770  15.992  0.00  0.00    +0.000 OA
ATOM      8  N   UNL     1       4.641   4.601  16.723  0.00  0.00    +0.000 N 
ATOM      9  C   UNL     1       5.570   4.081  15.732  0.00  0.00    +0.000 C 
ATOM     10  C   UNL     1       3.972   3.701  17.631  0.00  0.00    +0.000 A 
ATOM     11  C   UNL     1       4.212   2.316  17.561  0.00  0.00    +0.000 A 
ATOM     12  C   UNL     1       3.575   1.431  18.428  0.00  0.00    +0.000 A 
ATOM     13  C   UNL     1       2.690   1.916  19.380  0.00  0.00    +0.000 A 
ATOM     14  C   UNL     1       2.437   3.287  19.468  0.00  0.00    +0.000 A 
ATOM     15  C   UNL     1       3.061   4.199  18.609  0.00  0.00    +0.000 A 
ATOM     16  C   UNL     1       2.848   5.658  18.639  0.00  0.00    +0.000 A 
ENDROOT
BRANCH   3  17
ATOM     17  C   UNL     1       1.502   8.970  19.632  0.00  0.00    +0.000 C 
ATOM     18  O   UNL     1       1.305   9.124  20.835  0.00  0.00    +0.000 OA
ATOM     19  N   UNL     1       1.079   9.908  18.715  0.00  0.00    +0.000 N 
ATOM     20  H   UNL     1       1.346   9.784  17.750  0.00  0.00    +0.000 HD
BRANCH  19  21
ATOM     21  C   UNL     1       0.391  11.122  19.123  0.00  0.00    +0.000 C 
BRANCH  21  22
ATOM     22  C   UNL     1      -1.062  11.156  18.698  0.00  0.00    +0.000 A 
ATOM     23  C   UNL     1      -1.976  12.084  19.221  0.00  0.00    +0.000 A 
ATOM     24  C   UNL     1      -3.343  11.986  18.936  0.00  0.00    +0.000 A 
ATOM     25  C   UNL     1      -3.795  11.029  18.038  0.00  0.00    +0.000 A 
ATOM     26 CL   UNL     1      -5.480  10.882  17.730  0.00  0.00    +0.000 Cl
ATOM     27  C   UNL     1      -2.888  10.185  17.402  0.00  0.00    +0.000 A 
ATOM     28  C   UNL     1      -1.534  10.224  17.756  0.00  0.00    +0.000 A 
ENDBRANCH  21  22
ENDBRANCH  19  21
ENDBRANCH   3  17
TORSDOF 3
ENDMDL
