MODEL 1
REMARK VINA RESULT:      -7.9      0.000      0.000
REMARK  Name = 
REMARK  7 active torsions:
REMARK  status: ('A' for Active; 'I' for Inactive)
REMARK    1  A    between atoms: N_4  and  N_5
REMARK    2  A    between atoms: N_5  and  C_6
REMARK    3  A    between atoms: C_6  and  N_8
REMARK    4  A    between atoms: N_8  and  C_9
REMARK    5  A    between atoms: C_17  and  N_18
REMARK    6  A    between atoms: N_24  and  C_25
REMARK    7  A    between atoms: C_25  and  N_26
REMARK                            x       y       z     vdW  Elec       q    Type
REMARK                         _______ _______ _______ _____ _____    ______ ____
ROOT
ATOM      1  O   UNL     1       4.638   7.741  16.568  0.00  0.00    +0.000 OA
ATOM      2  C   UNL     1       4.406   6.789  17.279  0.00  0.00    +0.000 C 
ATOM      3  C   UNL     1       3.216   6.701  18.233  0.00  0.00    +0.000 C 
ATOM      4  N   UNL     1       2.313   7.591  18.486  0.00  0.00    +0.000 NA
ATOM      5  C   UNL     1       3.310   5.405  18.894  0.00  0.00    +0.000 A 
ATOM      6  C   UNL     1       2.506   4.826  19.862  0.00  0.00    +0.000 A 
ATOM      7  C   UNL     1       2.872   3.538  20.292  0.00  0.00    +0.000 A 
ATOM      8  C   UNL     1       4.006   2.880  19.763  0.00  0.00    +0.000 A 
ATOM      9  C   UNL     1       4.809   3.514  18.811  0.00  0.00    +0.000 A 
ATOM     10  C   UNL     1       4.445   4.778  18.386  0.00  0.00    +0.000 A 
ATOM     11  N   UNL     1       5.084   5.594  17.440  0.00  0.00    +0.000 N 
ENDROOT
BRANCH   7  12
ATOM     12  N   UNL     1       2.058   2.846  21.301  0.00  0.00    +0.000 N 
ATOM     13  O   UNL     1       0.833   2.817  21.130  0.00  0.00    +0.000 OA
ATOM     14  O   UNL     1       2.650   2.335  22.262  0.00  0.00    +0.000 OA
ENDBRANCH   7  12
BRANCH   4  15
ATOM     15  N   UNL     1       2.394   8.783  17.809  0.00  0.00    +0.000 N 
ATOM     16  H   UNL     1       2.889   8.813  16.917  0.00  0.00    +0.000 HD
BRANCH  15  17
ATOM     17  C   UNL     1       1.757   9.927  18.291  0.00  0.00    +0.000 C 
ATOM     18  S   UNL     1       2.320  11.487  17.996  0.00  0.00    +0.000 S 
BRANCH  17  19
ATOM     19  N   UNL     1       0.554   9.597  18.933  0.00  0.00    +0.000 N 
ATOM     20  H   UNL     1      -0.206   9.354  18.310  0.00  0.00    +0.000 HD
BRANCH  19  21
ATOM     21  C   UNL     1       0.203   9.897  20.271  0.00  0.00    +0.000 A 
ATOM     22  C   UNL     1      -0.357  11.133  20.615  0.00  0.00    +0.000 A 
ATOM     23  C   UNL     1      -0.754  11.386  21.931  0.00  0.00    +0.000 A 
ATOM     24  C   UNL     1      -0.645  10.387  22.901  0.00  0.00    +0.000 A 
ATOM     25  C   UNL     1      -0.113   9.150  22.568  0.00  0.00    +0.000 A 
ATOM     26  C   UNL     1       0.311   8.911  21.256  0.00  0.00    +0.000 A 
ENDBRANCH  19  21
ENDBRANCH  17  19
ENDBRANCH  15  17
ENDBRANCH   4  15
BRANCH  11  27
ATOM     27  C   UNL     1       6.324   5.273  16.783  0.00  0.00    +0.000 C 
BRANCH  27  28
ATOM     28  N   UNL     1       6.141   5.222  15.322  0.00  0.00    +0.000 NA
ATOM     29  C   UNL     1       7.441   5.263  14.636  0.00  0.00    +0.000 C 
ATOM     30  C   UNL     1       7.347   5.024  13.131  0.00  0.00    +0.000 C 
ATOM     31  C   UNL     1       6.591   3.743  12.818  0.00  0.00    +0.000 C 
ATOM     32  C   UNL     1       5.221   3.783  13.476  0.00  0.00    +0.000 C 
ATOM     33  C   UNL     1       5.328   4.045  14.979  0.00  0.00    +0.000 C 
ENDBRANCH  27  28
ENDBRANCH  11  27
TORSDOF 7
ENDMDL
MODEL 2
REMARK VINA RESULT:      -7.8      2.179      3.200
REMARK  Name = 
REMARK  7 active torsions:
REMARK  status: ('A' for Active; 'I' for Inactive)
REMARK    1  A    between atoms: N_4  and  N_5
REMARK    2  A    between atoms: N_5  and  C_6
REMARK    3  A    between atoms: C_6  and  N_8
REMARK    4  A    between atoms: N_8  and  C_9
REMARK    5  A    between atoms: C_17  and  N_18
REMARK    6  A    between atoms: N_24  and  C_25
REMARK    7  A    between atoms: C_25  and  N_26
REMARK                            x       y       z     vdW  Elec       q    Type
REMARK                         _______ _______ _______ _____ _____    ______ ____
ROOT
ATOM      1  O   UNL     1       3.160   8.403  17.174  0.00  0.00    +0.000 OA
ATOM      2  C   UNL     1       3.167   7.336  17.746  0.00  0.00    +0.000 C 
ATOM      3  C   UNL     1       2.446   7.066  19.066  0.00  0.00    +0.000 C 
ATOM      4  N   UNL     1       1.775   7.888  19.806  0.00  0.00    +0.000 NA
ATOM      5  C   UNL     1       2.710   5.672  19.405  0.00  0.00    +0.000 A 
ATOM      6  C   UNL     1       2.318   4.921  20.500  0.00  0.00    +0.000 A 
ATOM      7  C   UNL     1       2.740   3.581  20.524  0.00  0.00    +0.000 A 
ATOM      8  C   UNL     1       3.529   3.039  19.482  0.00  0.00    +0.000 A 
ATOM      9  C   UNL     1       3.930   3.842  18.411  0.00  0.00    +0.000 A 
ATOM     10  C   UNL     1       3.510   5.158  18.387  0.00  0.00    +0.000 A 
ATOM     11  N   UNL     1       3.775   6.138  17.418  0.00  0.00    +0.000 N 
ENDROOT
BRANCH   7  12
ATOM     12  N   UNL     1       2.348   2.710  21.641  0.00  0.00    +0.000 N 
ATOM     13  O   UNL     1       1.183   2.790  22.050  0.00  0.00    +0.000 OA
ATOM     14  O   UNL     1       3.209   1.950  22.105  0.00  0.00    +0.000 OA
ENDBRANCH   7  12
BRANCH   4  15
ATOM     15  N   UNL     1       1.660   9.183  19.365  0.00  0.00    +0.000 N 
ATOM     16  H   UNL     1       2.327   9.533  18.676  0.00  0.00    +0.000 HD
BRANCH  15  17
ATOM     17  C   UNL     1       0.611   9.997  19.795  0.00  0.00    +0.000 C 
ATOM     18  S   UNL     1       0.137  10.111  21.407  0.00  0.00    +0.000 S 
BRANCH  17  19
ATOM     19  N   UNL     1       0.110  10.768  18.737  0.00  0.00    +0.000 N 
ATOM     20  H   UNL     1       0.685  11.560  18.478  0.00  0.00    +0.000 HD
BRANCH  19  21
ATOM     21  C   UNL     1      -1.220  10.769  18.250  0.00  0.00    +0.000 A 
ATOM     22  C   UNL     1      -1.640   9.846  17.286  0.00  0.00    +0.000 A 
ATOM     23  C   UNL     1      -2.973   9.824  16.865  0.00  0.00    +0.000 A 
ATOM     24  C   UNL     1      -3.906  10.686  17.444  0.00  0.00    +0.000 A 
ATOM     25  C   UNL     1      -3.507  11.591  18.417  0.00  0.00    +0.000 A 
ATOM     26  C   UNL     1      -2.166  11.630  18.814  0.00  0.00    +0.000 A 
ENDBRANCH  19  21
ENDBRANCH  17  19
ENDBRANCH  15  17
ENDBRANCH   4  15
BRANCH  11  27
ATOM     27  C   UNL     1       4.632   5.952  16.276  0.00  0.00    +0.000 C 
BRANCH  27  28
ATOM     28  N   UNL     1       6.049   5.986  16.677  0.00  0.00    +0.000 NA
ATOM     29  C   UNL     1       6.311   7.138  17.552  0.00  0.00    +0.000 C 
ATOM     30  C   UNL     1       7.711   7.137  18.161  0.00  0.00    +0.000 C 
ATOM     31  C   UNL     1       8.010   5.824  18.864  0.00  0.00    +0.000 C 
ATOM     32  C   UNL     1       7.809   4.668  17.896  0.00  0.00    +0.000 C 
ATOM     33  C   UNL     1       6.412   4.693  17.277  0.00  0.00    +0.000 C 
ENDBRANCH  27  28
ENDBRANCH  11  27
TORSDOF 7
ENDMDL
MODEL 3
REMARK VINA RESULT:      -7.8      1.402      1.941
REMARK  Name = 
REMARK  7 active torsions:
REMARK  status: ('A' for Active; 'I' for Inactive)
REMARK    1  A    between atoms: N_4  and  N_5
REMARK    2  A    between atoms: N_5  and  C_6
REMARK    3  A    between atoms: C_6  and  N_8
REMARK    4  A    between atoms: N_8  and  C_9
REMARK    5  A    between atoms: C_17  and  N_18
REMARK    6  A    between atoms: N_24  and  C_25
REMARK    7  A    between atoms: C_25  and  N_26
REMARK                            x       y       z     vdW  Elec       q    Type
REMARK                         _______ _______ _______ _____ _____    ______ ____
ROOT
ATOM      1  O   UNL     1       4.617   7.651  16.406  0.00  0.00    +0.000 OA
ATOM      2  C   UNL     1       4.390   6.719  17.144  0.00  0.00    +0.000 C 
ATOM      3  C   UNL     1       3.208   6.658  18.110  0.00  0.00    +0.000 C 
ATOM      4  N   UNL     1       2.308   7.556  18.346  0.00  0.00    +0.000 NA
ATOM      5  C   UNL     1       3.306   5.380  18.806  0.00  0.00    +0.000 A 
ATOM      6  C   UNL     1       2.510   4.829  19.795  0.00  0.00    +0.000 A 
ATOM      7  C   UNL     1       2.878   3.553  20.257  0.00  0.00    +0.000 A 
ATOM      8  C   UNL     1       4.007   2.879  19.737  0.00  0.00    +0.000 A 
ATOM      9  C   UNL     1       4.802   3.486  18.761  0.00  0.00    +0.000 A 
ATOM     10  C   UNL     1       4.436   4.738  18.305  0.00  0.00    +0.000 A 
ATOM     11  N   UNL     1       5.068   5.528  17.332  0.00  0.00    +0.000 N 
ENDROOT
BRANCH   7  12
ATOM     12  N   UNL     1       2.072   2.889  21.291  0.00  0.00    +0.000 N 
ATOM     13  O   UNL     1       0.846   2.849  21.127  0.00  0.00    +0.000 OA
ATOM     14  O   UNL     1       2.670   2.412  22.265  0.00  0.00    +0.000 OA
ENDBRANCH   7  12
BRANCH   4  15
ATOM     15  N   UNL     1       2.385   8.729  17.637  0.00  0.00    +0.000 N 
ATOM     16  H   UNL     1       2.869   8.733  16.738  0.00  0.00    +0.000 HD
BRANCH  15  17
ATOM     17  C   UNL     1       1.757   9.888  18.096  0.00  0.00    +0.000 C 
ATOM     18  S   UNL     1       2.395  11.430  17.872  0.00  0.00    +0.000 S 
BRANCH  17  19
ATOM     19  N   UNL     1       0.501   9.592  18.645  0.00  0.00    +0.000 N 
ATOM     20  H   UNL     1       0.429   8.678  19.074  0.00  0.00    +0.000 HD
BRANCH  19  21
ATOM     21  C   UNL     1      -0.719  10.255  18.365  0.00  0.00    +0.000 A 
ATOM     22  C   UNL     1      -1.518   9.875  17.280  0.00  0.00    +0.000 A 
ATOM     23  C   UNL     1      -2.748  10.501  17.057  0.00  0.00    +0.000 A 
ATOM     24  C   UNL     1      -3.213  11.471  17.948  0.00  0.00    +0.000 A 
ATOM     25  C   UNL     1      -2.441  11.840  19.039  0.00  0.00    +0.000 A 
ATOM     26  C   UNL     1      -1.197  11.233  19.242  0.00  0.00    +0.000 A 
ENDBRANCH  19  21
ENDBRANCH  17  19
ENDBRANCH  15  17
ENDBRANCH   4  15
BRANCH  11  27
ATOM     27  C   UNL     1       6.302   5.188  16.673  0.00  0.00    +0.000 C 
BRANCH  27  28
ATOM     28  N   UNL     1       6.121   5.156  15.211  0.00  0.00    +0.000 NA
ATOM     29  C   UNL     1       7.422   5.195  14.529  0.00  0.00    +0.000 C 
ATOM     30  C   UNL     1       7.328   4.977  13.021  0.00  0.00    +0.000 C 
ATOM     31  C   UNL     1       6.563   3.706  12.690  0.00  0.00    +0.000 C 
ATOM     32  C   UNL     1       5.192   3.748  13.346  0.00  0.00    +0.000 C 
ATOM     33  C   UNL     1       5.299   3.990  14.852  0.00  0.00    +0.000 C 
ENDBRANCH  27  28
ENDBRANCH  11  27
TORSDOF 7
ENDMDL
MODEL 4
REMARK VINA RESULT:      -7.6      4.747      7.716
REMARK  Name = 
REMARK  7 active torsions:
REMARK  status: ('A' for Active; 'I' for Inactive)
REMARK    1  A    between atoms: N_4  and  N_5
REMARK    2  A    between atoms: N_5  and  C_6
REMARK    3  A    between atoms: C_6  and  N_8
REMARK    4  A    between atoms: N_8  and  C_9
REMARK    5  A    between atoms: C_17  and  N_18
REMARK    6  A    between atoms: N_24  and  C_25
REMARK    7  A    between atoms: C_25  and  N_26
REMARK                            x       y       z     vdW  Elec       q    Type
REMARK                         _______ _______ _______ _____ _____    ______ ____
ROOT
ATOM      1  O   UNL     1       6.663   5.929  19.719  0.00  0.00    +0.000 OA
ATOM      2  C   UNL     1       6.564   5.494  18.594  0.00  0.00    +0.000 C 
ATOM      3  C   UNL     1       7.262   6.098  17.377  0.00  0.00    +0.000 C 
ATOM      4  N   UNL     1       8.005   7.155  17.310  0.00  0.00    +0.000 NA
ATOM      5  C   UNL     1       6.879   5.281  16.231  0.00  0.00    +0.000 A 
ATOM      6  C   UNL     1       7.206   5.397  14.891  0.00  0.00    +0.000 A 
ATOM      7  C   UNL     1       6.668   4.427  14.028  0.00  0.00    +0.000 A 
ATOM      8  C   UNL     1       5.832   3.394  14.512  0.00  0.00    +0.000 A 
ATOM      9  C   UNL     1       5.500   3.333  15.868  0.00  0.00    +0.000 A 
ATOM     10  C   UNL     1       6.034   4.285  16.715  0.00  0.00    +0.000 A 
ATOM     11  N   UNL     1       5.853   4.416  18.101  0.00  0.00    +0.000 N 
ENDROOT
BRANCH   7  12
ATOM     12  N   UNL     1       6.986   4.467  12.594  0.00  0.00    +0.000 N 
ATOM     13  O   UNL     1       7.752   5.355  12.199  0.00  0.00    +0.000 OA
ATOM     14  O   UNL     1       6.466   3.609  11.867  0.00  0.00    +0.000 OA
ENDBRANCH   7  12
BRANCH   4  15
ATOM     15  N   UNL     1       8.232   7.841  18.477  0.00  0.00    +0.000 N 
ATOM     16  H   UNL     1       8.261   7.325  19.358  0.00  0.00    +0.000 HD
BRANCH  15  17
ATOM     17  C   UNL     1       8.488   9.213  18.465  0.00  0.00    +0.000 C 
ATOM     18  S   UNL     1       7.726  10.282  17.411  0.00  0.00    +0.000 S 
BRANCH  17  19
ATOM     19  N   UNL     1       9.355   9.569  19.508  0.00  0.00    +0.000 N 
ATOM     20  H   UNL     1       9.432   8.884  20.249  0.00  0.00    +0.000 HD
BRANCH  19  21
ATOM     21  C   UNL     1       9.836  10.869  19.798  0.00  0.00    +0.000 A 
ATOM     22  C   UNL     1       9.356  11.591  20.896  0.00  0.00    +0.000 A 
ATOM     23  C   UNL     1       9.888  12.847  21.201  0.00  0.00    +0.000 A 
ATOM     24  C   UNL     1      10.942  13.366  20.445  0.00  0.00    +0.000 A 
ATOM     25  C   UNL     1      11.442  12.649  19.368  0.00  0.00    +0.000 A 
ATOM     26  C   UNL     1      10.886  11.406  19.047  0.00  0.00    +0.000 A 
ENDBRANCH  19  21
ENDBRANCH  17  19
ENDBRANCH  15  17
ENDBRANCH   4  15
BRANCH  11  27
ATOM     27  C   UNL     1       4.980   3.591  18.896  0.00  0.00    +0.000 C 
BRANCH  27  28
ATOM     28  N   UNL     1       3.607   4.127  18.888  0.00  0.00    +0.000 NA
ATOM     29  C   UNL     1       2.669   3.135  18.342  0.00  0.00    +0.000 C 
ATOM     30  C   UNL     1       1.204   3.542  18.474  0.00  0.00    +0.000 C 
ATOM     31  C   UNL     1       0.856   3.908  19.908  0.00  0.00    +0.000 C 
ATOM     32  C   UNL     1       1.797   4.996  20.401  0.00  0.00    +0.000 C 
ATOM     33  C   UNL     1       3.261   4.585  20.242  0.00  0.00    +0.000 C 
ENDBRANCH  27  28
ENDBRANCH  11  27
TORSDOF 7
ENDMDL
MODEL 5
REMARK VINA RESULT:      -7.6      1.425      1.988
REMARK  Name = 
REMARK  7 active torsions:
REMARK  status: ('A' for Active; 'I' for Inactive)
REMARK    1  A    between atoms: N_4  and  N_5
REMARK    2  A    between atoms: N_5  and  C_6
REMARK    3  A    between atoms: C_6  and  N_8
REMARK    4  A    between atoms: N_8  and  C_9
REMARK    5  A    between atoms: C_17  and  N_18
REMARK    6  A    between atoms: N_24  and  C_25
REMARK    7  A    between atoms: C_25  and  N_26
REMARK                            x       y       z     vdW  Elec       q    Type
REMARK                         _______ _______ _______ _____ _____    ______ ____
ROOT
ATOM      1  O   UNL     1       4.462   7.926  16.448  0.00  0.00    +0.000 OA
ATOM      2  C   UNL     1       4.292   6.973  17.174  0.00  0.00    +0.000 C 
ATOM      3  C   UNL     1       3.101   6.817  18.118  0.00  0.00    +0.000 C 
ATOM      4  N   UNL     1       2.134   7.644  18.346  0.00  0.00    +0.000 NA
ATOM      5  C   UNL     1       3.281   5.543  18.805  0.00  0.00    +0.000 A 
ATOM      6  C   UNL     1       2.510   4.925  19.776  0.00  0.00    +0.000 A 
ATOM      7  C   UNL     1       2.963   3.675  20.233  0.00  0.00    +0.000 A 
ATOM      8  C   UNL     1       4.147   3.091  19.727  0.00  0.00    +0.000 A 
ATOM      9  C   UNL     1       4.913   3.764  18.771  0.00  0.00    +0.000 A 
ATOM     10  C   UNL     1       4.463   4.990  18.319  0.00  0.00    +0.000 A 
ATOM     11  N   UNL     1       5.052   5.833  17.364  0.00  0.00    +0.000 N 
ENDROOT
BRANCH   7  12
ATOM     12  N   UNL     1       2.190   2.944  21.247  0.00  0.00    +0.000 N 
ATOM     13  O   UNL     1       2.820   2.293  22.090  0.00  0.00    +0.000 OA
ATOM     14  O   UNL     1       0.956   3.025  21.196  0.00  0.00    +0.000 OA
ENDBRANCH   7  12
BRANCH   4  15
ATOM     15  N   UNL     1       2.137   8.827  17.648  0.00  0.00    +0.000 N 
ATOM     16  H   UNL     1       2.459   8.829  16.679  0.00  0.00    +0.000 HD
BRANCH  15  17
ATOM     17  C   UNL     1       1.646  10.000  18.222  0.00  0.00    +0.000 C 
ATOM     18  S   UNL     1       2.361  11.507  17.988  0.00  0.00    +0.000 S 
BRANCH  17  19
ATOM     19  N   UNL     1       0.442   9.760  18.899  0.00  0.00    +0.000 N 
ATOM     20  H   UNL     1       0.451   8.951  19.508  0.00  0.00    +0.000 HD
BRANCH  19  21
ATOM     21  C   UNL     1      -0.830  10.289  18.571  0.00  0.00    +0.000 A 
ATOM     22  C   UNL     1      -1.425  11.286  19.353  0.00  0.00    +0.000 A 
ATOM     23  C   UNL     1      -2.652  11.838  18.977  0.00  0.00    +0.000 A 
ATOM     24  C   UNL     1      -3.267  11.438  17.789  0.00  0.00    +0.000 A 
ATOM     25  C   UNL     1      -2.677  10.467  16.993  0.00  0.00    +0.000 A 
ATOM     26  C   UNL     1      -1.463   9.895  17.388  0.00  0.00    +0.000 A 
ENDBRANCH  19  21
ENDBRANCH  17  19
ENDBRANCH  15  17
ENDBRANCH   4  15
BRANCH  11  27
ATOM     27  C   UNL     1       6.319   5.591  16.725  0.00  0.00    +0.000 C 
BRANCH  27  28
ATOM     28  N   UNL     1       6.144   5.411  15.273  0.00  0.00    +0.000 NA
ATOM     29  C   UNL     1       7.449   5.337  14.600  0.00  0.00    +0.000 C 
ATOM     30  C   UNL     1       7.355   4.963  13.123  0.00  0.00    +0.000 C 
ATOM     31  C   UNL     1       6.551   3.690  12.922  0.00  0.00    +0.000 C 
ATOM     32  C   UNL     1       5.179   3.845  13.558  0.00  0.00    +0.000 C 
ATOM     33  C   UNL     1       5.286   4.240  15.031  0.00  0.00    +0.000 C 
ENDBRANCH  27  28
ENDBRANCH  11  27
TORSDOF 7
ENDMDL
MODEL 6
REMARK VINA RESULT:      -7.4      2.326      6.914
REMARK  Name = 
REMARK  7 active torsions:
REMARK  status: ('A' for Active; 'I' for Inactive)
REMARK    1  A    between atoms: N_4  and  N_5
REMARK    2  A    between atoms: N_5  and  C_6
REMARK    3  A    between atoms: C_6  and  N_8
REMARK    4  A    between atoms: N_8  and  C_9
REMARK    5  A    between atoms: C_17  and  N_18
REMARK    6  A    between atoms: N_24  and  C_25
REMARK    7  A    between atoms: C_25  and  N_26
REMARK                            x       y       z     vdW  Elec       q    Type
REMARK                         _______ _______ _______ _____ _____    ______ ____
ROOT
ATOM      1  O   UNL     1       4.109   7.137  16.153  0.00  0.00    +0.000 OA
ATOM      2  C   UNL     1       3.700   6.634  17.175  0.00  0.00    +0.000 C 
ATOM      3  C   UNL     1       3.780   5.141  17.488  0.00  0.00    +0.000 C 
ATOM      4  N   UNL     1       4.224   4.181  16.745  0.00  0.00    +0.000 NA
ATOM      5  C   UNL     1       3.180   4.960  18.805  0.00  0.00    +0.000 A 
ATOM      6  C   UNL     1       2.974   3.813  19.552  0.00  0.00    +0.000 A 
ATOM      7  C   UNL     1       2.365   3.984  20.807  0.00  0.00    +0.000 A 
ATOM      8  C   UNL     1       1.980   5.263  21.271  0.00  0.00    +0.000 A 
ATOM      9  C   UNL     1       2.177   6.391  20.470  0.00  0.00    +0.000 A 
ATOM     10  C   UNL     1       2.780   6.222  19.238  0.00  0.00    +0.000 A 
ATOM     11  N   UNL     1       3.087   7.199  18.279  0.00  0.00    +0.000 N 
ENDROOT
BRANCH   7  12
ATOM     12  N   UNL     1       2.131   2.818  21.671  0.00  0.00    +0.000 N 
ATOM     13  O   UNL     1       0.971   2.603  22.044  0.00  0.00    +0.000 OA
ATOM     14  O   UNL     1       3.111   2.124  21.975  0.00  0.00    +0.000 OA
ENDBRANCH   7  12
BRANCH   4  15
ATOM     15  N   UNL     1       4.716   4.515  15.507  0.00  0.00    +0.000 N 
ATOM     16  H   UNL     1       4.155   5.113  14.897  0.00  0.00    +0.000 HD
BRANCH  15  17
ATOM     17  C   UNL     1       5.988   4.107  15.105  0.00  0.00    +0.000 C 
ATOM     18  S   UNL     1       6.426   3.919  13.490  0.00  0.00    +0.000 S 
BRANCH  17  19
ATOM     19  N   UNL     1       6.849   3.997  16.206  0.00  0.00    +0.000 N 
ATOM     20  H   UNL     1       6.935   3.063  16.588  0.00  0.00    +0.000 HD
BRANCH  19  21
ATOM     21  C   UNL     1       7.313   5.057  17.022  0.00  0.00    +0.000 A 
ATOM     22  C   UNL     1       7.312   6.380  16.564  0.00  0.00    +0.000 A 
ATOM     23  C   UNL     1       7.715   7.418  17.408  0.00  0.00    +0.000 A 
ATOM     24  C   UNL     1       8.069   7.150  18.732  0.00  0.00    +0.000 A 
ATOM     25  C   UNL     1       8.053   5.846  19.205  0.00  0.00    +0.000 A 
ATOM     26  C   UNL     1       7.677   4.805  18.349  0.00  0.00    +0.000 A 
ENDBRANCH  19  21
ENDBRANCH  17  19
ENDBRANCH  15  17
ENDBRANCH   4  15
BRANCH  11  27
ATOM     27  C   UNL     1       2.740   8.592  18.386  0.00  0.00    +0.000 C 
BRANCH  27  28
ATOM     28  N   UNL     1       1.309   8.750  18.698  0.00  0.00    +0.000 NA
ATOM     29  C   UNL     1       1.134   9.413  19.999  0.00  0.00    +0.000 C 
ATOM     30  C   UNL     1      -0.315   9.782  20.307  0.00  0.00    +0.000 C 
ATOM     31  C   UNL     1      -0.934  10.592  19.181  0.00  0.00    +0.000 C 
ATOM     32  C   UNL     1      -0.806   9.830  17.872  0.00  0.00    +0.000 C 
ATOM     33  C   UNL     1       0.646   9.447  17.585  0.00  0.00    +0.000 C 
ENDBRANCH  27  28
ENDBRANCH  11  27
TORSDOF 7
ENDMDL
MODEL 7
REMARK VINA RESULT:      -7.3      3.958      9.763
REMARK  Name = 
REMARK  7 active torsions:
REMARK  status: ('A' for Active; 'I' for Inactive)
REMARK    1  A    between atoms: N_4  and  N_5
REMARK    2  A    between atoms: N_5  and  C_6
REMARK    3  A    between atoms: C_6  and  N_8
REMARK    4  A    between atoms: N_8  and  C_9
REMARK    5  A    between atoms: C_17  and  N_18
REMARK    6  A    between atoms: N_24  and  C_25
REMARK    7  A    between atoms: C_25  and  N_26
REMARK                            x       y       z     vdW  Elec       q    Type
REMARK                         _______ _______ _______ _____ _____    ______ ____
ROOT
ATOM      1  O   UNL     1       0.394   9.081  19.978  0.00  0.00    +0.000 OA
ATOM      2  C   UNL     1       0.818  10.202  19.805  0.00  0.00    +0.000 C 
ATOM      3  C   UNL     1       1.722  10.606  18.642  0.00  0.00    +0.000 C 
ATOM      4  N   UNL     1       2.218   9.864  17.706  0.00  0.00    +0.000 NA
ATOM      5  C   UNL     1       2.000  12.028  18.807  0.00  0.00    +0.000 A 
ATOM      6  C   UNL     1       2.778  12.888  18.052  0.00  0.00    +0.000 A 
ATOM      7  C   UNL     1       2.834  14.225  18.483  0.00  0.00    +0.000 A 
ATOM      8  C   UNL     1       2.134  14.657  19.634  0.00  0.00    +0.000 A 
ATOM      9  C   UNL     1       1.386  13.748  20.386  0.00  0.00    +0.000 A 
ATOM     10  C   UNL     1       1.328  12.435  19.957  0.00  0.00    +0.000 A 
ATOM     11  N   UNL     1       0.638  11.361  20.538  0.00  0.00    +0.000 N 
ENDROOT
BRANCH   7  12
ATOM     12  N   UNL     1       3.622  15.206  17.724  0.00  0.00    +0.000 N 
ATOM     13  O   UNL     1       3.051  16.242  17.359  0.00  0.00    +0.000 OA
ATOM     14  O   UNL     1       4.808  14.936  17.495  0.00  0.00    +0.000 OA
ENDBRANCH   7  12
BRANCH   4  15
ATOM     15  N   UNL     1       1.895   8.530  17.720  0.00  0.00    +0.000 N 
ATOM     16  H   UNL     1       0.952   8.246  17.448  0.00  0.00    +0.000 HD
BRANCH  15  17
ATOM     17  C   UNL     1       2.851   7.563  18.033  0.00  0.00    +0.000 C 
ATOM     18  S   UNL     1       4.274   7.358  17.156  0.00  0.00    +0.000 S 
BRANCH  17  19
ATOM     19  N   UNL     1       2.514   6.892  19.218  0.00  0.00    +0.000 N 
ATOM     20  H   UNL     1       2.863   7.324  20.064  0.00  0.00    +0.000 HD
BRANCH  19  21
ATOM     21  C   UNL     1       2.065   5.554  19.331  0.00  0.00    +0.000 A 
ATOM     22  C   UNL     1       1.636   5.034  20.558  0.00  0.00    +0.000 A 
ATOM     23  C   UNL     1       1.139   3.730  20.636  0.00  0.00    +0.000 A 
ATOM     24  C   UNL     1       1.015   2.956  19.480  0.00  0.00    +0.000 A 
ATOM     25  C   UNL     1       1.415   3.468  18.254  0.00  0.00    +0.000 A 
ATOM     26  C   UNL     1       1.941   4.763  18.185  0.00  0.00    +0.000 A 
ENDBRANCH  19  21
ENDBRANCH  17  19
ENDBRANCH  15  17
ENDBRANCH   4  15
BRANCH  11  27
ATOM     27  C   UNL     1      -0.095  11.428  21.776  0.00  0.00    +0.000 C 
BRANCH  27  28
ATOM     28  N   UNL     1      -1.211  12.384  21.670  0.00  0.00    +0.000 NA
ATOM     29  C   UNL     1      -2.109  12.009  20.568  0.00  0.00    +0.000 C 
ATOM     30  C   UNL     1      -3.389  12.840  20.513  0.00  0.00    +0.000 C 
ATOM     31  C   UNL     1      -4.113  12.834  21.849  0.00  0.00    +0.000 C 
ATOM     32  C   UNL     1      -3.171  13.311  22.943  0.00  0.00    +0.000 C 
ATOM     33  C   UNL     1      -1.885  12.485  22.974  0.00  0.00    +0.000 C 
ENDBRANCH  27  28
ENDBRANCH  11  27
TORSDOF 7
ENDMDL
MODEL 8
REMARK VINA RESULT:      -7.3      2.394      3.306
REMARK  Name = 
REMARK  7 active torsions:
REMARK  status: ('A' for Active; 'I' for Inactive)
REMARK    1  A    between atoms: N_4  and  N_5
REMARK    2  A    between atoms: N_5  and  C_6
REMARK    3  A    between atoms: C_6  and  N_8
REMARK    4  A    between atoms: N_8  and  C_9
REMARK    5  A    between atoms: C_17  and  N_18
REMARK    6  A    between atoms: N_24  and  C_25
REMARK    7  A    between atoms: C_25  and  N_26
REMARK                            x       y       z     vdW  Elec       q    Type
REMARK                         _______ _______ _______ _____ _____    ______ ____
ROOT
ATOM      1  O   UNL     1       2.641   9.593  17.561  0.00  0.00    +0.000 OA
ATOM      2  C   UNL     1       2.653   8.479  18.034  0.00  0.00    +0.000 C 
ATOM      3  C   UNL     1       1.861   8.065  19.273  0.00  0.00    +0.000 C 
ATOM      4  N   UNL     1       1.114   8.792  20.038  0.00  0.00    +0.000 NA
ATOM      5  C   UNL     1       2.155   6.654  19.502  0.00  0.00    +0.000 A 
ATOM      6  C   UNL     1       1.724   5.793  20.496  0.00  0.00    +0.000 A 
ATOM      7  C   UNL     1       2.194   4.470  20.426  0.00  0.00    +0.000 A 
ATOM      8  C   UNL     1       3.067   4.052  19.394  0.00  0.00    +0.000 A 
ATOM      9  C   UNL     1       3.504   4.964  18.429  0.00  0.00    +0.000 A 
ATOM     10  C   UNL     1       3.036   6.262  18.497  0.00  0.00    +0.000 A 
ATOM     11  N   UNL     1       3.325   7.336  17.640  0.00  0.00    +0.000 N 
ENDROOT
BRANCH   7  12
ATOM     12  N   UNL     1       1.765   3.487  21.431  0.00  0.00    +0.000 N 
ATOM     13  O   UNL     1       0.746   2.827  21.191  0.00  0.00    +0.000 OA
ATOM     14  O   UNL     1       2.450   3.381  22.457  0.00  0.00    +0.000 OA
ENDBRANCH   7  12
BRANCH   4  15
ATOM     15  N   UNL     1       0.978  10.119  19.710  0.00  0.00    +0.000 N 
ATOM     16  H   UNL     1       1.789  10.626  19.353  0.00  0.00    +0.000 HD
BRANCH  15  17
ATOM     17  C   UNL     1      -0.261  10.756  19.796  0.00  0.00    +0.000 C 
ATOM     18  S   UNL     1      -0.445  12.337  20.344  0.00  0.00    +0.000 S 
BRANCH  17  19
ATOM     19  N   UNL     1      -1.276   9.950  19.261  0.00  0.00    +0.000 N 
ATOM     20  H   UNL     1      -1.211   8.969  19.502  0.00  0.00    +0.000 HD
BRANCH  19  21
ATOM     21  C   UNL     1      -2.135  10.279  18.184  0.00  0.00    +0.000 A 
ATOM     22  C   UNL     1      -3.206  11.163  18.355  0.00  0.00    +0.000 A 
ATOM     23  C   UNL     1      -4.004  11.523  17.265  0.00  0.00    +0.000 A 
ATOM     24  C   UNL     1      -3.704  11.045  15.988  0.00  0.00    +0.000 A 
ATOM     25  C   UNL     1      -2.631  10.185  15.801  0.00  0.00    +0.000 A 
ATOM     26  C   UNL     1      -1.853   9.804  16.899  0.00  0.00    +0.000 A 
ENDBRANCH  19  21
ENDBRANCH  17  19
ENDBRANCH  15  17
ENDBRANCH   4  15
BRANCH  11  27
ATOM     27  C   UNL     1       4.259   7.284  16.545  0.00  0.00    +0.000 C 
BRANCH  27  28
ATOM     28  N   UNL     1       5.070   6.056  16.610  0.00  0.00    +0.000 NA
ATOM     29  C   UNL     1       5.193   5.448  15.277  0.00  0.00    +0.000 C 
ATOM     30  C   UNL     1       6.173   4.278  15.227  0.00  0.00    +0.000 C 
ATOM     31  C   UNL     1       7.530   4.666  15.790  0.00  0.00    +0.000 C 
ATOM     32  C   UNL     1       7.363   5.209  17.200  0.00  0.00    +0.000 C 
ATOM     33  C   UNL     1       6.363   6.365  17.240  0.00  0.00    +0.000 C 
ENDBRANCH  27  28
ENDBRANCH  11  27
TORSDOF 7
ENDMDL
MODEL 9
REMARK VINA RESULT:      -7.3      1.492      2.409
REMARK  Name = 
REMARK  7 active torsions:
REMARK  status: ('A' for Active; 'I' for Inactive)
REMARK    1  A    between atoms: N_4  and  N_5
REMARK    2  A    between atoms: N_5  and  C_6
REMARK    3  A    between atoms: C_6  and  N_8
REMARK    4  A    between atoms: N_8  and  C_9
REMARK    5  A    between atoms: C_17  and  N_18
REMARK    6  A    between atoms: N_24  and  C_25
REMARK    7  A    between atoms: C_25  and  N_26
REMARK                            x       y       z     vdW  Elec       q    Type
REMARK                         _______ _______ _______ _____ _____    ______ ____
ROOT
ATOM      1  O   UNL     1       3.722   8.151  16.413  0.00  0.00    +0.000 OA
ATOM      2  C   UNL     1       3.562   7.174  17.108  0.00  0.00    +0.000 C 
ATOM      3  C   UNL     1       2.624   7.123  18.313  0.00  0.00    +0.000 C 
ATOM      4  N   UNL     1       1.906   8.070  18.821  0.00  0.00    +0.000 NA
ATOM      5  C   UNL     1       2.730   5.777  18.864  0.00  0.00    +0.000 A 
ATOM      6  C   UNL     1       2.117   5.202  19.965  0.00  0.00    +0.000 A 
ATOM      7  C   UNL     1       2.432   3.858  20.227  0.00  0.00    +0.000 A 
ATOM      8  C   UNL     1       3.334   3.140  19.408  0.00  0.00    +0.000 A 
ATOM      9  C   UNL     1       3.956   3.768  18.326  0.00  0.00    +0.000 A 
ATOM     10  C   UNL     1       3.641   5.088  18.067  0.00  0.00    +0.000 A 
ATOM     11  N   UNL     1       4.126   5.913  17.040  0.00  0.00    +0.000 N 
ENDROOT
BRANCH   7  12
ATOM     12  N   UNL     1       1.807   3.168  21.364  0.00  0.00    +0.000 N 
ATOM     13  O   UNL     1       2.464   3.069  22.408  0.00  0.00    +0.000 OA
ATOM     14  O   UNL     1       0.660   2.727  21.207  0.00  0.00    +0.000 OA
ENDBRANCH   7  12
BRANCH   4  15
ATOM     15  N   UNL     1       1.955   9.298  18.208  0.00  0.00    +0.000 N 
ATOM     16  H   UNL     1       2.465   9.392  17.328  0.00  0.00    +0.000 HD
BRANCH  15  17
ATOM     17  C   UNL     1       1.267  10.392  18.735  0.00  0.00    +0.000 C 
ATOM     18  S   UNL     1       1.810  11.979  18.585  0.00  0.00    +0.000 S 
BRANCH  17  19
ATOM     19  N   UNL     1       0.039   9.993  19.283  0.00  0.00    +0.000 N 
ATOM     20  H   UNL     1      -0.665   9.733  18.603  0.00  0.00    +0.000 HD
BRANCH  19  21
ATOM     21  C   UNL     1      -0.417  10.243  20.599  0.00  0.00    +0.000 A 
ATOM     22  C   UNL     1      -0.130   9.360  21.647  0.00  0.00    +0.000 A 
ATOM     23  C   UNL     1      -0.537   9.657  22.950  0.00  0.00    +0.000 A 
ATOM     24  C   UNL     1      -1.185  10.863  23.227  0.00  0.00    +0.000 A 
ATOM     25  C   UNL     1      -1.456  11.757  22.201  0.00  0.00    +0.000 A 
ATOM     26  C   UNL     1      -1.073  11.443  20.892  0.00  0.00    +0.000 A 
ENDBRANCH  19  21
ENDBRANCH  17  19
ENDBRANCH  15  17
ENDBRANCH   4  15
BRANCH  11  27
ATOM     27  C   UNL     1       5.137   5.530  16.088  0.00  0.00    +0.000 C 
BRANCH  27  28
ATOM     28  N   UNL     1       6.483   5.707  16.659  0.00  0.00    +0.000 NA
ATOM     29  C   UNL     1       6.579   6.990  17.369  0.00  0.00    +0.000 C 
ATOM     30  C   UNL     1       7.881   7.163  18.147  0.00  0.00    +0.000 C 
ATOM     31  C   UNL     1       8.130   5.991  19.080  0.00  0.00    +0.000 C 
ATOM     32  C   UNL     1       8.107   4.692  18.289  0.00  0.00    +0.000 C 
ATOM     33  C   UNL     1       6.808   4.542  17.497  0.00  0.00    +0.000 C 
ENDBRANCH  27  28
ENDBRANCH  11  27
TORSDOF 7
ENDMDL
