MODEL 1
REMARK VINA RESULT:      -6.8      0.000      0.000
REMARK  Name = 
REMARK  11 active torsions:
REMARK  status: ('A' for Active; 'I' for Inactive)
REMARK    1  A    between atoms: C_1  and  S_2
REMARK    2  A    between atoms: S_2  and  C_3
REMARK    3  A    between atoms: C_7  and  C_8
REMARK    4  A    between atoms: C_8  and  N_9
REMARK    5  A    between atoms: N_9  and  C_10
REMARK    6  A    between atoms: C_11  and  C_13
REMARK    7  A    between atoms: N_17  and  C_18
REMARK    8  A    between atoms: C_18  and  C_19
REMARK    9  A    between atoms: C_19  and  N_20
REMARK   10  A    between atoms: N_20  and  C_21
REMARK   11  A    between atoms: N_20  and  C_22
REMARK                            x       y       z     vdW  Elec       q    Type
REMARK                         _______ _______ _______ _____ _____    ______ ____
ROOT
ATOM      1  N   UNL     1       6.216   4.806  17.200  0.00  0.00    +0.000 N 
ATOM      2  C   UNL     1       7.575   4.624  17.700  0.00  0.00    +0.000 C 
ATOM      3  C   UNL     1       5.440   5.805  17.780  0.00  0.00    +0.000 C 
ATOM      4  O   UNL     1       5.928   6.589  18.597  0.00  0.00    +0.000 OA
ENDROOT
BRANCH   3   5
ATOM      5  C   UNL     1       3.959   5.910  17.398  0.00  0.00    +0.000 C 
ATOM      6  C   UNL     1       3.362   7.283  17.720  0.00  0.00    +0.000 C 
ATOM      7  C   UNL     1       2.618   7.079  19.018  0.00  0.00    +0.000 C 
ATOM      8  O   UNL     1       2.133   7.970  19.700  0.00  0.00    +0.000 OA
ATOM      9  N   UNL     1       2.547   5.722  19.264  0.00  0.00    +0.000 N 
ATOM     10  C   UNL     1       3.115   4.928  18.206  0.00  0.00    +0.000 C 
BRANCH   9  11
ATOM     11  C   UNL     1       2.006   5.133  20.482  0.00  0.00    +0.000 C 
BRANCH  11  12
ATOM     12  C   UNL     1       0.895   4.092  20.251  0.00  0.00    +0.000 C 
BRANCH  12  13
ATOM     13  N   UNL     1       1.309   2.711  20.594  0.00  0.00    +0.000 NA
ATOM     14  C   UNL     1       1.666   1.935  19.403  0.00  0.00    +0.000 C 
ATOM     15  C   UNL     1       2.443   2.732  21.522  0.00  0.00    +0.000 C 
ENDBRANCH  12  13
ENDBRANCH  11  12
ENDBRANCH   9  11
ENDBRANCH   3   5
BRANCH   1  16
ATOM     16  C   UNL     1       5.774   3.893  16.150  0.00  0.00    +0.000 C 
BRANCH  16  21
ATOM     17  C   UNL     1       6.078   3.511  12.379  0.00  0.00    +0.000 A 
ATOM     18  C   UNL     1       7.125   4.377  12.065  0.00  0.00    +0.000 A 
ATOM     19  C   UNL     1       7.722   5.145  13.073  0.00  0.00    +0.000 A 
ATOM     20  C   UNL     1       7.307   5.026  14.407  0.00  0.00    +0.000 A 
ATOM     21  C   UNL     1       6.275   4.147  14.745  0.00  0.00    +0.000 A 
ATOM     22  C   UNL     1       5.647   3.428  13.709  0.00  0.00    +0.000 A 
BRANCH  17  24
ATOM     23  C   UNL     1       3.730   3.071  10.919  0.00  0.00    +0.000 C 
ATOM     24  S   UNL     1       5.363   2.356  11.220  0.00  0.00    +0.000 S 
ENDBRANCH  17  24
ENDBRANCH  16  21
ENDBRANCH   1  16
TORSDOF 7
ENDMDL
MODEL 2
REMARK VINA RESULT:      -6.7      4.494      7.963
REMARK  Name = 
REMARK  11 active torsions:
REMARK  status: ('A' for Active; 'I' for Inactive)
REMARK    1  A    between atoms: C_1  and  S_2
REMARK    2  A    between atoms: S_2  and  C_3
REMARK    3  A    between atoms: C_7  and  C_8
REMARK    4  A    between atoms: C_8  and  N_9
REMARK    5  A    between atoms: N_9  and  C_10
REMARK    6  A    between atoms: C_11  and  C_13
REMARK    7  A    between atoms: N_17  and  C_18
REMARK    8  A    between atoms: C_18  and  C_19
REMARK    9  A    between atoms: C_19  and  N_20
REMARK   10  A    between atoms: N_20  and  C_21
REMARK   11  A    between atoms: N_20  and  C_22
REMARK                            x       y       z     vdW  Elec       q    Type
REMARK                         _______ _______ _______ _____ _____    ______ ____
ROOT
ATOM      1  N   UNL     1       1.679   8.230  19.547  0.00  0.00    +0.000 N 
ATOM      2  C   UNL     1       1.383   8.811  20.853  0.00  0.00    +0.000 C 
ATOM      3  C   UNL     1       1.965   6.869  19.492  0.00  0.00    +0.000 C 
ATOM      4  O   UNL     1       1.846   6.159  20.494  0.00  0.00    +0.000 OA
ENDROOT
BRANCH   3   5
ATOM      5  C   UNL     1       2.444   6.264  18.168  0.00  0.00    +0.000 C 
ATOM      6  C   UNL     1       1.947   4.831  17.959  0.00  0.00    +0.000 C 
ATOM      7  C   UNL     1       3.121   3.963  18.340  0.00  0.00    +0.000 C 
ATOM      8  O   UNL     1       3.087   2.747  18.467  0.00  0.00    +0.000 OA
ATOM      9  N   UNL     1       4.232   4.773  18.471  0.00  0.00    +0.000 N 
ATOM     10  C   UNL     1       3.966   6.148  18.139  0.00  0.00    +0.000 C 
BRANCH   9  11
ATOM     11  C   UNL     1       5.532   4.318  18.943  0.00  0.00    +0.000 C 
BRANCH  11  12
ATOM     12  C   UNL     1       6.512   5.448  19.310  0.00  0.00    +0.000 C 
BRANCH  12  13
ATOM     13  N   UNL     1       7.605   5.615  18.323  0.00  0.00    +0.000 NA
ATOM     14  C   UNL     1       7.545   4.605  17.263  0.00  0.00    +0.000 C 
ATOM     15  C   UNL     1       7.556   6.953  17.726  0.00  0.00    +0.000 C 
ENDBRANCH  12  13
ENDBRANCH  11  12
ENDBRANCH   9  11
ENDBRANCH   3   5
BRANCH   1  16
ATOM     16  C   UNL     1       1.683   9.143  18.407  0.00  0.00    +0.000 C 
BRANCH  16  21
ATOM     17  C   UNL     1      -1.395  11.363  18.186  0.00  0.00    +0.000 A 
ATOM     18  C   UNL     1      -0.895  12.620  18.525  0.00  0.00    +0.000 A 
ATOM     19  C   UNL     1       0.452  12.760  18.885  0.00  0.00    +0.000 A 
ATOM     20  C   UNL     1       1.317  11.658  18.870  0.00  0.00    +0.000 A 
ATOM     21  C   UNL     1       0.840  10.396  18.511  0.00  0.00    +0.000 A 
ATOM     22  C   UNL     1      -0.530  10.263  18.211  0.00  0.00    +0.000 A 
BRANCH  17  24
ATOM     23  C   UNL     1      -2.706  10.630  15.823  0.00  0.00    +0.000 C 
ATOM     24  S   UNL     1      -3.038  11.091  17.540  0.00  0.00    +0.000 S 
ENDBRANCH  17  24
ENDBRANCH  16  21
ENDBRANCH   1  16
TORSDOF 7
ENDMDL
MODEL 3
REMARK VINA RESULT:      -6.6      3.767      7.925
REMARK  Name = 
REMARK  11 active torsions:
REMARK  status: ('A' for Active; 'I' for Inactive)
REMARK    1  A    between atoms: C_1  and  S_2
REMARK    2  A    between atoms: S_2  and  C_3
REMARK    3  A    between atoms: C_7  and  C_8
REMARK    4  A    between atoms: C_8  and  N_9
REMARK    5  A    between atoms: N_9  and  C_10
REMARK    6  A    between atoms: C_11  and  C_13
REMARK    7  A    between atoms: N_17  and  C_18
REMARK    8  A    between atoms: C_18  and  C_19
REMARK    9  A    between atoms: C_19  and  N_20
REMARK   10  A    between atoms: N_20  and  C_21
REMARK   11  A    between atoms: N_20  and  C_22
REMARK                            x       y       z     vdW  Elec       q    Type
REMARK                         _______ _______ _______ _____ _____    ______ ____
ROOT
ATOM      1  N   UNL     1       2.616   4.692  18.874  0.00  0.00    +0.000 N 
ATOM      2  C   UNL     1       1.381   3.924  18.993  0.00  0.00    +0.000 C 
ATOM      3  C   UNL     1       3.469   4.389  17.817  0.00  0.00    +0.000 C 
ATOM      4  O   UNL     1       3.129   3.589  16.941  0.00  0.00    +0.000 OA
ENDROOT
BRANCH   3   5
ATOM      5  C   UNL     1       4.848   5.056  17.760  0.00  0.00    +0.000 C 
ATOM      6  C   UNL     1       4.810   6.436  17.098  0.00  0.00    +0.000 C 
ATOM      7  C   UNL     1       5.293   6.195  15.689  0.00  0.00    +0.000 C 
ATOM      8  O   UNL     1       5.259   7.014  14.782  0.00  0.00    +0.000 OA
ATOM      9  N   UNL     1       5.813   4.917  15.624  0.00  0.00    +0.000 N 
ATOM     10  C   UNL     1       5.812   4.245  16.898  0.00  0.00    +0.000 C 
BRANCH   9  11
ATOM     11  C   UNL     1       6.271   4.275  14.400  0.00  0.00    +0.000 C 
BRANCH  11  12
ATOM     12  C   UNL     1       5.162   3.587  13.583  0.00  0.00    +0.000 C 
BRANCH  12  13
ATOM     13  N   UNL     1       5.460   3.524  12.133  0.00  0.00    +0.000 NA
ATOM     14  C   UNL     1       6.470   2.507  11.825  0.00  0.00    +0.000 C 
ATOM     15  C   UNL     1       4.239   3.245  11.371  0.00  0.00    +0.000 C 
ENDBRANCH  12  13
ENDBRANCH  11  12
ENDBRANCH   9  11
ENDBRANCH   3   5
BRANCH   1  16
ATOM     16  C   UNL     1       2.868   5.696  19.904  0.00  0.00    +0.000 C 
BRANCH  16  21
ATOM     17  C   UNL     1       0.882   8.822  20.764  0.00  0.00    +0.000 A 
ATOM     18  C   UNL     1       0.899   9.537  19.568  0.00  0.00    +0.000 A 
ATOM     19  C   UNL     1       1.606   9.038  18.466  0.00  0.00    +0.000 A 
ATOM     20  C   UNL     1       2.266   7.803  18.537  0.00  0.00    +0.000 A 
ATOM     21  C   UNL     1       2.241   7.060  19.719  0.00  0.00    +0.000 A 
ATOM     22  C   UNL     1       1.576   7.608  20.835  0.00  0.00    +0.000 A 
BRANCH  17  24
ATOM     23  C   UNL     1      -0.513  10.999  21.837  0.00  0.00    +0.000 C 
ATOM     24  S   UNL     1      -0.125   9.264  22.171  0.00  0.00    +0.000 S 
ENDBRANCH  17  24
ENDBRANCH  16  21
ENDBRANCH   1  16
TORSDOF 7
ENDMDL
MODEL 4
REMARK VINA RESULT:      -6.6      4.330      8.016
REMARK  Name = 
REMARK  11 active torsions:
REMARK  status: ('A' for Active; 'I' for Inactive)
REMARK    1  A    between atoms: C_1  and  S_2
REMARK    2  A    between atoms: S_2  and  C_3
REMARK    3  A    between atoms: C_7  and  C_8
REMARK    4  A    between atoms: C_8  and  N_9
REMARK    5  A    between atoms: N_9  and  C_10
REMARK    6  A    between atoms: C_11  and  C_13
REMARK    7  A    between atoms: N_17  and  C_18
REMARK    8  A    between atoms: C_18  and  C_19
REMARK    9  A    between atoms: C_19  and  N_20
REMARK   10  A    between atoms: N_20  and  C_21
REMARK   11  A    between atoms: N_20  and  C_22
REMARK                            x       y       z     vdW  Elec       q    Type
REMARK                         _______ _______ _______ _____ _____    ______ ____
ROOT
ATOM      1  N   UNL     1       1.722   8.048  19.975  0.00  0.00    +0.000 N 
ATOM      2  C   UNL     1       1.477   8.421  21.364  0.00  0.00    +0.000 C 
ATOM      3  C   UNL     1       1.978   6.709  19.698  0.00  0.00    +0.000 C 
ATOM      4  O   UNL     1       1.875   5.852  20.579  0.00  0.00    +0.000 OA
ENDROOT
BRANCH   3   5
ATOM      5  C   UNL     1       2.405   6.312  18.280  0.00  0.00    +0.000 C 
ATOM      6  C   UNL     1       1.941   4.905  17.895  0.00  0.00    +0.000 C 
ATOM      7  C   UNL     1       3.160   4.037  18.092  0.00  0.00    +0.000 C 
ATOM      8  O   UNL     1       3.169   2.815  18.048  0.00  0.00    +0.000 OA
ATOM      9  N   UNL     1       4.251   4.861  18.283  0.00  0.00    +0.000 N 
ATOM     10  C   UNL     1       3.926   6.259  18.162  0.00  0.00    +0.000 C 
BRANCH   9  11
ATOM     11  C   UNL     1       5.587   4.394  18.624  0.00  0.00    +0.000 C 
BRANCH  11  12
ATOM     12  C   UNL     1       6.648   4.641  17.535  0.00  0.00    +0.000 C 
BRANCH  12  13
ATOM     13  N   UNL     1       7.655   5.657  17.921  0.00  0.00    +0.000 NA
ATOM     14  C   UNL     1       7.358   6.970  17.341  0.00  0.00    +0.000 C 
ATOM     15  C   UNL     1       7.731   5.774  19.380  0.00  0.00    +0.000 C 
ENDBRANCH  12  13
ENDBRANCH  11  12
ENDBRANCH   9  11
ENDBRANCH   3   5
BRANCH   1  16
ATOM     16  C   UNL     1       1.710   9.129  18.993  0.00  0.00    +0.000 C 
BRANCH  16  21
ATOM     17  C   UNL     1      -1.614  10.462  17.716  0.00  0.00    +0.000 A 
ATOM     18  C   UNL     1      -1.844  11.560  18.544  0.00  0.00    +0.000 A 
ATOM     19  C   UNL     1      -0.943  11.859  19.573  0.00  0.00    +0.000 A 
ATOM     20  C   UNL     1       0.215  11.091  19.759  0.00  0.00    +0.000 A 
ATOM     21  C   UNL     1       0.475  10.001  18.926  0.00  0.00    +0.000 A 
ATOM     22  C   UNL     1      -0.474   9.679  17.935  0.00  0.00    +0.000 A 
BRANCH  17  24
ATOM     23  C   UNL     1      -4.012  11.188  16.466  0.00  0.00    +0.000 C 
ATOM     24  S   UNL     1      -2.589  10.090  16.267  0.00  0.00    +0.000 S 
ENDBRANCH  17  24
ENDBRANCH  16  21
ENDBRANCH   1  16
TORSDOF 7
ENDMDL
MODEL 5
REMARK VINA RESULT:      -6.5      3.748      7.913
REMARK  Name = 
REMARK  11 active torsions:
REMARK  status: ('A' for Active; 'I' for Inactive)
REMARK    1  A    between atoms: C_1  and  S_2
REMARK    2  A    between atoms: S_2  and  C_3
REMARK    3  A    between atoms: C_7  and  C_8
REMARK    4  A    between atoms: C_8  and  N_9
REMARK    5  A    between atoms: N_9  and  C_10
REMARK    6  A    between atoms: C_11  and  C_13
REMARK    7  A    between atoms: N_17  and  C_18
REMARK    8  A    between atoms: C_18  and  C_19
REMARK    9  A    between atoms: C_19  and  N_20
REMARK   10  A    between atoms: N_20  and  C_21
REMARK   11  A    between atoms: N_20  and  C_22
REMARK                            x       y       z     vdW  Elec       q    Type
REMARK                         _______ _______ _______ _____ _____    ______ ____
ROOT
ATOM      1  N   UNL     1       2.460   5.195  19.366  0.00  0.00    +0.000 N 
ATOM      2  C   UNL     1       1.332   4.279  19.512  0.00  0.00    +0.000 C 
ATOM      3  C   UNL     1       3.427   4.887  18.415  0.00  0.00    +0.000 C 
ATOM      4  O   UNL     1       3.268   3.943  17.637  0.00  0.00    +0.000 OA
ENDROOT
BRANCH   3   5
ATOM      5  C   UNL     1       4.704   5.732  18.353  0.00  0.00    +0.000 C 
ATOM      6  C   UNL     1       4.606   6.879  17.345  0.00  0.00    +0.000 C 
ATOM      7  C   UNL     1       5.339   6.376  16.125  0.00  0.00    +0.000 C 
ATOM      8  O   UNL     1       5.353   6.927  15.033  0.00  0.00    +0.000 OA
ATOM      9  N   UNL     1       6.014   5.223  16.473  0.00  0.00    +0.000 N 
ATOM     10  C   UNL     1       5.888   4.899  17.871  0.00  0.00    +0.000 C 
BRANCH   9  11
ATOM     11  C   UNL     1       6.742   4.380  15.536  0.00  0.00    +0.000 C 
BRANCH  11  12
ATOM     12  C   UNL     1       5.850   3.585  14.563  0.00  0.00    +0.000 C 
BRANCH  12  13
ATOM     13  N   UNL     1       6.385   3.546  13.182  0.00  0.00    +0.000 NA
ATOM     14  C   UNL     1       5.314   3.495  12.182  0.00  0.00    +0.000 C 
ATOM     15  C   UNL     1       7.235   4.712  12.927  0.00  0.00    +0.000 C 
ENDBRANCH  12  13
ENDBRANCH  11  12
ENDBRANCH   9  11
ENDBRANCH   3   5
BRANCH   1  16
ATOM     16  C   UNL     1       2.491   6.346  20.265  0.00  0.00    +0.000 C 
BRANCH  16  21
ATOM     17  C   UNL     1       0.700   9.697  20.378  0.00  0.00    +0.000 A 
ATOM     18  C   UNL     1       0.644  10.062  19.033  0.00  0.00    +0.000 A 
ATOM     19  C   UNL     1       1.237   9.245  18.063  0.00  0.00    +0.000 A 
ATOM     20  C   UNL     1       1.855   8.038  18.421  0.00  0.00    +0.000 A 
ATOM     21  C   UNL     1       1.901   7.644  19.760  0.00  0.00    +0.000 A 
ATOM     22  C   UNL     1       1.353   8.509  20.728  0.00  0.00    +0.000 A 
BRANCH  17  24
ATOM     23  C   UNL     1      -0.004   9.422  23.074  0.00  0.00    +0.000 C 
ATOM     24  S   UNL     1      -0.169  10.560  21.678  0.00  0.00    +0.000 S 
ENDBRANCH  17  24
ENDBRANCH  16  21
ENDBRANCH   1  16
TORSDOF 7
ENDMDL
MODEL 6
REMARK VINA RESULT:      -6.4      4.575      8.245
REMARK  Name = 
REMARK  11 active torsions:
REMARK  status: ('A' for Active; 'I' for Inactive)
REMARK    1  A    between atoms: C_1  and  S_2
REMARK    2  A    between atoms: S_2  and  C_3
REMARK    3  A    between atoms: C_7  and  C_8
REMARK    4  A    between atoms: C_8  and  N_9
REMARK    5  A    between atoms: N_9  and  C_10
REMARK    6  A    between atoms: C_11  and  C_13
REMARK    7  A    between atoms: N_17  and  C_18
REMARK    8  A    between atoms: C_18  and  C_19
REMARK    9  A    between atoms: C_19  and  N_20
REMARK   10  A    between atoms: N_20  and  C_21
REMARK   11  A    between atoms: N_20  and  C_22
REMARK                            x       y       z     vdW  Elec       q    Type
REMARK                         _______ _______ _______ _____ _____    ______ ____
ROOT
ATOM      1  N   UNL     1       1.886   7.798  19.433  0.00  0.00    +0.000 N 
ATOM      2  C   UNL     1       1.671   8.312  20.782  0.00  0.00    +0.000 C 
ATOM      3  C   UNL     1       2.046   6.424  19.281  0.00  0.00    +0.000 C 
ATOM      4  O   UNL     1       1.882   5.660  20.236  0.00  0.00    +0.000 OA
ENDROOT
BRANCH   3   5
ATOM      5  C   UNL     1       2.441   5.870  17.907  0.00  0.00    +0.000 C 
ATOM      6  C   UNL     1       2.100   4.386  17.748  0.00  0.00    +0.000 C 
ATOM      7  C   UNL     1       3.406   3.668  17.988  0.00  0.00    +0.000 C 
ATOM      8  O   UNL     1       3.534   2.459  18.112  0.00  0.00    +0.000 OA
ATOM      9  N   UNL     1       4.418   4.607  17.997  0.00  0.00    +0.000 N 
ATOM     10  C   UNL     1       3.953   5.938  17.705  0.00  0.00    +0.000 C 
BRANCH   9  11
ATOM     11  C   UNL     1       5.809   4.316  18.316  0.00  0.00    +0.000 C 
BRANCH  11  12
ATOM     12  C   UNL     1       6.826   4.838  17.283  0.00  0.00    +0.000 C 
BRANCH  12  13
ATOM     13  N   UNL     1       7.764   5.839  17.842  0.00  0.00    +0.000 NA
ATOM     14  C   UNL     1       7.423   7.202  17.425  0.00  0.00    +0.000 C 
ATOM     15  C   UNL     1       7.780   5.766  19.306  0.00  0.00    +0.000 C 
ENDBRANCH  12  13
ENDBRANCH  11  12
ENDBRANCH   9  11
ENDBRANCH   3   5
BRANCH   1  16
ATOM     16  C   UNL     1       1.952   8.783  18.357  0.00  0.00    +0.000 C 
BRANCH  16  21
ATOM     17  C   UNL     1       0.437  12.242  18.800  0.00  0.00    +0.000 A 
ATOM     18  C   UNL     1      -0.907  12.032  18.494  0.00  0.00    +0.000 A 
ATOM     19  C   UNL     1      -1.339  10.764  18.084  0.00  0.00    +0.000 A 
ATOM     20  C   UNL     1      -0.444   9.688  18.016  0.00  0.00    +0.000 A 
ATOM     21  C   UNL     1       0.902   9.873  18.341  0.00  0.00    +0.000 A 
ATOM     22  C   UNL     1       1.330  11.169  18.692  0.00  0.00    +0.000 A 
BRANCH  17  24
ATOM     23  C   UNL     1      -0.144  14.977  18.946  0.00  0.00    +0.000 C 
ATOM     24  S   UNL     1       1.070  13.757  19.502  0.00  0.00    +0.000 S 
ENDBRANCH  17  24
ENDBRANCH  16  21
ENDBRANCH   1  16
TORSDOF 7
ENDMDL
MODEL 7
REMARK VINA RESULT:      -6.3      4.758      6.972
REMARK  Name = 
REMARK  11 active torsions:
REMARK  status: ('A' for Active; 'I' for Inactive)
REMARK    1  A    between atoms: C_1  and  S_2
REMARK    2  A    between atoms: S_2  and  C_3
REMARK    3  A    between atoms: C_7  and  C_8
REMARK    4  A    between atoms: C_8  and  N_9
REMARK    5  A    between atoms: N_9  and  C_10
REMARK    6  A    between atoms: C_11  and  C_13
REMARK    7  A    between atoms: N_17  and  C_18
REMARK    8  A    between atoms: C_18  and  C_19
REMARK    9  A    between atoms: C_19  and  N_20
REMARK   10  A    between atoms: N_20  and  C_21
REMARK   11  A    between atoms: N_20  and  C_22
REMARK                            x       y       z     vdW  Elec       q    Type
REMARK                         _______ _______ _______ _____ _____    ______ ____
ROOT
ATOM      1  N   UNL     1       1.963   8.022  19.406  0.00  0.00    +0.000 N 
ATOM      2  C   UNL     1       1.971   7.008  20.457  0.00  0.00    +0.000 C 
ATOM      3  C   UNL     1       1.228   9.182  19.630  0.00  0.00    +0.000 C 
ATOM      4  O   UNL     1       0.709   9.398  20.729  0.00  0.00    +0.000 OA
ENDROOT
BRANCH   3   5
ATOM      5  C   UNL     1       1.059  10.187  18.485  0.00  0.00    +0.000 C 
ATOM      6  C   UNL     1       1.153  11.641  18.956  0.00  0.00    +0.000 C 
ATOM      7  C   UNL     1      -0.281  12.100  19.059  0.00  0.00    +0.000 C 
ATOM      8  O   UNL     1      -0.650  13.154  19.557  0.00  0.00    +0.000 OA
ATOM      9  N   UNL     1      -1.082  11.149  18.458  0.00  0.00    +0.000 N 
ATOM     10  C   UNL     1      -0.329  10.077  17.861  0.00  0.00    +0.000 C 
BRANCH   9  11
ATOM     11  C   UNL     1      -2.538  11.179  18.459  0.00  0.00    +0.000 C 
BRANCH  11  12
ATOM     12  C   UNL     1      -3.202  10.046  17.654  0.00  0.00    +0.000 C 
BRANCH  12  13
ATOM     13  N   UNL     1      -3.972  10.535  16.486  0.00  0.00    +0.000 NA
ATOM     14  C   UNL     1      -4.788  11.706  16.820  0.00  0.00    +0.000 C 
ATOM     15  C   UNL     1      -3.070  10.867  15.380  0.00  0.00    +0.000 C 
ENDBRANCH  12  13
ENDBRANCH  11  12
ENDBRANCH   9  11
ENDBRANCH   3   5
BRANCH   1  16
ATOM     16  C   UNL     1       2.704   7.711  18.187  0.00  0.00    +0.000 C 
BRANCH  16  21
ATOM     17  C   UNL     1       5.057   4.777  17.630  0.00  0.00    +0.000 A 
ATOM     18  C   UNL     1       4.182   3.702  17.484  0.00  0.00    +0.000 A 
ATOM     19  C   UNL     1       2.802   3.904  17.617  0.00  0.00    +0.000 A 
ATOM     20  C   UNL     1       2.283   5.184  17.856  0.00  0.00    +0.000 A 
ATOM     21  C   UNL     1       3.143   6.277  17.982  0.00  0.00    +0.000 A 
ATOM     22  C   UNL     1       4.531   6.045  17.905  0.00  0.00    +0.000 A 
BRANCH  17  24
ATOM     23  C   UNL     1       6.868   4.627  15.499  0.00  0.00    +0.000 C 
ATOM     24  S   UNL     1       6.811   4.679  17.306  0.00  0.00    +0.000 S 
ENDBRANCH  17  24
ENDBRANCH  16  21
ENDBRANCH   1  16
TORSDOF 7
ENDMDL
MODEL 8
REMARK VINA RESULT:      -6.2      4.786      8.497
REMARK  Name = 
REMARK  11 active torsions:
REMARK  status: ('A' for Active; 'I' for Inactive)
REMARK    1  A    between atoms: C_1  and  S_2
REMARK    2  A    between atoms: S_2  and  C_3
REMARK    3  A    between atoms: C_7  and  C_8
REMARK    4  A    between atoms: C_8  and  N_9
REMARK    5  A    between atoms: N_9  and  C_10
REMARK    6  A    between atoms: C_11  and  C_13
REMARK    7  A    between atoms: N_17  and  C_18
REMARK    8  A    between atoms: C_18  and  C_19
REMARK    9  A    between atoms: C_19  and  N_20
REMARK   10  A    between atoms: N_20  and  C_21
REMARK   11  A    between atoms: N_20  and  C_22
REMARK                            x       y       z     vdW  Elec       q    Type
REMARK                         _______ _______ _______ _____ _____    ______ ____
ROOT
ATOM      1  N   UNL     1       1.607   8.365  19.761  0.00  0.00    +0.000 N 
ATOM      2  C   UNL     1       1.283   8.848  21.100  0.00  0.00    +0.000 C 
ATOM      3  C   UNL     1       1.922   7.018  19.617  0.00  0.00    +0.000 C 
ATOM      4  O   UNL     1       1.805   6.237  20.565  0.00  0.00    +0.000 OA
ENDROOT
BRANCH   3   5
ATOM      5  C   UNL     1       2.430   6.515  18.261  0.00  0.00    +0.000 C 
ATOM      6  C   UNL     1       2.234   5.008  18.078  0.00  0.00    +0.000 C 
ATOM      7  C   UNL     1       3.588   4.410  18.375  0.00  0.00    +0.000 C 
ATOM      8  O   UNL     1       3.819   3.216  18.498  0.00  0.00    +0.000 OA
ATOM      9  N   UNL     1       4.508   5.437  18.437  0.00  0.00    +0.000 N 
ATOM     10  C   UNL     1       3.937   6.723  18.130  0.00  0.00    +0.000 C 
BRANCH   9  11
ATOM     11  C   UNL     1       5.903   5.271  18.820  0.00  0.00    +0.000 C 
BRANCH  11  12
ATOM     12  C   UNL     1       6.752   4.470  17.815  0.00  0.00    +0.000 C 
BRANCH  12  13
ATOM     13  N   UNL     1       7.444   5.326  16.823  0.00  0.00    +0.000 NA
ATOM     14  C   UNL     1       6.818   5.247  15.500  0.00  0.00    +0.000 C 
ATOM     15  C   UNL     1       7.461   6.721  17.273  0.00  0.00    +0.000 C 
ENDBRANCH  12  13
ENDBRANCH  11  12
ENDBRANCH   9  11
ENDBRANCH   3   5
BRANCH   1  16
ATOM     16  C   UNL     1       1.607   9.355  18.688  0.00  0.00    +0.000 C 
BRANCH  16  21
ATOM     17  C   UNL     1      -0.911  12.193  18.938  0.00  0.00    +0.000 A 
ATOM     18  C   UNL     1      -2.006  11.698  18.231  0.00  0.00    +0.000 A 
ATOM     19  C   UNL     1      -1.926  10.445  17.610  0.00  0.00    +0.000 A 
ATOM     20  C   UNL     1      -0.771   9.659  17.725  0.00  0.00    +0.000 A 
ATOM     21  C   UNL     1       0.327  10.128  18.449  0.00  0.00    +0.000 A 
ATOM     22  C   UNL     1       0.251  11.416  19.015  0.00  0.00    +0.000 A 
BRANCH  17  24
ATOM     23  C   UNL     1      -0.153  14.886  18.826  0.00  0.00    +0.000 C 
ATOM     24  S   UNL     1      -0.955  13.687  19.916  0.00  0.00    +0.000 S 
ENDBRANCH  17  24
ENDBRANCH  16  21
ENDBRANCH   1  16
TORSDOF 7
ENDMDL
MODEL 9
REMARK VINA RESULT:      -6.1      3.959      8.350
REMARK  Name = 
REMARK  11 active torsions:
REMARK  status: ('A' for Active; 'I' for Inactive)
REMARK    1  A    between atoms: C_1  and  S_2
REMARK    2  A    between atoms: S_2  and  C_3
REMARK    3  A    between atoms: C_7  and  C_8
REMARK    4  A    between atoms: C_8  and  N_9
REMARK    5  A    between atoms: N_9  and  C_10
REMARK    6  A    between atoms: C_11  and  C_13
REMARK    7  A    between atoms: N_17  and  C_18
REMARK    8  A    between atoms: C_18  and  C_19
REMARK    9  A    between atoms: C_19  and  N_20
REMARK   10  A    between atoms: N_20  and  C_21
REMARK   11  A    between atoms: N_20  and  C_22
REMARK                            x       y       z     vdW  Elec       q    Type
REMARK                         _______ _______ _______ _____ _____    ______ ____
ROOT
ATOM      1  N   UNL     1       2.177   5.103  19.545  0.00  0.00    +0.000 N 
ATOM      2  C   UNL     1       0.948   4.327  19.674  0.00  0.00    +0.000 C 
ATOM      3  C   UNL     1       3.025   4.804  18.483  0.00  0.00    +0.000 C 
ATOM      4  O   UNL     1       2.684   3.999  17.612  0.00  0.00    +0.000 OA
ENDROOT
BRANCH   3   5
ATOM      5  C   UNL     1       4.399   5.480  18.416  0.00  0.00    +0.000 C 
ATOM      6  C   UNL     1       4.410   6.707  17.501  0.00  0.00    +0.000 C 
ATOM      7  C   UNL     1       5.015   6.213  16.210  0.00  0.00    +0.000 C 
ATOM      8  O   UNL     1       5.055   6.844  15.163  0.00  0.00    +0.000 OA
ATOM      9  N   UNL     1       5.547   4.959  16.435  0.00  0.00    +0.000 N 
ATOM     10  C   UNL     1       5.440   4.543  17.809  0.00  0.00    +0.000 C 
BRANCH   9  11
ATOM     11  C   UNL     1       6.115   4.107  15.400  0.00  0.00    +0.000 C 
BRANCH  11  12
ATOM     12  C   UNL     1       7.379   4.673  14.727  0.00  0.00    +0.000 C 
BRANCH  12  13
ATOM     13  N   UNL     1       7.162   5.065  13.314  0.00  0.00    +0.000 NA
ATOM     14  C   UNL     1       8.362   5.661  12.720  0.00  0.00    +0.000 C 
ATOM     15  C   UNL     1       6.747   3.906  12.519  0.00  0.00    +0.000 C 
ENDBRANCH  12  13
ENDBRANCH  11  12
ENDBRANCH   9  11
ENDBRANCH   3   5
BRANCH   1  16
ATOM     16  C   UNL     1       2.429   6.111  20.571  0.00  0.00    +0.000 C 
BRANCH  16  21
ATOM     17  C   UNL     1       0.579   9.323  21.416  0.00  0.00    +0.000 A 
ATOM     18  C   UNL     1       0.540   9.988  20.191  0.00  0.00    +0.000 A 
ATOM     19  C   UNL     1       1.165   9.425  19.071  0.00  0.00    +0.000 A 
ATOM     20  C   UNL     1       1.796   8.176  19.154  0.00  0.00    +0.000 A 
ATOM     21  C   UNL     1       1.826   7.484  20.367  0.00  0.00    +0.000 A 
ATOM     22  C   UNL     1       1.245   8.095  21.496  0.00  0.00    +0.000 A 
BRANCH  17  24
ATOM     23  C   UNL     1      -1.039  11.424  22.318  0.00  0.00    +0.000 C 
ATOM     24  S   UNL     1      -0.329   9.851  22.861  0.00  0.00    +0.000 S 
ENDBRANCH  17  24
ENDBRANCH  16  21
ENDBRANCH   1  16
TORSDOF 7
ENDMDL
