MODEL 1
REMARK VINA RESULT:      -8.2      0.000      0.000
REMARK  Name = 
REMARK  7 active torsions:
REMARK  status: ('A' for Active; 'I' for Inactive)
REMARK    1  A    between atoms: C_2  and  O_3
REMARK    2  A    between atoms: C_2  and  C_20
REMARK    3  A    between atoms: O_3  and  C_4
REMARK    4  A    between atoms: C_4  and  C_5
REMARK    5  A    between atoms: C_5  and  C_6
REMARK    6  A    between atoms: C_6  and  N_7
REMARK    7  A    between atoms: N_10  and  C_11
REMARK                            x       y       z     vdW  Elec       q    Type
REMARK                         _______ _______ _______ _____ _____    ______ ____
ROOT
ATOM      1  C   UNL     1       1.559   9.504  18.189  0.00  0.00    +0.000 C 
ENDROOT
BRANCH   1   2
ATOM      2  C   UNL     1       2.613   8.495  17.760  0.00  0.00    +0.000 C 
BRANCH   2   3
ATOM      3  O   UNL     1       2.268   7.172  18.208  0.00  0.00    +0.000 OA
BRANCH   3   5
ATOM      4  O   UNL     1       4.410   6.410  17.875  0.00  0.00    +0.000 OA
ATOM      5  C   UNL     1       3.258   6.233  18.255  0.00  0.00    +0.000 C 
BRANCH   5   6
ATOM      6  C   UNL     1       2.748   4.947  18.917  0.00  0.00    +0.000 C 
ATOM      7  C   UNL     1       1.840   4.204  17.908  0.00  0.00    +0.000 C 
ATOM      8  C   UNL     1       1.372   2.860  18.491  0.00  0.00    +0.000 C 
ATOM      9  C   UNL     1       2.608   2.012  18.845  0.00  0.00    +0.000 C 
ATOM     10  C   UNL     1       3.447   2.721  19.921  0.00  0.00    +0.000 C 
ATOM     11  C   UNL     1       3.940   4.059  19.362  0.00  0.00    +0.000 C 
ATOM     12  C   UNL     1       2.591   2.994  21.166  0.00  0.00    +0.000 C 
ATOM     13  C   UNL     1       1.395   3.884  20.791  0.00  0.00    +0.000 C 
ATOM     14  C   UNL     1       1.894   5.217  20.183  0.00  0.00    +0.000 C 
ATOM     15  C   UNL     1       0.543   3.125  19.757  0.00  0.00    +0.000 C 
ENDBRANCH   5   6
ENDBRANCH   3   5
ENDBRANCH   2   3
ENDBRANCH   1   2
BRANCH   1  16
ATOM     16  C   UNL     1       1.335   9.540  19.705  0.00  0.00    +0.000 C 
BRANCH  16  17
ATOM     17  N   UNL     1      -0.019   9.170  20.141  0.00  0.00    +0.000 NA
ATOM     18  C   UNL     1      -0.151   9.041  21.615  0.00  0.00    +0.000 C 
ATOM     19  C   UNL     1      -0.101  10.365  22.420  0.00  0.00    +0.000 C 
ATOM     20  N   UNL     1      -1.046  11.344  21.853  0.00  0.00    +0.000 N 
ATOM     21  C   UNL     1      -0.933  11.540  20.396  0.00  0.00    +0.000 C 
ATOM     22  C   UNL     1      -1.017  10.171  19.683  0.00  0.00    +0.000 C 
BRANCH  20  23
ATOM     23  C   UNL     1      -1.651  12.306  22.643  0.00  0.00    +0.000 A 
ATOM     24  C   UNL     1      -0.989  13.466  23.066  0.00  0.00    +0.000 A 
ATOM     25  C   UNL     1      -1.590  14.392  23.927  0.00  0.00    +0.000 A 
ATOM     26  C   UNL     1      -2.886  14.171  24.388  0.00  0.00    +0.000 A 
ATOM     27  C   UNL     1      -3.568  13.031  23.979  0.00  0.00    +0.000 A 
ATOM     28 CL   UNL     1      -5.160  12.733  24.555  0.00  0.00    +0.000 Cl
ATOM     29  C   UNL     1      -2.960  12.113  23.122  0.00  0.00    +0.000 A 
ENDBRANCH  20  23
ENDBRANCH  16  17
ENDBRANCH   1  16
TORSDOF 7
ENDMDL
MODEL 2
REMARK VINA RESULT:      -8.1      1.322      2.299
REMARK  Name = 
REMARK  7 active torsions:
REMARK  status: ('A' for Active; 'I' for Inactive)
REMARK    1  A    between atoms: C_2  and  O_3
REMARK    2  A    between atoms: C_2  and  C_20
REMARK    3  A    between atoms: O_3  and  C_4
REMARK    4  A    between atoms: C_4  and  C_5
REMARK    5  A    between atoms: C_5  and  C_6
REMARK    6  A    between atoms: C_6  and  N_7
REMARK    7  A    between atoms: N_10  and  C_11
REMARK                            x       y       z     vdW  Elec       q    Type
REMARK                         _______ _______ _______ _____ _____    ______ ____
ROOT
ATOM      1  C   UNL     1       2.003   9.490  17.988  0.00  0.00    +0.000 C 
ENDROOT
BRANCH   1   2
ATOM      2  C   UNL     1       1.884   7.985  17.799  0.00  0.00    +0.000 C 
BRANCH   2   3
ATOM      3  O   UNL     1       2.559   7.282  18.858  0.00  0.00    +0.000 OA
BRANCH   3   5
ATOM      4  O   UNL     1       4.476   6.390  17.958  0.00  0.00    +0.000 OA
ATOM      5  C   UNL     1       3.393   6.256  18.516  0.00  0.00    +0.000 C 
BRANCH   5   6
ATOM      6  C   UNL     1       2.819   4.916  18.992  0.00  0.00    +0.000 C 
ATOM      7  C   UNL     1       3.996   3.991  19.382  0.00  0.00    +0.000 C 
ATOM      8  C   UNL     1       3.473   2.662  19.952  0.00  0.00    +0.000 C 
ATOM      9  C   UNL     1       2.581   2.959  21.172  0.00  0.00    +0.000 C 
ATOM     10  C   UNL     1       1.364   3.798  20.748  0.00  0.00    +0.000 C 
ATOM     11  C   UNL     1       1.855   5.136  20.188  0.00  0.00    +0.000 C 
ATOM     12  C   UNL     1       0.573   3.067  19.652  0.00  0.00    +0.000 C 
ATOM     13  C   UNL     1       1.474   2.830  18.430  0.00  0.00    +0.000 C 
ATOM     14  C   UNL     1       2.008   4.181  17.893  0.00  0.00    +0.000 C 
ATOM     15  C   UNL     1       2.652   1.942  18.871  0.00  0.00    +0.000 C 
ENDBRANCH   5   6
ENDBRANCH   3   5
ENDBRANCH   2   3
ENDBRANCH   1   2
BRANCH   1  16
ATOM     16  C   UNL     1       0.740  10.130  18.574  0.00  0.00    +0.000 C 
BRANCH  16  17
ATOM     17  N   UNL     1       0.958  11.403  19.276  0.00  0.00    +0.000 NA
ATOM     18  C   UNL     1      -0.027  12.454  18.916  0.00  0.00    +0.000 C 
ATOM     19  C   UNL     1      -1.469  12.245  19.445  0.00  0.00    +0.000 C 
ATOM     20  N   UNL     1      -1.447  11.969  20.893  0.00  0.00    +0.000 N 
ATOM     21  C   UNL     1      -0.512  10.905  21.304  0.00  0.00    +0.000 C 
ATOM     22  C   UNL     1       0.898  11.213  20.749  0.00  0.00    +0.000 C 
BRANCH  20  23
ATOM     23  C   UNL     1      -2.500  12.329  21.715  0.00  0.00    +0.000 A 
ATOM     24  C   UNL     1      -2.468  12.165  23.106  0.00  0.00    +0.000 A 
ATOM     25  C   UNL     1      -3.570  12.463  23.914  0.00  0.00    +0.000 A 
ATOM     26  C   UNL     1      -4.746  12.938  23.338  0.00  0.00    +0.000 A 
ATOM     27  C   UNL     1      -4.803  13.116  21.960  0.00  0.00    +0.000 A 
ATOM     28 CL   UNL     1      -6.253  13.682  21.230  0.00  0.00    +0.000 Cl
ATOM     29  C   UNL     1      -3.699  12.814  21.162  0.00  0.00    +0.000 A 
ENDBRANCH  20  23
ENDBRANCH  16  17
ENDBRANCH   1  16
TORSDOF 7
ENDMDL
MODEL 3
REMARK VINA RESULT:      -8.1      0.831      1.701
REMARK  Name = 
REMARK  7 active torsions:
REMARK  status: ('A' for Active; 'I' for Inactive)
REMARK    1  A    between atoms: C_2  and  O_3
REMARK    2  A    between atoms: C_2  and  C_20
REMARK    3  A    between atoms: O_3  and  C_4
REMARK    4  A    between atoms: C_4  and  C_5
REMARK    5  A    between atoms: C_5  and  C_6
REMARK    6  A    between atoms: C_6  and  N_7
REMARK    7  A    between atoms: N_10  and  C_11
REMARK                            x       y       z     vdW  Elec       q    Type
REMARK                         _______ _______ _______ _____ _____    ______ ____
ROOT
ATOM      1  C   UNL     1       1.684   9.650  17.738  0.00  0.00    +0.000 C 
ENDROOT
BRANCH   1   2
ATOM      2  C   UNL     1       2.709   8.546  17.953  0.00  0.00    +0.000 C 
BRANCH   2   3
ATOM      3  O   UNL     1       2.059   7.289  18.214  0.00  0.00    +0.000 OA
BRANCH   3   5
ATOM      4  O   UNL     1       2.293   7.353  20.499  0.00  0.00    +0.000 OA
ATOM      5  C   UNL     1       2.224   6.727  19.447  0.00  0.00    +0.000 C 
BRANCH   5   6
ATOM      6  C   UNL     1       2.237   5.196  19.343  0.00  0.00    +0.000 C 
ATOM      7  C   UNL     1       3.672   4.699  19.638  0.00  0.00    +0.000 C 
ATOM      8  C   UNL     1       3.723   3.162  19.634  0.00  0.00    +0.000 C 
ATOM      9  C   UNL     1       2.730   2.628  20.683  0.00  0.00    +0.000 C 
ATOM     10  C   UNL     1       1.296   3.050  20.320  0.00  0.00    +0.000 C 
ATOM     11  C   UNL     1       1.213   4.579  20.330  0.00  0.00    +0.000 C 
ATOM     12  C   UNL     1       0.935   2.547  18.914  0.00  0.00    +0.000 C 
ATOM     13  C   UNL     1       1.912   3.138  17.884  0.00  0.00    +0.000 C 
ATOM     14  C   UNL     1       1.861   4.684  17.929  0.00  0.00    +0.000 C 
ATOM     15  C   UNL     1       3.329   2.652  18.239  0.00  0.00    +0.000 C 
ENDBRANCH   5   6
ENDBRANCH   3   5
ENDBRANCH   2   3
ENDBRANCH   1   2
BRANCH   1  16
ATOM     16  C   UNL     1       1.188  10.281  19.044  0.00  0.00    +0.000 C 
BRANCH  16  17
ATOM     17  N   UNL     1      -0.118   9.794  19.511  0.00  0.00    +0.000 NA
ATOM     18  C   UNL     1      -0.149   9.482  20.962  0.00  0.00    +0.000 C 
ATOM     19  C   UNL     1      -0.101  10.699  21.921  0.00  0.00    +0.000 C 
ATOM     20  N   UNL     1      -1.120  11.691  21.538  0.00  0.00    +0.000 N 
ATOM     21  C   UNL     1      -1.111  12.068  20.112  0.00  0.00    +0.000 C 
ATOM     22  C   UNL     1      -1.184  10.793  19.240  0.00  0.00    +0.000 C 
BRANCH  20  23
ATOM     23  C   UNL     1      -1.712  12.520  22.475  0.00  0.00    +0.000 A 
ATOM     24  C   UNL     1      -1.086  13.671  22.973  0.00  0.00    +0.000 A 
ATOM     25  C   UNL     1      -1.665  14.455  23.976  0.00  0.00    +0.000 A 
ATOM     26  C   UNL     1      -2.901  14.099  24.510  0.00  0.00    +0.000 A 
ATOM     27  C   UNL     1      -3.547  12.965  24.030  0.00  0.00    +0.000 A 
ATOM     28 CL   UNL     1      -5.063  12.499  24.693  0.00  0.00    +0.000 Cl
ATOM     29  C   UNL     1      -2.961  12.188  23.031  0.00  0.00    +0.000 A 
ENDBRANCH  20  23
ENDBRANCH  16  17
ENDBRANCH   1  16
TORSDOF 7
ENDMDL
MODEL 4
REMARK VINA RESULT:      -8.0      7.012     10.864
REMARK  Name = 
REMARK  7 active torsions:
REMARK  status: ('A' for Active; 'I' for Inactive)
REMARK    1  A    between atoms: C_2  and  O_3
REMARK    2  A    between atoms: C_2  and  C_20
REMARK    3  A    between atoms: O_3  and  C_4
REMARK    4  A    between atoms: C_4  and  C_5
REMARK    5  A    between atoms: C_5  and  C_6
REMARK    6  A    between atoms: C_6  and  N_7
REMARK    7  A    between atoms: N_10  and  C_11
REMARK                            x       y       z     vdW  Elec       q    Type
REMARK                         _______ _______ _______ _____ _____    ______ ____
ROOT
ATOM      1  C   UNL     1       8.378   8.236  18.533  0.00  0.00    +0.000 C 
ENDROOT
BRANCH   1   2
ATOM      2  C   UNL     1       8.713   9.706  18.328  0.00  0.00    +0.000 C 
BRANCH   2   3
ATOM      3  O   UNL     1       9.411  10.235  19.469  0.00  0.00    +0.000 OA
BRANCH   3   5
ATOM      4  O   UNL     1      11.336  11.153  18.612  0.00  0.00    +0.000 OA
ATOM      5  C   UNL     1      10.300  11.250  19.261  0.00  0.00    +0.000 C 
BRANCH   5   6
ATOM      6  C   UNL     1       9.788  12.551  19.892  0.00  0.00    +0.000 C 
ATOM      7  C   UNL     1       8.984  12.194  21.165  0.00  0.00    +0.000 C 
ATOM      8  C   UNL     1       8.520  13.470  21.887  0.00  0.00    +0.000 C 
ATOM      9  C   UNL     1       9.755  14.320  22.239  0.00  0.00    +0.000 C 
ATOM     10  C   UNL     1      10.488  14.748  20.956  0.00  0.00    +0.000 C 
ATOM     11  C   UNL     1      10.974  13.495  20.222  0.00  0.00    +0.000 C 
ATOM     12  C   UNL     1       9.533  15.520  20.033  0.00  0.00    +0.000 C 
ATOM     13  C   UNL     1       8.337  14.628  19.659  0.00  0.00    +0.000 C 
ATOM     14  C   UNL     1       8.834  13.340  18.958  0.00  0.00    +0.000 C 
ATOM     15  C   UNL     1       7.592  14.263  20.955  0.00  0.00    +0.000 C 
ENDBRANCH   5   6
ENDBRANCH   3   5
ENDBRANCH   2   3
ENDBRANCH   1   2
BRANCH   1  16
ATOM     16  C   UNL     1       7.477   7.660  17.435  0.00  0.00    +0.000 C 
BRANCH  16  17
ATOM     17  N   UNL     1       7.534   6.198  17.289  0.00  0.00    +0.000 NA
ATOM     18  C   UNL     1       7.341   5.468  18.567  0.00  0.00    +0.000 C 
ATOM     19  C   UNL     1       5.908   5.494  19.156  0.00  0.00    +0.000 C 
ATOM     20  N   UNL     1       4.926   5.100  18.129  0.00  0.00    +0.000 N 
ATOM     21  C   UNL     1       5.047   5.823  16.849  0.00  0.00    +0.000 C 
ATOM     22  C   UNL     1       6.501   5.720  16.334  0.00  0.00    +0.000 C 
BRANCH  20  23
ATOM     23  C   UNL     1       3.742   4.467  18.465  0.00  0.00    +0.000 A 
ATOM     24  C   UNL     1       2.630   4.436  17.613  0.00  0.00    +0.000 A 
ATOM     25  C   UNL     1       1.415   3.859  17.999  0.00  0.00    +0.000 A 
ATOM     26  C   UNL     1       1.286   3.293  19.265  0.00  0.00    +0.000 A 
ATOM     27  C   UNL     1       2.376   3.306  20.129  0.00  0.00    +0.000 A 
ATOM     28 CL   UNL     1       2.228   2.630  21.703  0.00  0.00    +0.000 Cl
ATOM     29  C   UNL     1       3.583   3.885  19.736  0.00  0.00    +0.000 A 
ENDBRANCH  20  23
ENDBRANCH  16  17
ENDBRANCH   1  16
TORSDOF 7
ENDMDL
MODEL 5
REMARK VINA RESULT:      -8.0      1.343      1.791
REMARK  Name = 
REMARK  7 active torsions:
REMARK  status: ('A' for Active; 'I' for Inactive)
REMARK    1  A    between atoms: C_2  and  O_3
REMARK    2  A    between atoms: C_2  and  C_20
REMARK    3  A    between atoms: O_3  and  C_4
REMARK    4  A    between atoms: C_4  and  C_5
REMARK    5  A    between atoms: C_5  and  C_6
REMARK    6  A    between atoms: C_6  and  N_7
REMARK    7  A    between atoms: N_10  and  C_11
REMARK                            x       y       z     vdW  Elec       q    Type
REMARK                         _______ _______ _______ _____ _____    ______ ____
ROOT
ATOM      1  C   UNL     1       2.106   9.618  18.282  0.00  0.00    +0.000 C 
ENDROOT
BRANCH   1   2
ATOM      2  C   UNL     1       2.026   8.223  17.678  0.00  0.00    +0.000 C 
BRANCH   2   3
ATOM      3  O   UNL     1       2.327   7.221  18.666  0.00  0.00    +0.000 OA
BRANCH   3   5
ATOM      4  O   UNL     1       4.169   6.327  17.623  0.00  0.00    +0.000 OA
ATOM      5  C   UNL     1       3.161   6.201  18.309  0.00  0.00    +0.000 C 
BRANCH   5   6
ATOM      6  C   UNL     1       2.702   4.884  18.948  0.00  0.00    +0.000 C 
ATOM      7  C   UNL     1       1.892   4.087  17.897  0.00  0.00    +0.000 C 
ATOM      8  C   UNL     1       1.483   2.715  18.458  0.00  0.00    +0.000 C 
ATOM      9  C   UNL     1       2.751   1.946  18.871  0.00  0.00    +0.000 C 
ATOM     10  C   UNL     1       3.492   2.704  19.985  0.00  0.00    +0.000 C 
ATOM     11  C   UNL     1       3.926   4.072  19.450  0.00  0.00    +0.000 C 
ATOM     12  C   UNL     1       2.563   2.920  21.189  0.00  0.00    +0.000 C 
ATOM     13  C   UNL     1       1.332   3.733  20.756  0.00  0.00    +0.000 C 
ATOM     14  C   UNL     1       1.774   5.097  20.171  0.00  0.00    +0.000 C 
ATOM     15  C   UNL     1       0.580   2.924  19.683  0.00  0.00    +0.000 C 
ENDBRANCH   5   6
ENDBRANCH   3   5
ENDBRANCH   2   3
ENDBRANCH   1   2
BRANCH   1  16
ATOM     16  C   UNL     1       0.787  10.084  18.908  0.00  0.00    +0.000 C 
BRANCH  16  17
ATOM     17  N   UNL     1       0.693  11.531  19.151  0.00  0.00    +0.000 NA
ATOM     18  C   UNL     1      -0.589  12.125  18.694  0.00  0.00    +0.000 C 
ATOM     19  C   UNL     1      -1.844  11.760  19.527  0.00  0.00    +0.000 C 
ATOM     20  N   UNL     1      -1.593  12.000  20.960  0.00  0.00    +0.000 N 
ATOM     21  C   UNL     1      -0.350  11.398  21.478  0.00  0.00    +0.000 C 
ATOM     22  C   UNL     1       0.843  11.838  20.597  0.00  0.00    +0.000 C 
BRANCH  20  23
ATOM     23  C   UNL     1      -2.615  12.345  21.826  0.00  0.00    +0.000 A 
ATOM     24  C   UNL     1      -2.564  12.087  23.202  0.00  0.00    +0.000 A 
ATOM     25  C   UNL     1      -3.638  12.373  24.051  0.00  0.00    +0.000 A 
ATOM     26  C   UNL     1      -4.804  12.933  23.533  0.00  0.00    +0.000 A 
ATOM     27  C   UNL     1      -4.879  13.204  22.171  0.00  0.00    +0.000 A 
ATOM     28 CL   UNL     1      -6.318  13.874  21.511  0.00  0.00    +0.000 Cl
ATOM     29  C   UNL     1      -3.803  12.913  21.332  0.00  0.00    +0.000 A 
ENDBRANCH  20  23
ENDBRANCH  16  17
ENDBRANCH   1  16
TORSDOF 7
ENDMDL
MODEL 6
REMARK VINA RESULT:      -7.9      1.255      2.199
REMARK  Name = 
REMARK  7 active torsions:
REMARK  status: ('A' for Active; 'I' for Inactive)
REMARK    1  A    between atoms: C_2  and  O_3
REMARK    2  A    between atoms: C_2  and  C_20
REMARK    3  A    between atoms: O_3  and  C_4
REMARK    4  A    between atoms: C_4  and  C_5
REMARK    5  A    between atoms: C_5  and  C_6
REMARK    6  A    between atoms: C_6  and  N_7
REMARK    7  A    between atoms: N_10  and  C_11
REMARK                            x       y       z     vdW  Elec       q    Type
REMARK                         _______ _______ _______ _____ _____    ______ ____
ROOT
ATOM      1  C   UNL     1       1.179   9.350  18.008  0.00  0.00    +0.000 C 
ENDROOT
BRANCH   1   2
ATOM      2  C   UNL     1       2.454   8.564  17.741  0.00  0.00    +0.000 C 
BRANCH   2   3
ATOM      3  O   UNL     1       2.212   7.149  17.832  0.00  0.00    +0.000 OA
BRANCH   3   5
ATOM      4  O   UNL     1       4.441   6.656  18.092  0.00  0.00    +0.000 OA
ATOM      5  C   UNL     1       3.259   6.340  18.170  0.00  0.00    +0.000 C 
BRANCH   5   6
ATOM      6  C   UNL     1       2.749   5.007  18.729  0.00  0.00    +0.000 C 
ATOM      7  C   UNL     1       3.945   4.029  18.830  0.00  0.00    +0.000 C 
ATOM      8  C   UNL     1       3.505   2.702  19.469  0.00  0.00    +0.000 C 
ATOM      9  C   UNL     1       2.915   2.991  20.862  0.00  0.00    +0.000 C 
ATOM     10  C   UNL     1       1.669   3.884  20.735  0.00  0.00    +0.000 C 
ATOM     11  C   UNL     1       2.080   5.221  20.112  0.00  0.00    +0.000 C 
ATOM     12  C   UNL     1       0.629   3.217  19.824  0.00  0.00    +0.000 C 
ATOM     13  C   UNL     1       1.231   2.988  18.428  0.00  0.00    +0.000 C 
ATOM     14  C   UNL     1       1.689   4.335  17.819  0.00  0.00    +0.000 C 
ATOM     15  C   UNL     1       2.439   2.045  18.579  0.00  0.00    +0.000 C 
ENDBRANCH   5   6
ENDBRANCH   3   5
ENDBRANCH   2   3
ENDBRANCH   1   2
BRANCH   1  16
ATOM     16  C   UNL     1       1.064   9.849  19.453  0.00  0.00    +0.000 C 
BRANCH  16  17
ATOM     17  N   UNL     1       1.048  11.311  19.605  0.00  0.00    +0.000 NA
ATOM     18  C   UNL     1      -0.032  11.974  18.831  0.00  0.00    +0.000 C 
ATOM     19  C   UNL     1      -1.474  11.762  19.355  0.00  0.00    +0.000 C 
ATOM     20  N   UNL     1      -1.545  12.069  20.795  0.00  0.00    +0.000 N 
ATOM     21  C   UNL     1      -0.518  11.406  21.619  0.00  0.00    +0.000 C 
ATOM     22  C   UNL     1       0.882  11.694  21.031  0.00  0.00    +0.000 C 
BRANCH  20  23
ATOM     23  C   UNL     1      -2.706  12.548  21.376  0.00  0.00    +0.000 A 
ATOM     24  C   UNL     1      -3.595  13.400  20.708  0.00  0.00    +0.000 A 
ATOM     25  C   UNL     1      -4.725  13.936  21.336  0.00  0.00    +0.000 A 
ATOM     26  C   UNL     1      -4.992  13.624  22.667  0.00  0.00    +0.000 A 
ATOM     27  C   UNL     1      -4.129  12.776  23.353  0.00  0.00    +0.000 A 
ATOM     28 CL   UNL     1      -4.433  12.398  25.002  0.00  0.00    +0.000 Cl
ATOM     29  C   UNL     1      -3.004  12.248  22.718  0.00  0.00    +0.000 A 
ENDBRANCH  20  23
ENDBRANCH  16  17
ENDBRANCH   1  16
TORSDOF 7
ENDMDL
MODEL 7
REMARK VINA RESULT:      -7.9      1.355      2.233
REMARK  Name = 
REMARK  7 active torsions:
REMARK  status: ('A' for Active; 'I' for Inactive)
REMARK    1  A    between atoms: C_2  and  O_3
REMARK    2  A    between atoms: C_2  and  C_20
REMARK    3  A    between atoms: O_3  and  C_4
REMARK    4  A    between atoms: C_4  and  C_5
REMARK    5  A    between atoms: C_5  and  C_6
REMARK    6  A    between atoms: C_6  and  N_7
REMARK    7  A    between atoms: N_10  and  C_11
REMARK                            x       y       z     vdW  Elec       q    Type
REMARK                         _______ _______ _______ _____ _____    ______ ____
ROOT
ATOM      1  C   UNL     1       1.627   8.903  19.242  0.00  0.00    +0.000 C 
ENDROOT
BRANCH   1   2
ATOM      2  C   UNL     1       2.355   8.280  18.060  0.00  0.00    +0.000 C 
BRANCH   2   3
ATOM      3  O   UNL     1       2.184   6.851  18.049  0.00  0.00    +0.000 OA
BRANCH   3   5
ATOM      4  O   UNL     1       4.443   6.438  17.969  0.00  0.00    +0.000 OA
ATOM      5  C   UNL     1       3.295   6.072  18.197  0.00  0.00    +0.000 C 
BRANCH   5   6
ATOM      6  C   UNL     1       2.915   4.696  18.760  0.00  0.00    +0.000 C 
ATOM      7  C   UNL     1       1.913   4.903  19.921  0.00  0.00    +0.000 C 
ATOM      8  C   UNL     1       1.430   3.548  20.465  0.00  0.00    +0.000 C 
ATOM      9  C   UNL     1       0.783   2.752  19.316  0.00  0.00    +0.000 C 
ATOM     10  C   UNL     1       1.819   2.472  18.215  0.00  0.00    +0.000 C 
ATOM     11  C   UNL     1       2.308   3.806  17.644  0.00  0.00    +0.000 C 
ATOM     12  C   UNL     1       3.022   1.716  18.798  0.00  0.00    +0.000 C 
ATOM     13  C   UNL     1       3.677   2.557  19.906  0.00  0.00    +0.000 C 
ATOM     14  C   UNL     1       4.129   3.924  19.338  0.00  0.00    +0.000 C 
ATOM     15  C   UNL     1       2.635   2.772  21.019  0.00  0.00    +0.000 C 
ENDBRANCH   5   6
ENDBRANCH   3   5
ENDBRANCH   2   3
ENDBRANCH   1   2
BRANCH   1  16
ATOM     16  C   UNL     1       0.530   9.890  18.827  0.00  0.00    +0.000 C 
BRANCH  16  17
ATOM     17  N   UNL     1       0.733  11.272  19.285  0.00  0.00    +0.000 NA
ATOM     18  C   UNL     1      -0.340  12.203  18.853  0.00  0.00    +0.000 C 
ATOM     19  C   UNL     1      -1.715  12.025  19.546  0.00  0.00    +0.000 C 
ATOM     20  N   UNL     1      -1.550  11.999  21.010  0.00  0.00    +0.000 N 
ATOM     21  C   UNL     1      -0.521  11.062  21.499  0.00  0.00    +0.000 C 
ATOM     22  C   UNL     1       0.814  11.333  20.768  0.00  0.00    +0.000 C 
BRANCH  20  23
ATOM     23  C   UNL     1      -2.546  12.448  21.859  0.00  0.00    +0.000 A 
ATOM     24  C   UNL     1      -2.638  12.049  23.199  0.00  0.00    +0.000 A 
ATOM     25  C   UNL     1      -3.695  12.452  24.023  0.00  0.00    +0.000 A 
ATOM     26  C   UNL     1      -4.698  13.273  23.513  0.00  0.00    +0.000 A 
ATOM     27  C   UNL     1      -4.629  13.687  22.188  0.00  0.00    +0.000 A 
ATOM     28 CL   UNL     1      -5.870  14.684  21.537  0.00  0.00    +0.000 Cl
ATOM     29  C   UNL     1      -3.571  13.280  21.374  0.00  0.00    +0.000 A 
ENDBRANCH  20  23
ENDBRANCH  16  17
ENDBRANCH   1  16
TORSDOF 7
ENDMDL
MODEL 8
REMARK VINA RESULT:      -7.9      6.972     10.842
REMARK  Name = 
REMARK  7 active torsions:
REMARK  status: ('A' for Active; 'I' for Inactive)
REMARK    1  A    between atoms: C_2  and  O_3
REMARK    2  A    between atoms: C_2  and  C_20
REMARK    3  A    between atoms: O_3  and  C_4
REMARK    4  A    between atoms: C_4  and  C_5
REMARK    5  A    between atoms: C_5  and  C_6
REMARK    6  A    between atoms: C_6  and  N_7
REMARK    7  A    between atoms: N_10  and  C_11
REMARK                            x       y       z     vdW  Elec       q    Type
REMARK                         _______ _______ _______ _____ _____    ______ ____
ROOT
ATOM      1  C   UNL     1       8.526   8.336  18.335  0.00  0.00    +0.000 C 
ENDROOT
BRANCH   1   2
ATOM      2  C   UNL     1       8.582   9.856  18.320  0.00  0.00    +0.000 C 
BRANCH   2   3
ATOM      3  O   UNL     1       9.181  10.358  19.528  0.00  0.00    +0.000 OA
BRANCH   3   5
ATOM      4  O   UNL     1      11.224  11.140  18.822  0.00  0.00    +0.000 OA
ATOM      5  C   UNL     1      10.161  11.302  19.412  0.00  0.00    +0.000 C 
BRANCH   5   6
ATOM      6  C   UNL     1       9.716  12.619  20.059  0.00  0.00    +0.000 C 
ATOM      7  C   UNL     1       8.851  13.398  19.040  0.00  0.00    +0.000 C 
ATOM      8  C   UNL     1       8.304  14.689  19.670  0.00  0.00    +0.000 C 
ATOM      9  C   UNL     1       7.484  14.324  20.921  0.00  0.00    +0.000 C 
ATOM     10  C   UNL     1       8.382  13.639  21.964  0.00  0.00    +0.000 C 
ATOM     11  C   UNL     1       8.931  12.340  21.368  0.00  0.00    +0.000 C 
ATOM     12  C   UNL     1       9.564  14.551  22.327  0.00  0.00    +0.000 C 
ATOM     13  C   UNL     1      10.392  14.855  21.068  0.00  0.00    +0.000 C 
ATOM     14  C   UNL     1      10.907  13.537  20.440  0.00  0.00    +0.000 C 
ATOM     15  C   UNL     1       9.483  15.591  20.067  0.00  0.00    +0.000 C 
ENDBRANCH   5   6
ENDBRANCH   3   5
ENDBRANCH   2   3
ENDBRANCH   1   2
BRANCH   1  16
ATOM     16  C   UNL     1       7.381   7.762  17.492  0.00  0.00    +0.000 C 
BRANCH  16  17
ATOM     17  N   UNL     1       7.449   6.312  17.258  0.00  0.00    +0.000 NA
ATOM     18  C   UNL     1       7.314   5.506  18.497  0.00  0.00    +0.000 C 
ATOM     19  C   UNL     1       5.904   5.478  19.140  0.00  0.00    +0.000 C 
ATOM     20  N   UNL     1       4.888   5.132  18.130  0.00  0.00    +0.000 N 
ATOM     21  C   UNL     1       4.952   5.930  16.891  0.00  0.00    +0.000 C 
ATOM     22  C   UNL     1       6.386   5.876  16.316  0.00  0.00    +0.000 C 
BRANCH  20  23
ATOM     23  C   UNL     1       3.724   4.465  18.473  0.00  0.00    +0.000 A 
ATOM     24  C   UNL     1       2.708   4.190  17.549  0.00  0.00    +0.000 A 
ATOM     25  C   UNL     1       1.505   3.583  17.928  0.00  0.00    +0.000 A 
ATOM     26  C   UNL     1       1.292   3.235  19.259  0.00  0.00    +0.000 A 
ATOM     27  C   UNL     1       2.287   3.492  20.196  0.00  0.00    +0.000 A 
ATOM     28 CL   UNL     1       2.033   3.088  21.848  0.00  0.00    +0.000 Cl
ATOM     29  C   UNL     1       3.483   4.099  19.809  0.00  0.00    +0.000 A 
ENDBRANCH  20  23
ENDBRANCH  16  17
ENDBRANCH   1  16
TORSDOF 7
ENDMDL
MODEL 9
REMARK VINA RESULT:      -7.9      0.860      1.819
REMARK  Name = 
REMARK  7 active torsions:
REMARK  status: ('A' for Active; 'I' for Inactive)
REMARK    1  A    between atoms: C_2  and  O_3
REMARK    2  A    between atoms: C_2  and  C_20
REMARK    3  A    between atoms: O_3  and  C_4
REMARK    4  A    between atoms: C_4  and  C_5
REMARK    5  A    between atoms: C_5  and  C_6
REMARK    6  A    between atoms: C_6  and  N_7
REMARK    7  A    between atoms: N_10  and  C_11
REMARK                            x       y       z     vdW  Elec       q    Type
REMARK                         _______ _______ _______ _____ _____    ______ ____
ROOT
ATOM      1  C   UNL     1       1.078   9.264  18.122  0.00  0.00    +0.000 C 
ENDROOT
BRANCH   1   2
ATOM      2  C   UNL     1       2.279   8.619  18.796  0.00  0.00    +0.000 C 
BRANCH   2   3
ATOM      3  O   UNL     1       2.046   7.217  19.026  0.00  0.00    +0.000 OA
BRANCH   3   5
ATOM      4  O   UNL     1       3.760   6.612  17.621  0.00  0.00    +0.000 OA
ATOM      5  C   UNL     1       2.891   6.322  18.436  0.00  0.00    +0.000 C 
BRANCH   5   6
ATOM      6  C   UNL     1       2.651   4.912  18.989  0.00  0.00    +0.000 C 
ATOM      7  C   UNL     1       1.744   5.024  20.238  0.00  0.00    +0.000 C 
ATOM      8  C   UNL     1       1.398   3.628  20.782  0.00  0.00    +0.000 C 
ATOM      9  C   UNL     1       0.706   2.817  19.670  0.00  0.00    +0.000 C 
ATOM     10  C   UNL     1       1.658   2.632  18.477  0.00  0.00    +0.000 C 
ATOM     11  C   UNL     1       2.008   4.008  17.905  0.00  0.00    +0.000 C 
ATOM     12  C   UNL     1       2.953   1.945  18.933  0.00  0.00    +0.000 C 
ATOM     13  C   UNL     1       3.647   2.802  20.005  0.00  0.00    +0.000 C 
ATOM     14  C   UNL     1       3.958   4.210  19.440  0.00  0.00    +0.000 C 
ATOM     15  C   UNL     1       2.694   2.922  21.209  0.00  0.00    +0.000 C 
ENDBRANCH   5   6
ENDBRANCH   3   5
ENDBRANCH   2   3
ENDBRANCH   1   2
BRANCH   1  16
ATOM     16  C   UNL     1       0.314  10.229  19.035  0.00  0.00    +0.000 C 
BRANCH  16  17
ATOM     17  N   UNL     1       1.073  10.717  20.195  0.00  0.00    +0.000 NA
ATOM     18  C   UNL     1       1.082  12.197  20.316  0.00  0.00    +0.000 C 
ATOM     19  C   UNL     1      -0.257  12.853  20.737  0.00  0.00    +0.000 C 
ATOM     20  N   UNL     1      -0.793  12.195  21.942  0.00  0.00    +0.000 N 
ATOM     21  C   UNL     1      -0.861  10.724  21.863  0.00  0.00    +0.000 C 
ATOM     22  C   UNL     1       0.523  10.163  21.460  0.00  0.00    +0.000 C 
BRANCH  20  23
ATOM     23  C   UNL     1      -1.571  12.882  22.857  0.00  0.00    +0.000 A 
ATOM     24  C   UNL     1      -1.188  14.112  23.407  0.00  0.00    +0.000 A 
ATOM     25  C   UNL     1      -1.950  14.756  24.388  0.00  0.00    +0.000 A 
ATOM     26  C   UNL     1      -3.129  14.173  24.846  0.00  0.00    +0.000 A 
ATOM     27  C   UNL     1      -3.535  12.955  24.313  0.00  0.00    +0.000 A 
ATOM     28 CL   UNL     1      -4.977  12.210  24.881  0.00  0.00    +0.000 Cl
ATOM     29  C   UNL     1      -2.768  12.319  23.336  0.00  0.00    +0.000 A 
ENDBRANCH  20  23
ENDBRANCH  16  17
ENDBRANCH   1  16
TORSDOF 7
ENDMDL
