MODEL 1
REMARK VINA RESULT:      -9.4      0.000      0.000
REMARK  Name = 
REMARK  7 active torsions:
REMARK  status: ('A' for Active; 'I' for Inactive)
REMARK    1  A    between atoms: C_2  and  C_3
REMARK    2  A    between atoms: C_5  and  S_6
REMARK    3  A    between atoms: S_6  and  N_9
REMARK    4  A    between atoms: C_17  and  O_18
REMARK    5  A    between atoms: O_18  and  C_19
REMARK    6  A    between atoms: C_23  and  C_24
REMARK    7  A    between atoms: C_28  and  N_29
REMARK                            x       y       z     vdW  Elec       q    Type
REMARK                         _______ _______ _______ _____ _____    ______ ____
ROOT
ATOM      1  C   UNL     1       2.050   5.252  20.467  0.00  0.00    +0.000 A 
ATOM      2  C   UNL     1       1.488   6.386  21.072  0.00  0.00    +0.000 A 
ATOM      3  C   UNL     1       1.570   7.636  20.451  0.00  0.00    +0.000 A 
ATOM      4  C   UNL     1       2.175   7.768  19.204  0.00  0.00    +0.000 A 
ATOM      5  C   UNL     1       2.692   6.631  18.578  0.00  0.00    +0.000 A 
ATOM      6  C   UNL     1       2.613   5.366  19.185  0.00  0.00    +0.000 A 
ENDROOT
BRANCH   3   7
ATOM      7  S   UNL     1       0.817   9.036  21.250  0.00  0.00    +0.000 S 
ATOM      8  O   UNL     1      -0.559   8.682  21.527  0.00  0.00    +0.000 OA
ATOM      9  O   UNL     1       1.712   9.452  22.305  0.00  0.00    +0.000 OA
BRANCH   7  10
ATOM     10  N   UNL     1       0.765  10.164  19.988  0.00  0.00    +0.000 N 
ATOM     11  C   UNL     1      -0.167  11.193  20.242  0.00  0.00    +0.000 A 
ATOM     12  N   UNL     1      -1.340  11.144  19.665  0.00  0.00    +0.000 NA
ATOM     13  C   UNL     1      -2.084  12.235  20.079  0.00  0.00    +0.000 A 
ATOM     14  C   UNL     1      -1.413  13.150  20.864  0.00  0.00    +0.000 A 
ATOM     15  S   UNL     1       0.186  12.598  21.147  0.00  0.00    +0.000 S 
ATOM     16  H   UNL     1       0.462   9.642  19.164  0.00  0.00    +0.000 HD
ENDBRANCH   7  10
ENDBRANCH   3   7
BRANCH   1  18
ATOM     17  N   UNL     1       2.078   3.097  21.913  0.00  0.00    +0.000 NA
ATOM     18  C   UNL     1       2.043   4.044  21.239  0.00  0.00    +0.000 C 
ENDBRANCH   1  18
BRANCH   6  19
ATOM     19  O   UNL     1       3.217   4.371  18.447  0.00  0.00    +0.000 OA
BRANCH  19  20
ATOM     20  C   UNL     1       4.495   4.514  17.959  0.00  0.00    +0.000 A 
ATOM     21  C   UNL     1       5.494   4.592  18.931  0.00  0.00    +0.000 A 
ATOM     22  C   UNL     1       6.829   4.683  18.553  0.00  0.00    +0.000 A 
ATOM     23  C   UNL     1       7.166   4.677  17.199  0.00  0.00    +0.000 A 
ATOM     24  C   UNL     1       6.178   4.627  16.196  0.00  0.00    +0.000 A 
ATOM     25  C   UNL     1       4.830   4.611  16.605  0.00  0.00    +0.000 A 
BRANCH  24  26
ATOM     26  C   UNL     1       6.541   4.569  14.767  0.00  0.00    +0.000 A 
ATOM     27  C   UNL     1       5.888   3.721  13.870  0.00  0.00    +0.000 A 
ATOM     28  C   UNL     1       6.315   3.671  12.549  0.00  0.00    +0.000 A 
ATOM     29  C   UNL     1       7.375   4.476  12.156  0.00  0.00    +0.000 A 
ATOM     30  C   UNL     1       7.950   5.325  13.088  0.00  0.00    +0.000 A 
ATOM     31  N   UNL     1       7.553   5.385  14.372  0.00  0.00    +0.000 NA
BRANCH  30  32
ATOM     32  N   UNL     1       9.032   6.127  12.731  0.00  0.00    +0.000 N 
ATOM     33  H   UNL     1       9.176   6.885  13.388  0.00  0.00    +0.000 HD
ATOM     34  H   UNL     1       9.843   5.519  12.659  0.00  0.00    +0.000 HD
ENDBRANCH  30  32
ENDBRANCH  24  26
ENDBRANCH  19  20
ENDBRANCH   6  19
TORSDOF 7
ENDMDL
MODEL 2
REMARK VINA RESULT:      -9.1      1.212      1.545
REMARK  Name = 
REMARK  7 active torsions:
REMARK  status: ('A' for Active; 'I' for Inactive)
REMARK    1  A    between atoms: C_2  and  C_3
REMARK    2  A    between atoms: C_5  and  S_6
REMARK    3  A    between atoms: S_6  and  N_9
REMARK    4  A    between atoms: C_17  and  O_18
REMARK    5  A    between atoms: O_18  and  C_19
REMARK    6  A    between atoms: C_23  and  C_24
REMARK    7  A    between atoms: C_28  and  N_29
REMARK                            x       y       z     vdW  Elec       q    Type
REMARK                         _______ _______ _______ _____ _____    ______ ____
ROOT
ATOM      1  C   UNL     1       2.138   5.530  20.196  0.00  0.00    +0.000 A 
ATOM      2  C   UNL     1       1.597   6.659  20.829  0.00  0.00    +0.000 A 
ATOM      3  C   UNL     1       1.608   7.903  20.192  0.00  0.00    +0.000 A 
ATOM      4  C   UNL     1       2.118   8.034  18.903  0.00  0.00    +0.000 A 
ATOM      5  C   UNL     1       2.612   6.902  18.252  0.00  0.00    +0.000 A 
ATOM      6  C   UNL     1       2.604   5.641  18.875  0.00  0.00    +0.000 A 
ENDROOT
BRANCH   3   7
ATOM      7  S   UNL     1       0.886   9.296  21.030  0.00  0.00    +0.000 S 
ATOM      8  O   UNL     1      -0.521   9.006  21.211  0.00  0.00    +0.000 OA
ATOM      9  O   UNL     1       1.740   9.602  22.155  0.00  0.00    +0.000 OA
BRANCH   7  10
ATOM     10  N   UNL     1       0.966  10.494  19.836  0.00  0.00    +0.000 N 
ATOM     11  C   UNL     1      -0.314  10.833  19.345  0.00  0.00    +0.000 A 
ATOM     12  N   UNL     1      -0.708  10.333  18.202  0.00  0.00    +0.000 NA
ATOM     13  C   UNL     1      -1.990  10.782  17.942  0.00  0.00    +0.000 A 
ATOM     14  C   UNL     1      -2.491  11.709  18.833  0.00  0.00    +0.000 A 
ATOM     15  S   UNL     1      -1.343  11.984  20.077  0.00  0.00    +0.000 S 
ATOM     16  H   UNL     1       1.513  10.090  19.075  0.00  0.00    +0.000 HD
ENDBRANCH   7  10
ENDBRANCH   3   7
BRANCH   1  18
ATOM     17  N   UNL     1       2.207   3.370  21.632  0.00  0.00    +0.000 NA
ATOM     18  C   UNL     1       2.212   4.331  20.977  0.00  0.00    +0.000 C 
ENDBRANCH   1  18
BRANCH   6  19
ATOM     19  O   UNL     1       3.174   4.651  18.105  0.00  0.00    +0.000 OA
BRANCH  19  20
ATOM     20  C   UNL     1       4.468   4.749  17.652  0.00  0.00    +0.000 A 
ATOM     21  C   UNL     1       5.436   4.880  18.650  0.00  0.00    +0.000 A 
ATOM     22  C   UNL     1       6.784   4.932  18.314  0.00  0.00    +0.000 A 
ATOM     23  C   UNL     1       7.165   4.834  16.975  0.00  0.00    +0.000 A 
ATOM     24  C   UNL     1       6.211   4.729  15.945  0.00  0.00    +0.000 A 
ATOM     25  C   UNL     1       4.851   4.753  16.307  0.00  0.00    +0.000 A 
BRANCH  24  26
ATOM     26  C   UNL     1       6.621   4.573  14.535  0.00  0.00    +0.000 A 
ATOM     27  C   UNL     1       7.561   5.416  13.939  0.00  0.00    +0.000 A 
ATOM     28  C   UNL     1       7.862   5.255  12.593  0.00  0.00    +0.000 A 
ATOM     29  C   UNL     1       7.223   4.249  11.880  0.00  0.00    +0.000 A 
ATOM     30  C   UNL     1       6.333   3.421  12.544  0.00  0.00    +0.000 A 
ATOM     31  N   UNL     1       6.026   3.565  13.846  0.00  0.00    +0.000 NA
BRANCH  30  32
ATOM     32  N   UNL     1       5.658   2.419  11.851  0.00  0.00    +0.000 N 
ATOM     33  H   UNL     1       5.123   1.822  12.471  0.00  0.00    +0.000 HD
ATOM     34  H   UNL     1       5.074   2.878  11.157  0.00  0.00    +0.000 HD
ENDBRANCH  30  32
ENDBRANCH  24  26
ENDBRANCH  19  20
ENDBRANCH   6  19
TORSDOF 7
ENDMDL
MODEL 3
REMARK VINA RESULT:      -8.8      0.977      1.314
REMARK  Name = 
REMARK  7 active torsions:
REMARK  status: ('A' for Active; 'I' for Inactive)
REMARK    1  A    between atoms: C_2  and  C_3
REMARK    2  A    between atoms: C_5  and  S_6
REMARK    3  A    between atoms: S_6  and  N_9
REMARK    4  A    between atoms: C_17  and  O_18
REMARK    5  A    between atoms: O_18  and  C_19
REMARK    6  A    between atoms: C_23  and  C_24
REMARK    7  A    between atoms: C_28  and  N_29
REMARK                            x       y       z     vdW  Elec       q    Type
REMARK                         _______ _______ _______ _____ _____    ______ ____
ROOT
ATOM      1  C   UNL     1       2.196   5.189  20.380  0.00  0.00    +0.000 A 
ATOM      2  C   UNL     1       1.595   6.306  20.979  0.00  0.00    +0.000 A 
ATOM      3  C   UNL     1       1.617   7.551  20.344  0.00  0.00    +0.000 A 
ATOM      4  C   UNL     1       2.200   7.693  19.087  0.00  0.00    +0.000 A 
ATOM      5  C   UNL     1       2.755   6.572  18.467  0.00  0.00    +0.000 A 
ATOM      6  C   UNL     1       2.737   5.311  19.089  0.00  0.00    +0.000 A 
ENDROOT
BRANCH   3   7
ATOM      7  S   UNL     1       0.817   8.927  21.136  0.00  0.00    +0.000 S 
ATOM      8  O   UNL     1      -0.482   8.469  21.583  0.00  0.00    +0.000 OA
ATOM      9  O   UNL     1       1.771   9.496  22.061  0.00  0.00    +0.000 OA
BRANCH   7  10
ATOM     10  N   UNL     1       0.523   9.956  19.824  0.00  0.00    +0.000 N 
ATOM     11  C   UNL     1       0.021  11.208  20.240  0.00  0.00    +0.000 A 
ATOM     12  N   UNL     1      -1.263  11.440  20.150  0.00  0.00    +0.000 NA
ATOM     13  C   UNL     1      -1.518  12.711  20.634  0.00  0.00    +0.000 A 
ATOM     14  C   UNL     1      -0.406  13.458  20.965  0.00  0.00    +0.000 A 
ATOM     15  S   UNL     1       1.007  12.518  20.722  0.00  0.00    +0.000 S 
ATOM     16  H   UNL     1      -0.189   9.488  19.261  0.00  0.00    +0.000 HD
ENDBRANCH   7  10
ENDBRANCH   3   7
BRANCH   1  18
ATOM     17  N   UNL     1       2.331   2.991  21.751  0.00  0.00    +0.000 NA
ATOM     18  C   UNL     1       2.249   3.992  21.165  0.00  0.00    +0.000 C 
ENDBRANCH   1  18
BRANCH   6  19
ATOM     19  O   UNL     1       3.373   4.333  18.355  0.00  0.00    +0.000 OA
BRANCH  19  20
ATOM     20  C   UNL     1       4.634   4.527  17.843  0.00  0.00    +0.000 A 
ATOM     21  C   UNL     1       5.636   4.723  18.795  0.00  0.00    +0.000 A 
ATOM     22  C   UNL     1       6.959   4.874  18.395  0.00  0.00    +0.000 A 
ATOM     23  C   UNL     1       7.283   4.809  17.040  0.00  0.00    +0.000 A 
ATOM     24  C   UNL     1       6.291   4.638  16.055  0.00  0.00    +0.000 A 
ATOM     25  C   UNL     1       4.951   4.563  16.481  0.00  0.00    +0.000 A 
BRANCH  24  26
ATOM     26  C   UNL     1       6.644   4.518  14.626  0.00  0.00    +0.000 A 
ATOM     27  C   UNL     1       7.565   5.371  14.016  0.00  0.00    +0.000 A 
ATOM     28  C   UNL     1       7.811   5.243  12.655  0.00  0.00    +0.000 A 
ATOM     29  C   UNL     1       7.138   4.261  11.941  0.00  0.00    +0.000 A 
ATOM     30  C   UNL     1       6.268   3.421  12.619  0.00  0.00    +0.000 A 
ATOM     31  N   UNL     1       6.015   3.532  13.935  0.00  0.00    +0.000 NA
BRANCH  30  32
ATOM     32  N   UNL     1       5.560   2.441  11.927  0.00  0.00    +0.000 N 
ATOM     33  H   UNL     1       5.982   1.526  12.026  0.00  0.00    +0.000 HD
ATOM     34  H   UNL     1       4.604   2.466  12.271  0.00  0.00    +0.000 HD
ENDBRANCH  30  32
ENDBRANCH  24  26
ENDBRANCH  19  20
ENDBRANCH   6  19
TORSDOF 7
ENDMDL
MODEL 4
REMARK VINA RESULT:      -8.7      1.651      2.031
REMARK  Name = 
REMARK  7 active torsions:
REMARK  status: ('A' for Active; 'I' for Inactive)
REMARK    1  A    between atoms: C_2  and  C_3
REMARK    2  A    between atoms: C_5  and  S_6
REMARK    3  A    between atoms: S_6  and  N_9
REMARK    4  A    between atoms: C_17  and  O_18
REMARK    5  A    between atoms: O_18  and  C_19
REMARK    6  A    between atoms: C_23  and  C_24
REMARK    7  A    between atoms: C_28  and  N_29
REMARK                            x       y       z     vdW  Elec       q    Type
REMARK                         _______ _______ _______ _____ _____    ______ ____
ROOT
ATOM      1  C   UNL     1       2.103   6.162  19.927  0.00  0.00    +0.000 A 
ATOM      2  C   UNL     1       1.618   7.376  20.435  0.00  0.00    +0.000 A 
ATOM      3  C   UNL     1       1.694   8.545  19.673  0.00  0.00    +0.000 A 
ATOM      4  C   UNL     1       2.214   8.516  18.382  0.00  0.00    +0.000 A 
ATOM      5  C   UNL     1       2.653   7.299  17.856  0.00  0.00    +0.000 A 
ATOM      6  C   UNL     1       2.579   6.112  18.606  0.00  0.00    +0.000 A 
ENDROOT
BRANCH   3   7
ATOM      7  S   UNL     1       1.041  10.052  20.357  0.00  0.00    +0.000 S 
ATOM      8  O   UNL     1       1.384  10.069  21.763  0.00  0.00    +0.000 OA
ATOM      9  O   UNL     1       1.439  11.125  19.474  0.00  0.00    +0.000 OA
BRANCH   7  10
ATOM     10  N   UNL     1      -0.627   9.766  20.287  0.00  0.00    +0.000 N 
ATOM     11  C   UNL     1      -1.236  10.468  19.224  0.00  0.00    +0.000 A 
ATOM     12  N   UNL     1      -1.878  11.578  19.482  0.00  0.00    +0.000 NA
ATOM     13  C   UNL     1      -2.364  12.095  18.295  0.00  0.00    +0.000 A 
ATOM     14  C   UNL     1      -2.185  11.301  17.180  0.00  0.00    +0.000 A 
ATOM     15  S   UNL     1      -1.323   9.885  17.620  0.00  0.00    +0.000 S 
ATOM     16  H   UNL     1      -1.004  10.114  21.169  0.00  0.00    +0.000 HD
ENDBRANCH   7  10
ENDBRANCH   3   7
BRANCH   1  18
ATOM     17  N   UNL     1       2.191   4.139  21.549  0.00  0.00    +0.000 NA
ATOM     18  C   UNL     1       2.113   5.048  20.828  0.00  0.00    +0.000 C 
ENDBRANCH   1  18
BRANCH   6  19
ATOM     19  O   UNL     1       3.101   5.020  17.947  0.00  0.00    +0.000 OA
BRANCH  19  20
ATOM     20  C   UNL     1       4.410   4.992  17.529  0.00  0.00    +0.000 A 
ATOM     21  C   UNL     1       5.359   5.025  18.552  0.00  0.00    +0.000 A 
ATOM     22  C   UNL     1       6.714   4.946  18.251  0.00  0.00    +0.000 A 
ATOM     23  C   UNL     1       7.119   4.814  16.922  0.00  0.00    +0.000 A 
ATOM     24  C   UNL     1       6.187   4.806  15.867  0.00  0.00    +0.000 A 
ATOM     25  C   UNL     1       4.826   4.962  16.194  0.00  0.00    +0.000 A 
BRANCH  24  26
ATOM     26  C   UNL     1       6.616   4.615  14.467  0.00  0.00    +0.000 A 
ATOM     27  C   UNL     1       7.571   5.437  13.866  0.00  0.00    +0.000 A 
ATOM     28  C   UNL     1       7.890   5.242  12.529  0.00  0.00    +0.000 A 
ATOM     29  C   UNL     1       7.255   4.225  11.830  0.00  0.00    +0.000 A 
ATOM     30  C   UNL     1       6.349   3.418  12.500  0.00  0.00    +0.000 A 
ATOM     31  N   UNL     1       6.025   3.595  13.793  0.00  0.00    +0.000 NA
BRANCH  30  32
ATOM     32  N   UNL     1       5.678   2.405  11.820  0.00  0.00    +0.000 N 
ATOM     33  H   UNL     1       5.914   1.487  12.177  0.00  0.00    +0.000 HD
ATOM     34  H   UNL     1       4.684   2.605  11.893  0.00  0.00    +0.000 HD
ENDBRANCH  30  32
ENDBRANCH  24  26
ENDBRANCH  19  20
ENDBRANCH   6  19
TORSDOF 7
ENDMDL
MODEL 5
REMARK VINA RESULT:      -8.3      2.663      4.212
REMARK  Name = 
REMARK  7 active torsions:
REMARK  status: ('A' for Active; 'I' for Inactive)
REMARK    1  A    between atoms: C_2  and  C_3
REMARK    2  A    between atoms: C_5  and  S_6
REMARK    3  A    between atoms: S_6  and  N_9
REMARK    4  A    between atoms: C_17  and  O_18
REMARK    5  A    between atoms: O_18  and  C_19
REMARK    6  A    between atoms: C_23  and  C_24
REMARK    7  A    between atoms: C_28  and  N_29
REMARK                            x       y       z     vdW  Elec       q    Type
REMARK                         _______ _______ _______ _____ _____    ______ ____
ROOT
ATOM      1  C   UNL     1       0.419   9.559  21.190  0.00  0.00    +0.000 A 
ATOM      2  C   UNL     1      -0.360  10.535  20.550  0.00  0.00    +0.000 A 
ATOM      3  C   UNL     1      -0.273  10.717  19.167  0.00  0.00    +0.000 A 
ATOM      4  C   UNL     1       0.555   9.905  18.397  0.00  0.00    +0.000 A 
ATOM      5  C   UNL     1       1.294   8.901  19.026  0.00  0.00    +0.000 A 
ATOM      6  C   UNL     1       1.216   8.700  20.416  0.00  0.00    +0.000 A 
ENDROOT
BRANCH   3   7
ATOM      7  S   UNL     1      -1.302  11.951  18.403  0.00  0.00    +0.000 S 
ATOM      8  O   UNL     1      -1.912  11.340  17.240  0.00  0.00    +0.000 OA
ATOM      9  O   UNL     1      -2.105  12.539  19.450  0.00  0.00    +0.000 OA
BRANCH   7  10
ATOM     10  N   UNL     1      -0.149  13.039  17.808  0.00  0.00    +0.000 N 
ATOM     11  C   UNL     1       0.172  14.034  18.756  0.00  0.00    +0.000 A 
ATOM     12  N   UNL     1      -0.368  15.220  18.641  0.00  0.00    +0.000 NA
ATOM     13  C   UNL     1       0.071  16.011  19.686  0.00  0.00    +0.000 A 
ATOM     14  C   UNL     1       1.031  15.445  20.501  0.00  0.00    +0.000 A 
ATOM     15  S   UNL     1       1.351  13.843  19.979  0.00  0.00    +0.000 S 
ATOM     16  H   UNL     1      -0.581  13.484  16.998  0.00  0.00    +0.000 HD
ENDBRANCH   7  10
ENDBRANCH   3   7
BRANCH   1  18
ATOM     17  N   UNL     1       0.390   9.483  23.784  0.00  0.00    +0.000 NA
ATOM     18  C   UNL     1       0.372   9.540  22.623  0.00  0.00    +0.000 C 
ENDBRANCH   1  18
BRANCH   6  19
ATOM     19  O   UNL     1       2.049   7.700  20.868  0.00  0.00    +0.000 OA
BRANCH  19  20
ATOM     20  C   UNL     1       2.281   6.568  20.124  0.00  0.00    +0.000 A 
ATOM     21  C   UNL     1       1.338   5.550  20.286  0.00  0.00    +0.000 A 
ATOM     22  C   UNL     1       1.440   4.380  19.543  0.00  0.00    +0.000 A 
ATOM     23  C   UNL     1       2.477   4.235  18.621  0.00  0.00    +0.000 A 
ATOM     24  C   UNL     1       3.458   5.233  18.455  0.00  0.00    +0.000 A 
ATOM     25  C   UNL     1       3.374   6.376  19.274  0.00  0.00    +0.000 A 
BRANCH  24  26
ATOM     26  C   UNL     1       4.524   5.098  17.442  0.00  0.00    +0.000 A 
ATOM     27  C   UNL     1       4.534   4.058  16.511  0.00  0.00    +0.000 A 
ATOM     28  C   UNL     1       5.595   3.953  15.622  0.00  0.00    +0.000 A 
ATOM     29  C   UNL     1       6.613   4.895  15.678  0.00  0.00    +0.000 A 
ATOM     30  C   UNL     1       6.518   5.926  16.599  0.00  0.00    +0.000 A 
ATOM     31  N   UNL     1       5.500   6.042  17.471  0.00  0.00    +0.000 NA
BRANCH  30  32
ATOM     32  N   UNL     1       7.534   6.873  16.697  0.00  0.00    +0.000 N 
ATOM     33  H   UNL     1       7.912   7.121  15.790  0.00  0.00    +0.000 HD
ATOM     34  H   UNL     1       7.149   7.675  17.187  0.00  0.00    +0.000 HD
ENDBRANCH  30  32
ENDBRANCH  24  26
ENDBRANCH  19  20
ENDBRANCH   6  19
TORSDOF 7
ENDMDL
MODEL 6
REMARK VINA RESULT:      -8.1      3.597      6.499
REMARK  Name = 
REMARK  7 active torsions:
REMARK  status: ('A' for Active; 'I' for Inactive)
REMARK    1  A    between atoms: C_2  and  C_3
REMARK    2  A    between atoms: C_5  and  S_6
REMARK    3  A    between atoms: S_6  and  N_9
REMARK    4  A    between atoms: C_17  and  O_18
REMARK    5  A    between atoms: O_18  and  C_19
REMARK    6  A    between atoms: C_23  and  C_24
REMARK    7  A    between atoms: C_28  and  N_29
REMARK                            x       y       z     vdW  Elec       q    Type
REMARK                         _______ _______ _______ _____ _____    ______ ____
ROOT
ATOM      1  C   UNL     1      -1.082  11.977  19.148  0.00  0.00    +0.000 A 
ATOM      2  C   UNL     1      -2.465  12.171  19.014  0.00  0.00    +0.000 A 
ATOM      3  C   UNL     1      -3.217  11.356  18.165  0.00  0.00    +0.000 A 
ATOM      4  C   UNL     1      -2.614  10.311  17.469  0.00  0.00    +0.000 A 
ATOM      5  C   UNL     1      -1.246  10.085  17.639  0.00  0.00    +0.000 A 
ATOM      6  C   UNL     1      -0.475  10.893  18.494  0.00  0.00    +0.000 A 
ENDROOT
BRANCH   3   7
ATOM      7  S   UNL     1      -4.971  11.630  18.052  0.00  0.00    +0.000 S 
ATOM      8  O   UNL     1      -5.282  11.848  16.655  0.00  0.00    +0.000 OA
ATOM      9  O   UNL     1      -5.613  10.579  18.808  0.00  0.00    +0.000 OA
BRANCH   7  10
ATOM     10  N   UNL     1      -5.132  13.137  18.807  0.00  0.00    +0.000 N 
ATOM     11  C   UNL     1      -5.941  13.062  19.962  0.00  0.00    +0.000 A 
ATOM     12  N   UNL     1      -7.187  13.452  19.891  0.00  0.00    +0.000 NA
ATOM     13  C   UNL     1      -7.781  13.265  21.127  0.00  0.00    +0.000 A 
ATOM     14  C   UNL     1      -6.937  12.853  22.138  0.00  0.00    +0.000 A 
ATOM     15  S   UNL     1      -5.357  12.631  21.509  0.00  0.00    +0.000 S 
ATOM     16  H   UNL     1      -5.591  13.741  18.124  0.00  0.00    +0.000 HD
ENDBRANCH   7  10
ENDBRANCH   3   7
BRANCH   1  18
ATOM     17  N   UNL     1       0.148  13.741  20.601  0.00  0.00    +0.000 NA
ATOM     18  C   UNL     1      -0.371  12.947  19.928  0.00  0.00    +0.000 C 
ENDBRANCH   1  18
BRANCH   6  19
ATOM     19  O   UNL     1       0.861  10.556  18.500  0.00  0.00    +0.000 OA
BRANCH  19  20
ATOM     20  C   UNL     1       1.300   9.366  19.032  0.00  0.00    +0.000 A 
ATOM     21  C   UNL     1       0.996   9.175  20.381  0.00  0.00    +0.000 A 
ATOM     22  C   UNL     1       1.341   7.985  21.013  0.00  0.00    +0.000 A 
ATOM     23  C   UNL     1       1.974   6.976  20.286  0.00  0.00    +0.000 A 
ATOM     24  C   UNL     1       2.318   7.151  18.931  0.00  0.00    +0.000 A 
ATOM     25  C   UNL     1       2.025   8.393  18.337  0.00  0.00    +0.000 A 
BRANCH  24  26
ATOM     26  C   UNL     1       2.942   6.063  18.153  0.00  0.00    +0.000 A 
ATOM     27  C   UNL     1       2.337   4.812  18.011  0.00  0.00    +0.000 A 
ATOM     28  C   UNL     1       3.002   3.812  17.315  0.00  0.00    +0.000 A 
ATOM     29  C   UNL     1       4.249   4.089  16.770  0.00  0.00    +0.000 A 
ATOM     30  C   UNL     1       4.771   5.364  16.913  0.00  0.00    +0.000 A 
ATOM     31  N   UNL     1       4.144   6.344  17.587  0.00  0.00    +0.000 NA
BRANCH  30  32
ATOM     32  N   UNL     1       6.030   5.666  16.399  0.00  0.00    +0.000 N 
ATOM     33  H   UNL     1       6.743   5.034  16.744  0.00  0.00    +0.000 HD
ATOM     34  H   UNL     1       5.952   5.645  15.386  0.00  0.00    +0.000 HD
ENDBRANCH  30  32
ENDBRANCH  24  26
ENDBRANCH  19  20
ENDBRANCH   6  19
TORSDOF 7
ENDMDL
MODEL 7
REMARK VINA RESULT:      -8.1      4.822     11.017
REMARK  Name = 
REMARK  7 active torsions:
REMARK  status: ('A' for Active; 'I' for Inactive)
REMARK    1  A    between atoms: C_2  and  C_3
REMARK    2  A    between atoms: C_5  and  S_6
REMARK    3  A    between atoms: S_6  and  N_9
REMARK    4  A    between atoms: C_17  and  O_18
REMARK    5  A    between atoms: O_18  and  C_19
REMARK    6  A    between atoms: C_23  and  C_24
REMARK    7  A    between atoms: C_28  and  N_29
REMARK                            x       y       z     vdW  Elec       q    Type
REMARK                         _______ _______ _______ _____ _____    ______ ____
ROOT
ATOM      1  C   UNL     1       0.879   9.425  20.438  0.00  0.00    +0.000 A 
ATOM      2  C   UNL     1       1.526   8.223  20.118  0.00  0.00    +0.000 A 
ATOM      3  C   UNL     1       2.092   8.036  18.854  0.00  0.00    +0.000 A 
ATOM      4  C   UNL     1       2.059   9.055  17.906  0.00  0.00    +0.000 A 
ATOM      5  C   UNL     1       1.458  10.271  18.240  0.00  0.00    +0.000 A 
ATOM      6  C   UNL     1       0.889  10.479  19.509  0.00  0.00    +0.000 A 
ENDROOT
BRANCH   3   7
ATOM      7  S   UNL     1       2.922   6.501  18.510  0.00  0.00    +0.000 S 
ATOM      8  O   UNL     1       1.950   5.614  17.905  0.00  0.00    +0.000 OA
ATOM      9  O   UNL     1       4.158   6.830  17.838  0.00  0.00    +0.000 OA
BRANCH   7  10
ATOM     10  N   UNL     1       3.195   5.901  20.070  0.00  0.00    +0.000 N 
ATOM     11  C   UNL     1       2.644   4.612  20.241  0.00  0.00    +0.000 A 
ATOM     12  N   UNL     1       1.500   4.488  20.863  0.00  0.00    +0.000 NA
ATOM     13  C   UNL     1       1.152   3.149  20.887  0.00  0.00    +0.000 A 
ATOM     14  C   UNL     1       2.100   2.277  20.391  0.00  0.00    +0.000 A 
ATOM     15  S   UNL     1       3.449   3.166  19.816  0.00  0.00    +0.000 S 
ATOM     16  H   UNL     1       2.719   6.547  20.701  0.00  0.00    +0.000 HD
ENDBRANCH   7  10
ENDBRANCH   3   7
BRANCH   1  18
ATOM     17  N   UNL     1      -0.298   9.569  22.746  0.00  0.00    +0.000 NA
ATOM     18  C   UNL     1       0.206   9.475  21.703  0.00  0.00    +0.000 C 
ENDBRANCH   1  18
BRANCH   6  19
ATOM     19  O   UNL     1       0.299  11.717  19.643  0.00  0.00    +0.000 OA
BRANCH  19  20
ATOM     20  C   UNL     1      -1.061  11.881  19.525  0.00  0.00    +0.000 A 
ATOM     21  C   UNL     1      -1.615  11.389  18.342  0.00  0.00    +0.000 A 
ATOM     22  C   UNL     1      -2.989  11.451  18.137  0.00  0.00    +0.000 A 
ATOM     23  C   UNL     1      -3.812  11.988  19.128  0.00  0.00    +0.000 A 
ATOM     24  C   UNL     1      -3.279  12.517  20.319  0.00  0.00    +0.000 A 
ATOM     25  C   UNL     1      -1.879  12.510  20.470  0.00  0.00    +0.000 A 
BRANCH  24  26
ATOM     26  C   UNL     1      -4.157  13.038  21.386  0.00  0.00    +0.000 A 
ATOM     27  C   UNL     1      -5.001  14.131  21.183  0.00  0.00    +0.000 A 
ATOM     28  C   UNL     1      -5.759  14.609  22.244  0.00  0.00    +0.000 A 
ATOM     29  C   UNL     1      -5.663  13.977  23.476  0.00  0.00    +0.000 A 
ATOM     30  C   UNL     1      -4.837  12.870  23.596  0.00  0.00    +0.000 A 
ATOM     31  N   UNL     1      -4.092  12.396  22.581  0.00  0.00    +0.000 NA
BRANCH  30  32
ATOM     32  N   UNL     1      -4.700  12.229  24.825  0.00  0.00    +0.000 N 
ATOM     33  H   UNL     1      -4.299  12.838  25.528  0.00  0.00    +0.000 HD
ATOM     34  H   UNL     1      -5.620  11.888  25.087  0.00  0.00    +0.000 HD
ENDBRANCH  30  32
ENDBRANCH  24  26
ENDBRANCH  19  20
ENDBRANCH   6  19
TORSDOF 7
ENDMDL
MODEL 8
REMARK VINA RESULT:      -8.1      2.974      4.615
REMARK  Name = 
REMARK  7 active torsions:
REMARK  status: ('A' for Active; 'I' for Inactive)
REMARK    1  A    between atoms: C_2  and  C_3
REMARK    2  A    between atoms: C_5  and  S_6
REMARK    3  A    between atoms: S_6  and  N_9
REMARK    4  A    between atoms: C_17  and  O_18
REMARK    5  A    between atoms: O_18  and  C_19
REMARK    6  A    between atoms: C_23  and  C_24
REMARK    7  A    between atoms: C_28  and  N_29
REMARK                            x       y       z     vdW  Elec       q    Type
REMARK                         _______ _______ _______ _____ _____    ______ ____
ROOT
ATOM      1  C   UNL     1       0.348   9.580  21.402  0.00  0.00    +0.000 A 
ATOM      2  C   UNL     1      -0.522  10.529  20.844  0.00  0.00    +0.000 A 
ATOM      3  C   UNL     1      -0.500  10.790  19.471  0.00  0.00    +0.000 A 
ATOM      4  C   UNL     1       0.355  10.084  18.629  0.00  0.00    +0.000 A 
ATOM      5  C   UNL     1       1.187   9.104  19.176  0.00  0.00    +0.000 A 
ATOM      6  C   UNL     1       1.175   8.824  20.554  0.00  0.00    +0.000 A 
ENDROOT
BRANCH   3   7
ATOM      7  S   UNL     1      -1.642  11.984  18.812  0.00  0.00    +0.000 S 
ATOM      8  O   UNL     1      -2.031  12.852  19.904  0.00  0.00    +0.000 OA
ATOM      9  O   UNL     1      -1.051  12.515  17.606  0.00  0.00    +0.000 OA
BRANCH   7  10
ATOM     10  N   UNL     1      -2.994  11.019  18.479  0.00  0.00    +0.000 N 
ATOM     11  C   UNL     1      -3.140  10.780  17.095  0.00  0.00    +0.000 A 
ATOM     12  N   UNL     1      -4.015  11.478  16.419  0.00  0.00    +0.000 NA
ATOM     13  C   UNL     1      -3.962  11.089  15.092  0.00  0.00    +0.000 A 
ATOM     14  C   UNL     1      -3.135  10.019  14.817  0.00  0.00    +0.000 A 
ATOM     15  S   UNL     1      -2.347   9.520  16.256  0.00  0.00    +0.000 S 
ATOM     16  H   UNL     1      -3.801  11.552  18.807  0.00  0.00    +0.000 HD
ENDBRANCH   7  10
ENDBRANCH   3   7
BRANCH   1  18
ATOM     17  N   UNL     1       0.411   9.450  23.993  0.00  0.00    +0.000 NA
ATOM     18  C   UNL     1       0.356   9.481  22.831  0.00  0.00    +0.000 C 
ENDBRANCH   1  18
BRANCH   6  19
ATOM     19  O   UNL     1       2.094   7.865  20.922  0.00  0.00    +0.000 OA
BRANCH  19  20
ATOM     20  C   UNL     1       2.281   6.727  20.174  0.00  0.00    +0.000 A 
ATOM     21  C   UNL     1       1.313   5.737  20.352  0.00  0.00    +0.000 A 
ATOM     22  C   UNL     1       1.369   4.564  19.607  0.00  0.00    +0.000 A 
ATOM     23  C   UNL     1       2.386   4.390  18.668  0.00  0.00    +0.000 A 
ATOM     24  C   UNL     1       3.392   5.359  18.486  0.00  0.00    +0.000 A 
ATOM     25  C   UNL     1       3.355   6.504  19.306  0.00  0.00    +0.000 A 
BRANCH  24  26
ATOM     26  C   UNL     1       4.437   5.194  17.456  0.00  0.00    +0.000 A 
ATOM     27  C   UNL     1       4.398   4.159  16.520  0.00  0.00    +0.000 A 
ATOM     28  C   UNL     1       5.442   4.024  15.614  0.00  0.00    +0.000 A 
ATOM     29  C   UNL     1       6.490   4.932  15.658  0.00  0.00    +0.000 A 
ATOM     30  C   UNL     1       6.444   5.961  16.585  0.00  0.00    +0.000 A 
ATOM     31  N   UNL     1       5.444   6.106  17.473  0.00  0.00    +0.000 NA
BRANCH  30  32
ATOM     32  N   UNL     1       7.492   6.874  16.671  0.00  0.00    +0.000 N 
ATOM     33  H   UNL     1       8.308   6.474  17.119  0.00  0.00    +0.000 HD
ATOM     34  H   UNL     1       7.687   7.194  15.727  0.00  0.00    +0.000 HD
ENDBRANCH  30  32
ENDBRANCH  24  26
ENDBRANCH  19  20
ENDBRANCH   6  19
TORSDOF 7
ENDMDL
MODEL 9
REMARK VINA RESULT:      -8.0      3.185     10.946
REMARK  Name = 
REMARK  7 active torsions:
REMARK  status: ('A' for Active; 'I' for Inactive)
REMARK    1  A    between atoms: C_2  and  C_3
REMARK    2  A    between atoms: C_5  and  S_6
REMARK    3  A    between atoms: S_6  and  N_9
REMARK    4  A    between atoms: C_17  and  O_18
REMARK    5  A    between atoms: O_18  and  C_19
REMARK    6  A    between atoms: C_23  and  C_24
REMARK    7  A    between atoms: C_28  and  N_29
REMARK                            x       y       z     vdW  Elec       q    Type
REMARK                         _______ _______ _______ _____ _____    ______ ____
ROOT
ATOM      1  C   UNL     1       1.073   9.191  20.927  0.00  0.00    +0.000 A 
ATOM      2  C   UNL     1       1.513   7.861  20.839  0.00  0.00    +0.000 A 
ATOM      3  C   UNL     1       1.908   7.325  19.610  0.00  0.00    +0.000 A 
ATOM      4  C   UNL     1       1.909   8.112  18.462  0.00  0.00    +0.000 A 
ATOM      5  C   UNL     1       1.518   9.449  18.557  0.00  0.00    +0.000 A 
ATOM      6  C   UNL     1       1.123  10.008  19.786  0.00  0.00    +0.000 A 
ENDROOT
BRANCH   3   7
ATOM      7  S   UNL     1       2.481   5.642  19.560  0.00  0.00    +0.000 S 
ATOM      8  O   UNL     1       2.094   5.020  20.809  0.00  0.00    +0.000 OA
ATOM      9  O   UNL     1       2.069   5.092  18.289  0.00  0.00    +0.000 OA
BRANCH   7  10
ATOM     10  N   UNL     1       4.160   5.849  19.642  0.00  0.00    +0.000 N 
ATOM     11  C   UNL     1       4.786   5.553  18.412  0.00  0.00    +0.000 A 
ATOM     12  N   UNL     1       5.374   4.395  18.260  0.00  0.00    +0.000 NA
ATOM     13  C   UNL     1       5.890   4.324  16.979  0.00  0.00    +0.000 A 
ATOM     14  C   UNL     1       5.788   5.478  16.229  0.00  0.00    +0.000 A 
ATOM     15  S   UNL     1       4.962   6.677  17.136  0.00  0.00    +0.000 S 
ATOM     16  H   UNL     1       4.486   5.184  20.344  0.00  0.00    +0.000 HD
ENDBRANCH   7  10
ENDBRANCH   3   7
BRANCH   1  18
ATOM     17  N   UNL     1       0.090   9.995  23.190  0.00  0.00    +0.000 NA
ATOM     18  C   UNL     1       0.555   9.611  22.195  0.00  0.00    +0.000 C 
ENDBRANCH   1  18
BRANCH   6  19
ATOM     19  O   UNL     1       0.724  11.322  19.682  0.00  0.00    +0.000 OA
BRANCH  19  20
ATOM     20  C   UNL     1      -0.606  11.669  19.654  0.00  0.00    +0.000 A 
ATOM     21  C   UNL     1      -1.296  11.275  18.506  0.00  0.00    +0.000 A 
ATOM     22  C   UNL     1      -2.660  11.523  18.392  0.00  0.00    +0.000 A 
ATOM     23  C   UNL     1      -3.337  12.150  19.438  0.00  0.00    +0.000 A 
ATOM     24  C   UNL     1      -2.663  12.583  20.596  0.00  0.00    +0.000 A 
ATOM     25  C   UNL     1      -1.270  12.387  20.654  0.00  0.00    +0.000 A 
BRANCH  24  26
ATOM     26  C   UNL     1      -3.393  13.199  21.721  0.00  0.00    +0.000 A 
ATOM     27  C   UNL     1      -3.590  14.579  21.810  0.00  0.00    +0.000 A 
ATOM     28  C   UNL     1      -4.234  15.102  22.924  0.00  0.00    +0.000 A 
ATOM     29  C   UNL     1      -4.674  14.234  23.914  0.00  0.00    +0.000 A 
ATOM     30  C   UNL     1      -4.484  12.872  23.740  0.00  0.00    +0.000 A 
ATOM     31  N   UNL     1      -3.858  12.347  22.671  0.00  0.00    +0.000 NA
BRANCH  30  32
ATOM     32  N   UNL     1      -4.892  11.977  24.727  0.00  0.00    +0.000 N 
ATOM     33  H   UNL     1      -5.900  11.956  24.826  0.00  0.00    +0.000 HD
ATOM     34  H   UNL     1      -4.507  11.069  24.483  0.00  0.00    +0.000 HD
ENDBRANCH  30  32
ENDBRANCH  24  26
ENDBRANCH  19  20
ENDBRANCH   6  19
TORSDOF 7
ENDMDL
