MODEL 1
REMARK VINA RESULT:      -8.4      0.000      0.000
REMARK  Name = 
REMARK  5 active torsions:
REMARK  status: ('A' for Active; 'I' for Inactive)
REMARK    1  A    between atoms: N_6  and  C_7
REMARK    2  A    between atoms: C_7  and  C_8
REMARK    3  A    between atoms: C_9  and  O_10
REMARK    4  A    between atoms: C_15  and  C_16
REMARK    5  A    between atoms: C_16  and  C_17
REMARK                            x       y       z     vdW  Elec       q    Type
REMARK                         _______ _______ _______ _____ _____    ______ ____
ROOT
ATOM      1  C   UNL     1       2.773   3.830  18.255  0.00  0.00    +0.000 A 
ATOM      2  C   UNL     1       2.433   2.509  18.637  0.00  0.00    +0.000 A 
ATOM      3  C   UNL     1       1.552   2.200  19.677  0.00  0.00    +0.000 A 
ATOM      4  C   UNL     1       1.036   3.197  20.497  0.00  0.00    +0.000 A 
ATOM      5  C   UNL     1       1.479   4.481  20.221  0.00  0.00    +0.000 A 
ATOM      6  O   UNL     1       1.172   5.581  20.962  0.00  0.00    +0.000 OA
ATOM      7  C   UNL     1       1.823   6.638  20.404  0.00  0.00    +0.000 A 
ATOM      8  C   UNL     1       2.527   6.223  19.294  0.00  0.00    +0.000 A 
ATOM      9  C   UNL     1       2.308   4.824  19.157  0.00  0.00    +0.000 A 
ENDROOT
BRANCH   2  10
ATOM     10  O   UNL     1       3.025   1.417  18.067  0.00  0.00    +0.000 OA
ATOM     11  H   UNL     1       2.900   0.693  18.703  0.00  0.00    +0.000 HD
ENDBRANCH   2  10
BRANCH   1  12
ATOM     12  C   UNL     1       3.624   4.205  17.043  0.00  0.00    +0.000 C 
BRANCH  12  18
ATOM     13  O   UNL     1       8.114   7.535  18.370  0.00  0.00    +0.000 OA
ATOM     14  C   UNL     1       7.615   7.150  17.300  0.00  0.00    +0.000 C 
ATOM     15  N   UNL     1       6.569   6.277  17.191  0.00  0.00    +0.000 N 
ATOM     16  C   UNL     1       6.006   5.850  15.907  0.00  0.00    +0.000 C 
ATOM     17  C   UNL     1       5.779   4.317  15.880  0.00  0.00    +0.000 C 
ATOM     18  N   UNL     1       5.038   3.759  17.049  0.00  0.00    +0.000 NA
ATOM     19  C   UNL     1       5.779   4.204  18.265  0.00  0.00    +0.000 C 
ATOM     20  C   UNL     1       5.925   5.738  18.380  0.00  0.00    +0.000 C 
ENDBRANCH  12  18
ENDBRANCH   1  12
BRANCH   7  21
ATOM     21  C   UNL     1       1.644   7.956  21.065  0.00  0.00    +0.000 C 
BRANCH  21  22
ATOM     22  C   UNL     1       0.946   8.974  20.190  0.00  0.00    +0.000 A 
ATOM     23  C   UNL     1       1.370   9.202  18.873  0.00  0.00    +0.000 A 
ATOM     24  C   UNL     1       0.676  10.098  18.056  0.00  0.00    +0.000 A 
ATOM     25  C   UNL     1      -0.452  10.759  18.542  0.00  0.00    +0.000 A 
ATOM     26  C   UNL     1      -0.877  10.545  19.850  0.00  0.00    +0.000 A 
ATOM     27  C   UNL     1      -0.174   9.668  20.674  0.00  0.00    +0.000 A 
ENDBRANCH  21  22
ENDBRANCH   7  21
TORSDOF 5
ENDMDL
MODEL 2
REMARK VINA RESULT:      -8.1      3.536      8.246
REMARK  Name = 
REMARK  5 active torsions:
REMARK  status: ('A' for Active; 'I' for Inactive)
REMARK    1  A    between atoms: N_6  and  C_7
REMARK    2  A    between atoms: C_7  and  C_8
REMARK    3  A    between atoms: C_9  and  O_10
REMARK    4  A    between atoms: C_15  and  C_16
REMARK    5  A    between atoms: C_16  and  C_17
REMARK                            x       y       z     vdW  Elec       q    Type
REMARK                         _______ _______ _______ _____ _____    ______ ____
ROOT
ATOM      1  C   UNL     1       5.645   4.450  17.553  0.00  0.00    +0.000 A 
ATOM      2  C   UNL     1       6.263   5.132  18.630  0.00  0.00    +0.000 A 
ATOM      3  C   UNL     1       7.203   6.155  18.470  0.00  0.00    +0.000 A 
ATOM      4  C   UNL     1       7.686   6.490  17.211  0.00  0.00    +0.000 A 
ATOM      5  C   UNL     1       7.194   5.727  16.163  0.00  0.00    +0.000 A 
ATOM      6  O   UNL     1       7.610   5.828  14.870  0.00  0.00    +0.000 OA
ATOM      7  C   UNL     1       6.930   4.893  14.154  0.00  0.00    +0.000 A 
ATOM      8  C   UNL     1       6.063   4.209  14.978  0.00  0.00    +0.000 A 
ATOM      9  C   UNL     1       6.216   4.745  16.287  0.00  0.00    +0.000 A 
ENDROOT
BRANCH   2  10
ATOM     10  O   UNL     1       6.053   4.770  19.931  0.00  0.00    +0.000 OA
ATOM     11  H   UNL     1       5.518   3.960  19.891  0.00  0.00    +0.000 HD
ENDBRANCH   2  10
BRANCH   1  12
ATOM     12  C   UNL     1       4.521   3.425  17.690  0.00  0.00    +0.000 C 
BRANCH  12  18
ATOM     13  O   UNL     1       1.226   2.919  22.369  0.00  0.00    +0.000 OA
ATOM     14  C   UNL     1       1.286   2.309  21.289  0.00  0.00    +0.000 C 
ATOM     15  N   UNL     1       2.106   2.638  20.246  0.00  0.00    +0.000 N 
ATOM     16  C   UNL     1       2.149   1.889  18.988  0.00  0.00    +0.000 C 
ATOM     17  C   UNL     1       2.140   2.847  17.769  0.00  0.00    +0.000 C 
ATOM     18  N   UNL     1       3.141   3.953  17.817  0.00  0.00    +0.000 NA
ATOM     19  C   UNL     1       2.911   4.668  19.105  0.00  0.00    +0.000 C 
ATOM     20  C   UNL     1       3.025   3.762  20.351  0.00  0.00    +0.000 C 
ENDBRANCH  12  18
ENDBRANCH   1  12
BRANCH   7  21
ATOM     21  C   UNL     1       7.238   4.810  12.703  0.00  0.00    +0.000 C 
BRANCH  21  22
ATOM     22  C   UNL     1       6.687   3.565  12.044  0.00  0.00    +0.000 A 
ATOM     23  C   UNL     1       7.541   2.538  11.619  0.00  0.00    +0.000 A 
ATOM     24  C   UNL     1       7.013   1.366  11.071  0.00  0.00    +0.000 A 
ATOM     25  C   UNL     1       5.633   1.206  10.958  0.00  0.00    +0.000 A 
ATOM     26  C   UNL     1       4.776   2.223  11.371  0.00  0.00    +0.000 A 
ATOM     27  C   UNL     1       5.300   3.401  11.898  0.00  0.00    +0.000 A 
ENDBRANCH  21  22
ENDBRANCH   7  21
TORSDOF 5
ENDMDL
MODEL 3
REMARK VINA RESULT:      -7.8      1.143      1.565
REMARK  Name = 
REMARK  5 active torsions:
REMARK  status: ('A' for Active; 'I' for Inactive)
REMARK    1  A    between atoms: N_6  and  C_7
REMARK    2  A    between atoms: C_7  and  C_8
REMARK    3  A    between atoms: C_9  and  O_10
REMARK    4  A    between atoms: C_15  and  C_16
REMARK    5  A    between atoms: C_16  and  C_17
REMARK                            x       y       z     vdW  Elec       q    Type
REMARK                         _______ _______ _______ _____ _____    ______ ____
ROOT
ATOM      1  C   UNL     1       3.759   3.281  18.860  0.00  0.00    +0.000 A 
ATOM      2  C   UNL     1       3.149   2.027  18.615  0.00  0.00    +0.000 A 
ATOM      3  C   UNL     1       1.776   1.788  18.738  0.00  0.00    +0.000 A 
ATOM      4  C   UNL     1       0.924   2.766  19.236  0.00  0.00    +0.000 A 
ATOM      5  C   UNL     1       1.535   3.951  19.615  0.00  0.00    +0.000 A 
ATOM      6  O   UNL     1       0.896   4.993  20.215  0.00  0.00    +0.000 OA
ATOM      7  C   UNL     1       1.833   5.947  20.470  0.00  0.00    +0.000 A 
ATOM      8  C   UNL     1       3.065   5.528  20.015  0.00  0.00    +0.000 A 
ATOM      9  C   UNL     1       2.887   4.235  19.450  0.00  0.00    +0.000 A 
ENDROOT
BRANCH   2  10
ATOM     10  O   UNL     1       3.883   0.910  18.326  0.00  0.00    +0.000 OA
ATOM     11  H   UNL     1       4.290   0.642  19.167  0.00  0.00    +0.000 HD
ENDBRANCH   2  10
BRANCH   1  12
ATOM     12  C   UNL     1       5.229   3.610  18.607  0.00  0.00    +0.000 C 
BRANCH  12  18
ATOM     13  O   UNL     1       8.243   8.313  17.263  0.00  0.00    +0.000 OA
ATOM     14  C   UNL     1       7.033   8.033  17.247  0.00  0.00    +0.000 C 
ATOM     15  N   UNL     1       6.508   6.805  17.536  0.00  0.00    +0.000 N 
ATOM     16  C   UNL     1       5.072   6.515  17.510  0.00  0.00    +0.000 C 
ATOM     17  C   UNL     1       4.786   5.180  16.777  0.00  0.00    +0.000 C 
ATOM     18  N   UNL     1       5.601   4.014  17.230  0.00  0.00    +0.000 NA
ATOM     19  C   UNL     1       7.028   4.433  17.116  0.00  0.00    +0.000 C 
ATOM     20  C   UNL     1       7.374   5.701  17.927  0.00  0.00    +0.000 C 
ENDBRANCH  12  18
ENDBRANCH   1  12
BRANCH   7  21
ATOM     21  C   UNL     1       1.359   7.183  21.143  0.00  0.00    +0.000 C 
BRANCH  21  22
ATOM     22  C   UNL     1       1.297   8.380  20.220  0.00  0.00    +0.000 A 
ATOM     23  C   UNL     1       0.753   9.597  20.654  0.00  0.00    +0.000 A 
ATOM     24  C   UNL     1       0.760  10.711  19.811  0.00  0.00    +0.000 A 
ATOM     25  C   UNL     1       1.324  10.623  18.539  0.00  0.00    +0.000 A 
ATOM     26  C   UNL     1       1.861   9.418  18.095  0.00  0.00    +0.000 A 
ATOM     27  C   UNL     1       1.835   8.299  18.925  0.00  0.00    +0.000 A 
ENDBRANCH  21  22
ENDBRANCH   7  21
TORSDOF 5
ENDMDL
MODEL 4
REMARK VINA RESULT:      -7.8      1.732      2.148
REMARK  Name = 
REMARK  5 active torsions:
REMARK  status: ('A' for Active; 'I' for Inactive)
REMARK    1  A    between atoms: N_6  and  C_7
REMARK    2  A    between atoms: C_7  and  C_8
REMARK    3  A    between atoms: C_9  and  O_10
REMARK    4  A    between atoms: C_15  and  C_16
REMARK    5  A    between atoms: C_16  and  C_17
REMARK                            x       y       z     vdW  Elec       q    Type
REMARK                         _______ _______ _______ _____ _____    ______ ____
ROOT
ATOM      1  C   UNL     1       3.816   3.741  19.215  0.00  0.00    +0.000 A 
ATOM      2  C   UNL     1       3.332   2.416  19.088  0.00  0.00    +0.000 A 
ATOM      3  C   UNL     1       1.992   2.054  19.260  0.00  0.00    +0.000 A 
ATOM      4  C   UNL     1       1.053   2.980  19.695  0.00  0.00    +0.000 A 
ATOM      5  C   UNL     1       1.547   4.247  19.963  0.00  0.00    +0.000 A 
ATOM      6  O   UNL     1       0.815   5.267  20.489  0.00  0.00    +0.000 OA
ATOM      7  C   UNL     1       1.654   6.327  20.644  0.00  0.00    +0.000 A 
ATOM      8  C   UNL     1       2.915   5.997  20.198  0.00  0.00    +0.000 A 
ATOM      9  C   UNL     1       2.861   4.649  19.745  0.00  0.00    +0.000 A 
ENDROOT
BRANCH   2  10
ATOM     10  O   UNL     1       4.171   1.357  18.875  0.00  0.00    +0.000 OA
ATOM     11  H   UNL     1       4.779   1.352  19.632  0.00  0.00    +0.000 HD
ENDBRANCH   2  10
BRANCH   1  12
ATOM     12  C   UNL     1       5.242   4.192  18.903  0.00  0.00    +0.000 C 
BRANCH  12  18
ATOM     13  O   UNL     1       6.142   4.057  13.231  0.00  0.00    +0.000 OA
ATOM     14  C   UNL     1       6.881   4.219  14.215  0.00  0.00    +0.000 C 
ATOM     15  N   UNL     1       6.455   4.298  15.512  0.00  0.00    +0.000 N 
ATOM     16  C   UNL     1       7.361   4.487  16.647  0.00  0.00    +0.000 C 
ATOM     17  C   UNL     1       6.817   5.563  17.621  0.00  0.00    +0.000 C 
ATOM     18  N   UNL     1       5.396   5.388  18.040  0.00  0.00    +0.000 NA
ATOM     19  C   UNL     1       4.598   5.300  16.783  0.00  0.00    +0.000 C 
ATOM     20  C   UNL     1       5.043   4.163  15.838  0.00  0.00    +0.000 C 
ENDBRANCH  12  18
ENDBRANCH   1  12
BRANCH   7  21
ATOM     21  C   UNL     1       1.067   7.563  21.224  0.00  0.00    +0.000 C 
BRANCH  21  22
ATOM     22  C   UNL     1       1.182   8.764  20.312  0.00  0.00    +0.000 A 
ATOM     23  C   UNL     1       1.619   8.623  18.987  0.00  0.00    +0.000 A 
ATOM     24  C   UNL     1       1.659   9.732  18.138  0.00  0.00    +0.000 A 
ATOM     25  C   UNL     1       1.250  10.983  18.599  0.00  0.00    +0.000 A 
ATOM     26  C   UNL     1       0.821  11.135  19.915  0.00  0.00    +0.000 A 
ATOM     27  C   UNL     1       0.801  10.035  20.771  0.00  0.00    +0.000 A 
ENDBRANCH  21  22
ENDBRANCH   7  21
TORSDOF 5
ENDMDL
MODEL 5
REMARK VINA RESULT:      -7.7      1.098      1.265
REMARK  Name = 
REMARK  5 active torsions:
REMARK  status: ('A' for Active; 'I' for Inactive)
REMARK    1  A    between atoms: N_6  and  C_7
REMARK    2  A    between atoms: C_7  and  C_8
REMARK    3  A    between atoms: C_9  and  O_10
REMARK    4  A    between atoms: C_15  and  C_16
REMARK    5  A    between atoms: C_16  and  C_17
REMARK                            x       y       z     vdW  Elec       q    Type
REMARK                         _______ _______ _______ _____ _____    ______ ____
ROOT
ATOM      1  C   UNL     1       3.964   3.536  18.763  0.00  0.00    +0.000 A 
ATOM      2  C   UNL     1       3.363   2.340  18.300  0.00  0.00    +0.000 A 
ATOM      3  C   UNL     1       1.981   2.143  18.215  0.00  0.00    +0.000 A 
ATOM      4  C   UNL     1       1.093   3.092  18.706  0.00  0.00    +0.000 A 
ATOM      5  C   UNL     1       1.676   4.203  19.295  0.00  0.00    +0.000 A 
ATOM      6  O   UNL     1       0.988   5.197  19.921  0.00  0.00    +0.000 OA
ATOM      7  C   UNL     1       1.905   6.081  20.402  0.00  0.00    +0.000 A 
ATOM      8  C   UNL     1       3.176   5.667  20.067  0.00  0.00    +0.000 A 
ATOM      9  C   UNL     1       3.045   4.452  19.340  0.00  0.00    +0.000 A 
ENDROOT
BRANCH   2  10
ATOM     10  O   UNL     1       4.103   1.234  17.984  0.00  0.00    +0.000 OA
ATOM     11  H   UNL     1       4.663   1.503  17.237  0.00  0.00    +0.000 HD
ENDBRANCH   2  10
BRANCH   1  12
ATOM     12  C   UNL     1       5.463   3.833  18.743  0.00  0.00    +0.000 C 
BRANCH  12  18
ATOM     13  O   UNL     1       8.463   8.612  17.662  0.00  0.00    +0.000 OA
ATOM     14  C   UNL     1       7.291   8.266  17.448  0.00  0.00    +0.000 C 
ATOM     15  N   UNL     1       6.775   7.029  17.716  0.00  0.00    +0.000 N 
ATOM     16  C   UNL     1       5.382   6.661  17.451  0.00  0.00    +0.000 C 
ATOM     17  C   UNL     1       5.293   5.273  16.766  0.00  0.00    +0.000 C 
ATOM     18  N   UNL     1       6.062   4.181  17.431  0.00  0.00    +0.000 NA
ATOM     19  C   UNL     1       7.466   4.669  17.549  0.00  0.00    +0.000 C 
ATOM     20  C   UNL     1       7.602   5.997  18.326  0.00  0.00    +0.000 C 
ENDBRANCH  12  18
ENDBRANCH   1  12
BRANCH   7  21
ATOM     21  C   UNL     1       1.375   7.253  21.144  0.00  0.00    +0.000 C 
BRANCH  21  22
ATOM     22  C   UNL     1       1.111   8.451  20.259  0.00  0.00    +0.000 A 
ATOM     23  C   UNL     1       1.761   8.592  19.025  0.00  0.00    +0.000 A 
ATOM     24  C   UNL     1       1.459   9.670  18.190  0.00  0.00    +0.000 A 
ATOM     25  C   UNL     1       0.498  10.605  18.573  0.00  0.00    +0.000 A 
ATOM     26  C   UNL     1      -0.149  10.478  19.800  0.00  0.00    +0.000 A 
ATOM     27  C   UNL     1       0.166   9.416  20.644  0.00  0.00    +0.000 A 
ENDBRANCH  21  22
ENDBRANCH   7  21
TORSDOF 5
ENDMDL
MODEL 6
REMARK VINA RESULT:      -7.7      2.993      7.920
REMARK  Name = 
REMARK  5 active torsions:
REMARK  status: ('A' for Active; 'I' for Inactive)
REMARK    1  A    between atoms: N_6  and  C_7
REMARK    2  A    between atoms: C_7  and  C_8
REMARK    3  A    between atoms: C_9  and  O_10
REMARK    4  A    between atoms: C_15  and  C_16
REMARK    5  A    between atoms: C_16  and  C_17
REMARK                            x       y       z     vdW  Elec       q    Type
REMARK                         _______ _______ _______ _____ _____    ______ ____
ROOT
ATOM      1  C   UNL     1       5.387   4.257  17.713  0.00  0.00    +0.000 A 
ATOM      2  C   UNL     1       6.057   4.753  18.858  0.00  0.00    +0.000 A 
ATOM      3  C   UNL     1       7.113   5.668  18.810  0.00  0.00    +0.000 A 
ATOM      4  C   UNL     1       7.660   6.064  17.596  0.00  0.00    +0.000 A 
ATOM      5  C   UNL     1       7.105   5.471  16.472  0.00  0.00    +0.000 A 
ATOM      6  O   UNL     1       7.559   5.647  15.201  0.00  0.00    +0.000 OA
ATOM      7  C   UNL     1       6.790   4.873  14.387  0.00  0.00    +0.000 A 
ATOM      8  C   UNL     1       5.831   4.220  15.131  0.00  0.00    +0.000 A 
ATOM      9  C   UNL     1       6.017   4.604  16.488  0.00  0.00    +0.000 A 
ENDROOT
BRANCH   2  10
ATOM     10  O   UNL     1       5.776   4.293  20.115  0.00  0.00    +0.000 OA
ATOM     11  H   UNL     1       6.215   4.912  20.721  0.00  0.00    +0.000 HD
ENDBRANCH   2  10
BRANCH   1  12
ATOM     12  C   UNL     1       4.147   3.365  17.734  0.00  0.00    +0.000 C 
BRANCH  12  18
ATOM     13  O   UNL     1       1.443   7.239  21.002  0.00  0.00    +0.000 OA
ATOM     14  C   UNL     1       1.306   6.019  20.824  0.00  0.00    +0.000 C 
ATOM     15  N   UNL     1       2.014   5.272  19.925  0.00  0.00    +0.000 N 
ATOM     16  C   UNL     1       1.823   3.830  19.747  0.00  0.00    +0.000 C 
ATOM     17  C   UNL     1       1.752   3.458  18.244  0.00  0.00    +0.000 C 
ATOM     18  N   UNL     1       2.852   4.003  17.397  0.00  0.00    +0.000 NA
ATOM     19  C   UNL     1       2.860   5.478  17.620  0.00  0.00    +0.000 C 
ATOM     20  C   UNL     1       3.043   5.886  19.098  0.00  0.00    +0.000 C 
ENDBRANCH  12  18
ENDBRANCH   1  12
BRANCH   7  21
ATOM     21  C   UNL     1       7.119   4.897  12.939  0.00  0.00    +0.000 C 
BRANCH  21  22
ATOM     22  C   UNL     1       6.645   3.667  12.198  0.00  0.00    +0.000 A 
ATOM     23  C   UNL     1       7.558   2.715  11.723  0.00  0.00    +0.000 A 
ATOM     24  C   UNL     1       7.102   1.553  11.097  0.00  0.00    +0.000 A 
ATOM     25  C   UNL     1       5.733   1.325  10.956  0.00  0.00    +0.000 A 
ATOM     26  C   UNL     1       4.818   2.266  11.418  0.00  0.00    +0.000 A 
ATOM     27  C   UNL     1       5.270   3.437  12.023  0.00  0.00    +0.000 A 
ENDBRANCH  21  22
ENDBRANCH   7  21
TORSDOF 5
ENDMDL
MODEL 7
REMARK VINA RESULT:      -7.7      2.087      4.636
REMARK  Name = 
REMARK  5 active torsions:
REMARK  status: ('A' for Active; 'I' for Inactive)
REMARK    1  A    between atoms: N_6  and  C_7
REMARK    2  A    between atoms: C_7  and  C_8
REMARK    3  A    between atoms: C_9  and  O_10
REMARK    4  A    between atoms: C_15  and  C_16
REMARK    5  A    between atoms: C_16  and  C_17
REMARK                            x       y       z     vdW  Elec       q    Type
REMARK                         _______ _______ _______ _____ _____    ______ ____
ROOT
ATOM      1  C   UNL     1       4.092   4.626  17.100  0.00  0.00    +0.000 A 
ATOM      2  C   UNL     1       5.429   4.488  16.654  0.00  0.00    +0.000 A 
ATOM      3  C   UNL     1       6.366   5.525  16.660  0.00  0.00    +0.000 A 
ATOM      4  C   UNL     1       5.995   6.820  17.002  0.00  0.00    +0.000 A 
ATOM      5  C   UNL     1       4.653   6.994  17.301  0.00  0.00    +0.000 A 
ATOM      6  O   UNL     1       4.069   8.196  17.565  0.00  0.00    +0.000 OA
ATOM      7  C   UNL     1       2.743   7.964  17.766  0.00  0.00    +0.000 A 
ATOM      8  C   UNL     1       2.480   6.616  17.654  0.00  0.00    +0.000 A 
ATOM      9  C   UNL     1       3.713   5.970  17.359  0.00  0.00    +0.000 A 
ENDROOT
BRANCH   2  10
ATOM     10  O   UNL     1       5.885   3.330  16.085  0.00  0.00    +0.000 OA
ATOM     11  H   UNL     1       6.829   3.479  15.916  0.00  0.00    +0.000 HD
ENDBRANCH   2  10
BRANCH   1  12
ATOM     12  C   UNL     1       3.084   3.485  17.232  0.00  0.00    +0.000 C 
BRANCH  12  18
ATOM     13  O   UNL     1       0.962   2.377  22.455  0.00  0.00    +0.000 OA
ATOM     14  C   UNL     1       2.009   2.904  22.046  0.00  0.00    +0.000 C 
ATOM     15  N   UNL     1       2.375   3.009  20.734  0.00  0.00    +0.000 N 
ATOM     16  C   UNL     1       3.620   3.643  20.292  0.00  0.00    +0.000 C 
ATOM     17  C   UNL     1       4.334   2.781  19.220  0.00  0.00    +0.000 C 
ATOM     18  N   UNL     1       3.478   2.335  18.082  0.00  0.00    +0.000 NA
ATOM     19  C   UNL     1       2.308   1.636  18.688  0.00  0.00    +0.000 C 
ATOM     20  C   UNL     1       1.505   2.507  19.679  0.00  0.00    +0.000 C 
ENDBRANCH  12  18
ENDBRANCH   1  12
BRANCH   7  21
ATOM     21  C   UNL     1       1.897   9.149  18.058  0.00  0.00    +0.000 C 
BRANCH  21  22
ATOM     22  C   UNL     1       1.226   9.086  19.412  0.00  0.00    +0.000 A 
ATOM     23  C   UNL     1       1.690   8.211  20.405  0.00  0.00    +0.000 A 
ATOM     24  C   UNL     1       1.102   8.209  21.672  0.00  0.00    +0.000 A 
ATOM     25  C   UNL     1       0.059   9.089  21.961  0.00  0.00    +0.000 A 
ATOM     26  C   UNL     1      -0.414   9.956  20.980  0.00  0.00    +0.000 A 
ATOM     27  C   UNL     1       0.157   9.946  19.709  0.00  0.00    +0.000 A 
ENDBRANCH  21  22
ENDBRANCH   7  21
TORSDOF 5
ENDMDL
MODEL 8
REMARK VINA RESULT:      -7.7      1.502      1.744
REMARK  Name = 
REMARK  5 active torsions:
REMARK  status: ('A' for Active; 'I' for Inactive)
REMARK    1  A    between atoms: N_6  and  C_7
REMARK    2  A    between atoms: C_7  and  C_8
REMARK    3  A    between atoms: C_9  and  O_10
REMARK    4  A    between atoms: C_15  and  C_16
REMARK    5  A    between atoms: C_16  and  C_17
REMARK                            x       y       z     vdW  Elec       q    Type
REMARK                         _______ _______ _______ _____ _____    ______ ____
ROOT
ATOM      1  C   UNL     1       3.483   4.146  18.145  0.00  0.00    +0.000 A 
ATOM      2  C   UNL     1       3.173   2.781  18.360  0.00  0.00    +0.000 A 
ATOM      3  C   UNL     1       2.151   2.336  19.205  0.00  0.00    +0.000 A 
ATOM      4  C   UNL     1       1.440   3.230  19.996  0.00  0.00    +0.000 A 
ATOM      5  C   UNL     1       1.836   4.555  19.900  0.00  0.00    +0.000 A 
ATOM      6  O   UNL     1       1.336   5.568  20.660  0.00  0.00    +0.000 OA
ATOM      7  C   UNL     1       2.001   6.702  20.306  0.00  0.00    +0.000 A 
ATOM      8  C   UNL     1       2.907   6.422  19.306  0.00  0.00    +0.000 A 
ATOM      9  C   UNL     1       2.808   5.031  19.026  0.00  0.00    +0.000 A 
ENDROOT
BRANCH   2  10
ATOM     10  O   UNL     1       3.924   1.774  17.819  0.00  0.00    +0.000 OA
ATOM     11  H   UNL     1       4.246   1.256  18.574  0.00  0.00    +0.000 HD
ENDBRANCH   2  10
BRANCH   1  12
ATOM     12  C   UNL     1       4.499   4.668  17.130  0.00  0.00    +0.000 C 
BRANCH  12  18
ATOM     13  O   UNL     1       8.742   5.985  13.486  0.00  0.00    +0.000 OA
ATOM     14  C   UNL     1       7.725   5.277  13.403  0.00  0.00    +0.000 C 
ATOM     15  N   UNL     1       6.859   5.022  14.430  0.00  0.00    +0.000 N 
ATOM     16  C   UNL     1       5.667   4.183  14.289  0.00  0.00    +0.000 C 
ATOM     17  C   UNL     1       5.540   3.191  15.474  0.00  0.00    +0.000 C 
ATOM     18  N   UNL     1       5.662   3.798  16.832  0.00  0.00    +0.000 NA
ATOM     19  C   UNL     1       6.956   4.538  16.844  0.00  0.00    +0.000 C 
ATOM     20  C   UNL     1       7.071   5.615  15.743  0.00  0.00    +0.000 C 
ENDBRANCH  12  18
ENDBRANCH   1  12
BRANCH   7  21
ATOM     21  C   UNL     1       1.625   7.946  21.025  0.00  0.00    +0.000 C 
BRANCH  21  22
ATOM     22  C   UNL     1       0.931   8.960  20.143  0.00  0.00    +0.000 A 
ATOM     23  C   UNL     1       1.327   9.146  18.811  0.00  0.00    +0.000 A 
ATOM     24  C   UNL     1       0.635  10.040  17.990  0.00  0.00    +0.000 A 
ATOM     25  C   UNL     1      -0.463  10.741  18.487  0.00  0.00    +0.000 A 
ATOM     26  C   UNL     1      -0.860  10.569  19.810  0.00  0.00    +0.000 A 
ATOM     27  C   UNL     1      -0.159   9.694  20.638  0.00  0.00    +0.000 A 
ENDBRANCH  21  22
ENDBRANCH   7  21
TORSDOF 5
ENDMDL
MODEL 9
REMARK VINA RESULT:      -7.7      1.982      2.717
REMARK  Name = 
REMARK  5 active torsions:
REMARK  status: ('A' for Active; 'I' for Inactive)
REMARK    1  A    between atoms: N_6  and  C_7
REMARK    2  A    between atoms: C_7  and  C_8
REMARK    3  A    between atoms: C_9  and  O_10
REMARK    4  A    between atoms: C_15  and  C_16
REMARK    5  A    between atoms: C_16  and  C_17
REMARK                            x       y       z     vdW  Elec       q    Type
REMARK                         _______ _______ _______ _____ _____    ______ ____
ROOT
ATOM      1  C   UNL     1       3.478   5.271  18.205  0.00  0.00    +0.000 A 
ATOM      2  C   UNL     1       3.389   4.413  19.328  0.00  0.00    +0.000 A 
ATOM      3  C   UNL     1       2.633   4.695  20.469  0.00  0.00    +0.000 A 
ATOM      4  C   UNL     1       2.002   5.924  20.621  0.00  0.00    +0.000 A 
ATOM      5  C   UNL     1       2.204   6.828  19.589  0.00  0.00    +0.000 A 
ATOM      6  O   UNL     1       1.756   8.113  19.588  0.00  0.00    +0.000 OA
ATOM      7  C   UNL     1       2.186   8.689  18.433  0.00  0.00    +0.000 A 
ATOM      8  C   UNL     1       2.887   7.770  17.683  0.00  0.00    +0.000 A 
ATOM      9  C   UNL     1       2.902   6.552  18.417  0.00  0.00    +0.000 A 
ENDROOT
BRANCH   2  10
ATOM     10  O   UNL     1       4.126   3.264  19.420  0.00  0.00    +0.000 OA
ATOM     11  H   UNL     1       3.737   2.765  20.156  0.00  0.00    +0.000 HD
ENDBRANCH   2  10
BRANCH   1  12
ATOM     12  C   UNL     1       4.184   4.934  16.892  0.00  0.00    +0.000 C 
BRANCH  12  18
ATOM     13  O   UNL     1       8.639   5.954  13.410  0.00  0.00    +0.000 OA
ATOM     14  C   UNL     1       7.777   5.062  13.466  0.00  0.00    +0.000 C 
ATOM     15  N   UNL     1       6.824   4.950  14.440  0.00  0.00    +0.000 N 
ATOM     16  C   UNL     1       5.821   3.882  14.467  0.00  0.00    +0.000 C 
ATOM     17  C   UNL     1       5.688   3.279  15.889  0.00  0.00    +0.000 C 
ATOM     18  N   UNL     1       5.506   4.270  16.990  0.00  0.00    +0.000 NA
ATOM     19  C   UNL     1       6.644   5.229  16.881  0.00  0.00    +0.000 C 
ATOM     20  C   UNL     1       6.738   5.933  15.510  0.00  0.00    +0.000 C 
ENDBRANCH  12  18
ENDBRANCH   1  12
BRANCH   7  21
ATOM     21  C   UNL     1       1.823  10.114  18.222  0.00  0.00    +0.000 C 
BRANCH  21  22
ATOM     22  C   UNL     1       0.362  10.403  18.486  0.00  0.00    +0.000 A 
ATOM     23  C   UNL     1      -0.025  11.290  19.501  0.00  0.00    +0.000 A 
ATOM     24  C   UNL     1      -1.375  11.596  19.690  0.00  0.00    +0.000 A 
ATOM     25  C   UNL     1      -2.344  11.034  18.860  0.00  0.00    +0.000 A 
ATOM     26  C   UNL     1      -1.971  10.147  17.854  0.00  0.00    +0.000 A 
ATOM     27  C   UNL     1      -0.628   9.823  17.676  0.00  0.00    +0.000 A 
ENDBRANCH  21  22
ENDBRANCH   7  21
TORSDOF 5
ENDMDL
