MODEL 1
REMARK VINA RESULT:      -8.1      0.000      0.000
REMARK  Name = 
REMARK  5 active torsions:
REMARK  status: ('A' for Active; 'I' for Inactive)
REMARK    1  A    between atoms: C_1  and  C_2
REMARK    2  A    between atoms: N_6  and  S_7
REMARK    3  A    between atoms: S_7  and  C_10
REMARK    4  A    between atoms: C_13  and  C_14
REMARK    5  A    between atoms: C_14  and  N_15
REMARK                            x       y       z     vdW  Elec       q    Type
REMARK                         _______ _______ _______ _____ _____    ______ ____
ROOT
ATOM      1  C   UNL     1       2.218   7.106  18.995  0.00  0.00    +0.000 A 
ATOM      2  C   UNL     1       2.289   7.874  17.828  0.00  0.00    +0.000 A 
ATOM      3  C   UNL     1       1.943   9.233  17.868  0.00  0.00    +0.000 A 
ATOM      4  C   UNL     1       1.466   9.824  19.050  0.00  0.00    +0.000 A 
ATOM      5  C   UNL     1       1.340   9.021  20.196  0.00  0.00    +0.000 A 
ATOM      6  C   UNL     1       1.741   7.678  20.176  0.00  0.00    +0.000 A 
ENDROOT
BRANCH   1   7
ATOM      7  S   UNL     1       2.742   5.387  19.003  0.00  0.00    +0.000 S 
ATOM      8  O   UNL     1       1.752   4.635  18.261  0.00  0.00    +0.000 OA
ATOM      9  O   UNL     1       3.077   5.043  20.365  0.00  0.00    +0.000 OA
BRANCH   7  15
ATOM     10  C   UNL     1       5.566   5.625  15.230  0.00  0.00    +0.000 C 
ATOM     11  C   UNL     1       5.599   4.441  16.200  0.00  0.00    +0.000 C 
ATOM     12  C   UNL     1       6.814   4.485  17.127  0.00  0.00    +0.000 C 
ATOM     13  C   UNL     1       6.697   5.633  18.117  0.00  0.00    +0.000 C 
ATOM     14  C   UNL     1       5.407   5.533  18.918  0.00  0.00    +0.000 C 
ATOM     15  N   UNL     1       4.206   5.415  18.061  0.00  0.00    +0.000 NA
ATOM     16  C   UNL     1       4.302   4.352  17.016  0.00  0.00    +0.000 C 
ENDBRANCH   7  15
ENDBRANCH   1   7
BRANCH   4  17
ATOM     17  C   UNL     1       1.163  11.313  19.100  0.00  0.00    +0.000 C 
BRANCH  17  18
ATOM     18  N   UNL     1      -0.147  11.623  19.632  0.00  0.00    +0.000 N 
ATOM     19  C   UNL     1      -0.406  11.939  20.936  0.00  0.00    +0.000 C 
ATOM     20  O   UNL     1       0.361  12.007  21.880  0.00  0.00    +0.000 OA
ATOM     21  C   UNL     1      -1.835  12.212  21.029  0.00  0.00    +0.000 A 
ATOM     22  C   UNL     1      -2.635  12.645  22.068  0.00  0.00    +0.000 A 
ATOM     23  C   UNL     1      -3.977  12.895  21.766  0.00  0.00    +0.000 A 
ATOM     24  C   UNL     1      -4.434  12.697  20.455  0.00  0.00    +0.000 A 
ATOM     25  N   UNL     1      -3.660  12.246  19.438  0.00  0.00    +0.000 NA
ATOM     26  C   UNL     1      -2.377  12.024  19.783  0.00  0.00    +0.000 A 
ATOM     27  C   UNL     1      -1.298  11.591  18.880  0.00  0.00    +0.000 C 
ATOM     28  O   UNL     1      -1.420  11.246  17.727  0.00  0.00    +0.000 OA
ENDBRANCH  17  18
ENDBRANCH   4  17
TORSDOF 4
ENDMDL
MODEL 2
REMARK VINA RESULT:      -8.1      2.925      4.482
REMARK  Name = 
REMARK  5 active torsions:
REMARK  status: ('A' for Active; 'I' for Inactive)
REMARK    1  A    between atoms: C_1  and  C_2
REMARK    2  A    between atoms: N_6  and  S_7
REMARK    3  A    between atoms: S_7  and  C_10
REMARK    4  A    between atoms: C_13  and  C_14
REMARK    5  A    between atoms: C_14  and  N_15
REMARK                            x       y       z     vdW  Elec       q    Type
REMARK                         _______ _______ _______ _____ _____    ______ ____
ROOT
ATOM      1  C   UNL     1       2.761   7.232  18.761  0.00  0.00    +0.000 A 
ATOM      2  C   UNL     1       2.120   7.519  19.970  0.00  0.00    +0.000 A 
ATOM      3  C   UNL     1       1.329   8.672  20.081  0.00  0.00    +0.000 A 
ATOM      4  C   UNL     1       1.217   9.579  19.015  0.00  0.00    +0.000 A 
ATOM      5  C   UNL     1       1.920   9.308  17.829  0.00  0.00    +0.000 A 
ATOM      6  C   UNL     1       2.664   8.126  17.693  0.00  0.00    +0.000 A 
ENDROOT
BRANCH   1   7
ATOM      7  S   UNL     1       3.706   5.718  18.552  0.00  0.00    +0.000 S 
ATOM      8  O   UNL     1       4.834   5.790  19.457  0.00  0.00    +0.000 OA
ATOM      9  O   UNL     1       3.896   5.518  17.134  0.00  0.00    +0.000 OA
BRANCH   7  15
ATOM     10  C   UNL     1       1.415   2.950  21.610  0.00  0.00    +0.000 C 
ATOM     11  C   UNL     1       2.269   2.379  20.476  0.00  0.00    +0.000 C 
ATOM     12  C   UNL     1       1.420   1.834  19.327  0.00  0.00    +0.000 C 
ATOM     13  C   UNL     1       0.723   2.964  18.587  0.00  0.00    +0.000 C 
ATOM     14  C   UNL     1       1.729   3.987  18.080  0.00  0.00    +0.000 C 
ATOM     15  N   UNL     1       2.624   4.490  19.146  0.00  0.00    +0.000 NA
ATOM     16  C   UNL     1       3.273   3.418  19.957  0.00  0.00    +0.000 C 
ENDBRANCH   7  15
ENDBRANCH   1   7
BRANCH   4  17
ATOM     17  C   UNL     1       0.300  10.786  19.122  0.00  0.00    +0.000 C 
BRANCH  17  18
ATOM     18  N   UNL     1       0.946  11.962  19.665  0.00  0.00    +0.000 N 
ATOM     19  C   UNL     1       1.810  12.767  18.977  0.00  0.00    +0.000 C 
ATOM     20  O   UNL     1       2.213  12.665  17.833  0.00  0.00    +0.000 OA
ATOM     21  C   UNL     1       2.193  13.846  19.880  0.00  0.00    +0.000 A 
ATOM     22  C   UNL     1       2.973  14.972  19.708  0.00  0.00    +0.000 A 
ATOM     23  C   UNL     1       3.048  15.855  20.789  0.00  0.00    +0.000 A 
ATOM     24  C   UNL     1       2.347  15.560  21.967  0.00  0.00    +0.000 A 
ATOM     25  N   UNL     1       1.603  14.443  22.152  0.00  0.00    +0.000 NA
ATOM     26  C   UNL     1       1.562  13.629  21.080  0.00  0.00    +0.000 A 
ATOM     27  C   UNL     1       0.791  12.380  20.966  0.00  0.00    +0.000 C 
ATOM     28  O   UNL     1       0.182  11.829  21.853  0.00  0.00    +0.000 OA
ENDBRANCH  17  18
ENDBRANCH   4  17
TORSDOF 4
ENDMDL
MODEL 3
REMARK VINA RESULT:      -8.1      1.161      2.195
REMARK  Name = 
REMARK  5 active torsions:
REMARK  status: ('A' for Active; 'I' for Inactive)
REMARK    1  A    between atoms: C_1  and  C_2
REMARK    2  A    between atoms: N_6  and  S_7
REMARK    3  A    between atoms: S_7  and  C_10
REMARK    4  A    between atoms: C_13  and  C_14
REMARK    5  A    between atoms: C_14  and  N_15
REMARK                            x       y       z     vdW  Elec       q    Type
REMARK                         _______ _______ _______ _____ _____    ______ ____
ROOT
ATOM      1  C   UNL     1       2.253   7.142  19.019  0.00  0.00    +0.000 A 
ATOM      2  C   UNL     1       1.621   7.704  20.133  0.00  0.00    +0.000 A 
ATOM      3  C   UNL     1       1.175   9.034  20.082  0.00  0.00    +0.000 A 
ATOM      4  C   UNL     1       1.407   9.832  18.950  0.00  0.00    +0.000 A 
ATOM      5  C   UNL     1       2.101   9.270  17.865  0.00  0.00    +0.000 A 
ATOM      6  C   UNL     1       2.495   7.924  17.888  0.00  0.00    +0.000 A 
ENDROOT
BRANCH   1   7
ATOM      7  S   UNL     1       2.754   5.416  19.014  0.00  0.00    +0.000 S 
ATOM      8  O   UNL     1       1.749   4.682  18.274  0.00  0.00    +0.000 OA
ATOM      9  O   UNL     1       3.093   5.059  20.372  0.00  0.00    +0.000 OA
BRANCH   7  15
ATOM     10  C   UNL     1       5.554   5.623  15.222  0.00  0.00    +0.000 C 
ATOM     11  C   UNL     1       5.584   4.441  16.194  0.00  0.00    +0.000 C 
ATOM     12  C   UNL     1       6.805   4.476  17.112  0.00  0.00    +0.000 C 
ATOM     13  C   UNL     1       6.705   5.626  18.101  0.00  0.00    +0.000 C 
ATOM     14  C   UNL     1       5.419   5.539  18.911  0.00  0.00    +0.000 C 
ATOM     15  N   UNL     1       4.212   5.430  18.062  0.00  0.00    +0.000 NA
ATOM     16  C   UNL     1       4.291   4.365  17.019  0.00  0.00    +0.000 C 
ENDBRANCH   7  15
ENDBRANCH   1   7
BRANCH   4  17
ATOM     17  C   UNL     1       0.856  11.246  18.879  0.00  0.00    +0.000 C 
BRANCH  17  18
ATOM     18  N   UNL     1      -0.587  11.305  18.766  0.00  0.00    +0.000 N 
ATOM     19  C   UNL     1      -1.337  10.528  17.928  0.00  0.00    +0.000 C 
ATOM     20  O   UNL     1      -0.975   9.682  17.130  0.00  0.00    +0.000 OA
ATOM     21  C   UNL     1      -2.733  10.882  18.159  0.00  0.00    +0.000 A 
ATOM     22  C   UNL     1      -3.917  10.380  17.657  0.00  0.00    +0.000 A 
ATOM     23  C   UNL     1      -5.098  10.911  18.184  0.00  0.00    +0.000 A 
ATOM     24  C   UNL     1      -5.024  11.906  19.170  0.00  0.00    +0.000 A 
ATOM     25  N   UNL     1      -3.864  12.423  19.645  0.00  0.00    +0.000 NA
ATOM     26  C   UNL     1      -2.759  11.875  19.107  0.00  0.00    +0.000 A 
ATOM     27  C   UNL     1      -1.368  12.192  19.469  0.00  0.00    +0.000 C 
ATOM     28  O   UNL     1      -1.001  13.077  20.207  0.00  0.00    +0.000 OA
ENDBRANCH  17  18
ENDBRANCH   4  17
TORSDOF 4
ENDMDL
MODEL 4
REMARK VINA RESULT:      -8.1      2.289      3.680
REMARK  Name = 
REMARK  5 active torsions:
REMARK  status: ('A' for Active; 'I' for Inactive)
REMARK    1  A    between atoms: C_1  and  C_2
REMARK    2  A    between atoms: N_6  and  S_7
REMARK    3  A    between atoms: S_7  and  C_10
REMARK    4  A    between atoms: C_13  and  C_14
REMARK    5  A    between atoms: C_14  and  N_15
REMARK                            x       y       z     vdW  Elec       q    Type
REMARK                         _______ _______ _______ _____ _____    ______ ____
ROOT
ATOM      1  C   UNL     1       2.251   7.003  19.125  0.00  0.00    +0.000 A 
ATOM      2  C   UNL     1       1.743   7.589  20.288  0.00  0.00    +0.000 A 
ATOM      3  C   UNL     1       1.186   8.876  20.232  0.00  0.00    +0.000 A 
ATOM      4  C   UNL     1       1.186   9.613  19.037  0.00  0.00    +0.000 A 
ATOM      5  C   UNL     1       1.760   9.034  17.893  0.00  0.00    +0.000 A 
ATOM      6  C   UNL     1       2.263   7.725  17.930  0.00  0.00    +0.000 A 
ENDROOT
BRANCH   1   7
ATOM      7  S   UNL     1       2.886   5.321  19.138  0.00  0.00    +0.000 S 
ATOM      8  O   UNL     1       1.916   4.493  18.453  0.00  0.00    +0.000 OA
ATOM      9  O   UNL     1       3.300   5.026  20.490  0.00  0.00    +0.000 OA
BRANCH   7  15
ATOM     10  C   UNL     1       5.525   5.825  15.260  0.00  0.00    +0.000 C 
ATOM     11  C   UNL     1       5.616   4.585  16.152  0.00  0.00    +0.000 C 
ATOM     12  C   UNL     1       6.872   4.587  17.022  0.00  0.00    +0.000 C 
ATOM     13  C   UNL     1       6.792   5.670  18.086  0.00  0.00    +0.000 C 
ATOM     14  C   UNL     1       5.542   5.506  18.939  0.00  0.00    +0.000 C 
ATOM     15  N   UNL     1       4.303   5.425  18.133  0.00  0.00    +0.000 NA
ATOM     16  C   UNL     1       4.360   4.430  17.021  0.00  0.00    +0.000 C 
ENDBRANCH   7  15
ENDBRANCH   1   7
BRANCH   4  17
ATOM     17  C   UNL     1       0.516  10.976  18.972  0.00  0.00    +0.000 C 
BRANCH  17  18
ATOM     18  N   UNL     1       1.317  12.046  19.530  0.00  0.00    +0.000 N 
ATOM     19  C   UNL     1       2.321  12.696  18.869  0.00  0.00    +0.000 C 
ATOM     20  O   UNL     1       2.746  12.515  17.742  0.00  0.00    +0.000 OA
ATOM     21  C   UNL     1       2.834  13.716  19.776  0.00  0.00    +0.000 A 
ATOM     22  C   UNL     1       3.785  14.705  19.624  0.00  0.00    +0.000 A 
ATOM     23  C   UNL     1       3.957  15.582  20.699  0.00  0.00    +0.000 A 
ATOM     24  C   UNL     1       3.174  15.418  21.852  0.00  0.00    +0.000 A 
ATOM     25  N   UNL     1       2.259  14.432  22.017  0.00  0.00    +0.000 NA
ATOM     26  C   UNL     1       2.133  13.618  20.952  0.00  0.00    +0.000 A 
ATOM     27  C   UNL     1       1.181  12.502  20.820  0.00  0.00    +0.000 C 
ATOM     28  O   UNL     1       0.461  12.066  21.687  0.00  0.00    +0.000 OA
ENDBRANCH  17  18
ENDBRANCH   4  17
TORSDOF 4
ENDMDL
MODEL 5
REMARK VINA RESULT:      -8.0      1.962      9.248
REMARK  Name = 
REMARK  5 active torsions:
REMARK  status: ('A' for Active; 'I' for Inactive)
REMARK    1  A    between atoms: C_1  and  C_2
REMARK    2  A    between atoms: N_6  and  S_7
REMARK    3  A    between atoms: S_7  and  C_10
REMARK    4  A    between atoms: C_13  and  C_14
REMARK    5  A    between atoms: C_14  and  N_15
REMARK                            x       y       z     vdW  Elec       q    Type
REMARK                         _______ _______ _______ _____ _____    ______ ____
ROOT
ATOM      1  C   UNL     1       1.345   9.237  19.742  0.00  0.00    +0.000 A 
ATOM      2  C   UNL     1       1.143   8.418  20.857  0.00  0.00    +0.000 A 
ATOM      3  C   UNL     1       1.584   7.086  20.832  0.00  0.00    +0.000 A 
ATOM      4  C   UNL     1       2.173   6.541  19.679  0.00  0.00    +0.000 A 
ATOM      5  C   UNL     1       2.309   7.360  18.545  0.00  0.00    +0.000 A 
ATOM      6  C   UNL     1       1.924   8.708  18.586  0.00  0.00    +0.000 A 
ENDROOT
BRANCH   1   7
ATOM      7  S   UNL     1       0.878  10.972  19.772  0.00  0.00    +0.000 S 
ATOM      8  O   UNL     1       1.633  11.636  18.730  0.00  0.00    +0.000 OA
ATOM      9  O   UNL     1       0.947  11.415  21.145  0.00  0.00    +0.000 OA
BRANCH   7  15
ATOM     10  C   UNL     1      -3.146   9.383  17.888  0.00  0.00    +0.000 C 
ATOM     11  C   UNL     1      -2.504  10.701  17.448  0.00  0.00    +0.000 C 
ATOM     12  C   UNL     1      -3.235  11.919  18.011  0.00  0.00    +0.000 C 
ATOM     13  C   UNL     1      -3.037  12.021  19.515  0.00  0.00    +0.000 C 
ATOM     14  C   UNL     1      -1.557  12.064  19.869  0.00  0.00    +0.000 C 
ATOM     15  N   UNL     1      -0.793  10.941  19.282  0.00  0.00    +0.000 NA
ATOM     16  C   UNL     1      -1.015  10.747  17.819  0.00  0.00    +0.000 C 
ENDBRANCH   7  15
ENDBRANCH   1   7
BRANCH   4  17
ATOM     17  C   UNL     1       2.712   5.120  19.687  0.00  0.00    +0.000 C 
BRANCH  17  18
ATOM     18  N   UNL     1       3.676   4.857  18.639  0.00  0.00    +0.000 N 
ATOM     19  C   UNL     1       3.385   4.276  17.437  0.00  0.00    +0.000 C 
ATOM     20  O   UNL     1       2.318   3.863  17.019  0.00  0.00    +0.000 OA
ATOM     21  C   UNL     1       4.627   4.234  16.675  0.00  0.00    +0.000 A 
ATOM     22  C   UNL     1       4.916   3.829  15.387  0.00  0.00    +0.000 A 
ATOM     23  C   UNL     1       6.229   4.021  14.949  0.00  0.00    +0.000 A 
ATOM     24  C   UNL     1       7.166   4.599  15.818  0.00  0.00    +0.000 A 
ATOM     25  N   UNL     1       6.895   4.972  17.092  0.00  0.00    +0.000 NA
ATOM     26  C   UNL     1       5.616   4.767  17.462  0.00  0.00    +0.000 A 
ATOM     27  C   UNL     1       5.020   5.127  18.759  0.00  0.00    +0.000 C 
ATOM     28  O   UNL     1       5.608   5.541  19.730  0.00  0.00    +0.000 OA
ENDBRANCH  17  18
ENDBRANCH   4  17
TORSDOF 4
ENDMDL
MODEL 6
REMARK VINA RESULT:      -8.0      0.922      1.444
REMARK  Name = 
REMARK  5 active torsions:
REMARK  status: ('A' for Active; 'I' for Inactive)
REMARK    1  A    between atoms: C_1  and  C_2
REMARK    2  A    between atoms: N_6  and  S_7
REMARK    3  A    between atoms: S_7  and  C_10
REMARK    4  A    between atoms: C_13  and  C_14
REMARK    5  A    between atoms: C_14  and  N_15
REMARK                            x       y       z     vdW  Elec       q    Type
REMARK                         _______ _______ _______ _____ _____    ______ ____
ROOT
ATOM      1  C   UNL     1       2.212   7.235  19.028  0.00  0.00    +0.000 A 
ATOM      2  C   UNL     1       1.622   7.850  20.135  0.00  0.00    +0.000 A 
ATOM      3  C   UNL     1       1.208   9.188  20.049  0.00  0.00    +0.000 A 
ATOM      4  C   UNL     1       1.431   9.941  18.885  0.00  0.00    +0.000 A 
ATOM      5  C   UNL     1       2.083   9.325  17.804  0.00  0.00    +0.000 A 
ATOM      6  C   UNL     1       2.445   7.971  17.864  0.00  0.00    +0.000 A 
ENDROOT
BRANCH   1   7
ATOM      7  S   UNL     1       2.669   5.497  19.070  0.00  0.00    +0.000 S 
ATOM      8  O   UNL     1       1.666   4.772  18.319  0.00  0.00    +0.000 OA
ATOM      9  O   UNL     1       2.964   5.160  20.444  0.00  0.00    +0.000 OA
BRANCH   7  15
ATOM     10  C   UNL     1       5.577   5.616  15.356  0.00  0.00    +0.000 C 
ATOM     11  C   UNL     1       5.529   4.424  16.316  0.00  0.00    +0.000 C 
ATOM     12  C   UNL     1       6.725   4.396  17.267  0.00  0.00    +0.000 C 
ATOM     13  C   UNL     1       6.649   5.541  18.265  0.00  0.00    +0.000 C 
ATOM     14  C   UNL     1       5.339   5.503  19.040  0.00  0.00    +0.000 C 
ATOM     15  N   UNL     1       4.151   5.455  18.158  0.00  0.00    +0.000 NA
ATOM     16  C   UNL     1       4.212   4.398  17.106  0.00  0.00    +0.000 C 
ENDBRANCH   7  15
ENDBRANCH   1   7
BRANCH   4  17
ATOM     17  C   UNL     1       0.914  11.366  18.777  0.00  0.00    +0.000 C 
BRANCH  17  18
ATOM     18  N   UNL     1      -0.525  11.475  18.903  0.00  0.00    +0.000 N 
ATOM     19  C   UNL     1      -1.173  12.226  19.843  0.00  0.00    +0.000 C 
ATOM     20  O   UNL     1      -0.708  12.912  20.736  0.00  0.00    +0.000 OA
ATOM     21  C   UNL     1      -2.601  12.081  19.590  0.00  0.00    +0.000 A 
ATOM     22  C   UNL     1      -3.713  12.660  20.169  0.00  0.00    +0.000 A 
ATOM     23  C   UNL     1      -4.951  12.352  19.597  0.00  0.00    +0.000 A 
ATOM     24  C   UNL     1      -5.001  11.489  18.492  0.00  0.00    +0.000 A 
ATOM     25  N   UNL     1      -3.916  10.896  17.938  0.00  0.00    +0.000 NA
ATOM     26  C   UNL     1      -2.751  11.228  18.525  0.00  0.00    +0.000 A 
ATOM     27  C   UNL     1      -1.410  10.789  18.105  0.00  0.00    +0.000 C 
ATOM     28  O   UNL     1      -1.157   9.966  17.256  0.00  0.00    +0.000 OA
ENDBRANCH  17  18
ENDBRANCH   4  17
TORSDOF 4
ENDMDL
MODEL 7
REMARK VINA RESULT:      -8.0      2.334      9.472
REMARK  Name = 
REMARK  5 active torsions:
REMARK  status: ('A' for Active; 'I' for Inactive)
REMARK    1  A    between atoms: C_1  and  C_2
REMARK    2  A    between atoms: N_6  and  S_7
REMARK    3  A    between atoms: S_7  and  C_10
REMARK    4  A    between atoms: C_13  and  C_14
REMARK    5  A    between atoms: C_14  and  N_15
REMARK                            x       y       z     vdW  Elec       q    Type
REMARK                         _______ _______ _______ _____ _____    ______ ____
ROOT
ATOM      1  C   UNL     1       1.682   8.890  18.879  0.00  0.00    +0.000 A 
ATOM      2  C   UNL     1       1.617   7.980  19.939  0.00  0.00    +0.000 A 
ATOM      3  C   UNL     1       2.462   6.860  19.946  0.00  0.00    +0.000 A 
ATOM      4  C   UNL     1       3.332   6.603  18.874  0.00  0.00    +0.000 A 
ATOM      5  C   UNL     1       3.337   7.493  17.788  0.00  0.00    +0.000 A 
ATOM      6  C   UNL     1       2.538   8.646  17.804  0.00  0.00    +0.000 A 
ENDROOT
BRANCH   1   7
ATOM      7  S   UNL     1       0.683  10.384  18.881  0.00  0.00    +0.000 S 
ATOM      8  O   UNL     1      -0.549  10.075  18.187  0.00  0.00    +0.000 OA
ATOM      9  O   UNL     1       1.531  11.473  18.453  0.00  0.00    +0.000 OA
BRANCH   7  15
ATOM     10  C   UNL     1       0.395   9.473  23.502  0.00  0.00    +0.000 C 
ATOM     11  C   UNL     1      -0.842   9.774  22.652  0.00  0.00    +0.000 C 
ATOM     12  C   UNL     1      -1.376  11.187  22.885  0.00  0.00    +0.000 C 
ATOM     13  C   UNL     1      -0.416  12.227  22.329  0.00  0.00    +0.000 C 
ATOM     14  C   UNL     1      -0.147  11.985  20.850  0.00  0.00    +0.000 C 
ATOM     15  N   UNL     1       0.304  10.605  20.566  0.00  0.00    +0.000 NA
ATOM     16  C   UNL     1      -0.562   9.543  21.160  0.00  0.00    +0.000 C 
ENDBRANCH   7  15
ENDBRANCH   1   7
BRANCH   4  17
ATOM     17  C   UNL     1       4.293   5.427  18.927  0.00  0.00    +0.000 C 
BRANCH  17  18
ATOM     18  N   UNL     1       4.944   5.149  17.663  0.00  0.00    +0.000 N 
ATOM     19  C   UNL     1       4.453   4.313  16.699  0.00  0.00    +0.000 C 
ATOM     20  O   UNL     1       3.433   3.647  16.702  0.00  0.00    +0.000 OA
ATOM     21  C   UNL     1       5.395   4.351  15.587  0.00  0.00    +0.000 A 
ATOM     22  C   UNL     1       5.381   3.773  14.333  0.00  0.00    +0.000 A 
ATOM     23  C   UNL     1       6.430   4.110  13.474  0.00  0.00    +0.000 A 
ATOM     24  C   UNL     1       7.424   4.995  13.917  0.00  0.00    +0.000 A 
ATOM     25  N   UNL     1       7.458   5.544  15.156  0.00  0.00    +0.000 NA
ATOM     26  C   UNL     1       6.424   5.188  15.941  0.00  0.00    +0.000 A 
ATOM     27  C   UNL     1       6.166   5.670  17.308  0.00  0.00    +0.000 C 
ATOM     28  O   UNL     1       6.902   6.354  17.980  0.00  0.00    +0.000 OA
ENDBRANCH  17  18
ENDBRANCH   4  17
TORSDOF 4
ENDMDL
MODEL 8
REMARK VINA RESULT:      -7.9      0.656      1.662
REMARK  Name = 
REMARK  5 active torsions:
REMARK  status: ('A' for Active; 'I' for Inactive)
REMARK    1  A    between atoms: C_1  and  C_2
REMARK    2  A    between atoms: N_6  and  S_7
REMARK    3  A    between atoms: S_7  and  C_10
REMARK    4  A    between atoms: C_13  and  C_14
REMARK    5  A    between atoms: C_14  and  N_15
REMARK                            x       y       z     vdW  Elec       q    Type
REMARK                         _______ _______ _______ _____ _____    ______ ____
ROOT
ATOM      1  C   UNL     1       2.159   7.221  18.999  0.00  0.00    +0.000 A 
ATOM      2  C   UNL     1       2.284   7.979  17.831  0.00  0.00    +0.000 A 
ATOM      3  C   UNL     1       1.959   9.344  17.849  0.00  0.00    +0.000 A 
ATOM      4  C   UNL     1       1.449   9.951  19.008  0.00  0.00    +0.000 A 
ATOM      5  C   UNL     1       1.269   9.159  20.155  0.00  0.00    +0.000 A 
ATOM      6  C   UNL     1       1.649   7.809  20.159  0.00  0.00    +0.000 A 
ENDROOT
BRANCH   1   7
ATOM      7  S   UNL     1       2.655   5.494  19.039  0.00  0.00    +0.000 S 
ATOM      8  O   UNL     1       1.662   4.747  18.296  0.00  0.00    +0.000 OA
ATOM      9  O   UNL     1       2.968   5.164  20.410  0.00  0.00    +0.000 OA
BRANCH   7  15
ATOM     10  C   UNL     1       5.532   5.709  15.306  0.00  0.00    +0.000 C 
ATOM     11  C   UNL     1       5.505   4.501  16.245  0.00  0.00    +0.000 C 
ATOM     12  C   UNL     1       6.709   4.470  17.186  0.00  0.00    +0.000 C 
ATOM     13  C   UNL     1       6.628   5.596  18.205  0.00  0.00    +0.000 C 
ATOM     14  C   UNL     1       5.324   5.531  18.988  0.00  0.00    +0.000 C 
ATOM     15  N   UNL     1       4.130   5.485  18.115  0.00  0.00    +0.000 NA
ATOM     16  C   UNL     1       4.195   4.446  17.044  0.00  0.00    +0.000 C 
ENDBRANCH   7  15
ENDBRANCH   1   7
BRANCH   4  17
ATOM     17  C   UNL     1       1.169  11.444  19.036  0.00  0.00    +0.000 C 
BRANCH  17  18
ATOM     18  N   UNL     1      -0.120  11.784  19.603  0.00  0.00    +0.000 N 
ATOM     19  C   UNL     1      -1.286  11.875  18.895  0.00  0.00    +0.000 C 
ATOM     20  O   UNL     1      -1.478  11.716  17.703  0.00  0.00    +0.000 OA
ATOM     21  C   UNL     1      -2.337  12.202  19.850  0.00  0.00    +0.000 A 
ATOM     22  C   UNL     1      -3.704  12.342  19.720  0.00  0.00    +0.000 A 
ATOM     23  C   UNL     1      -4.427  12.572  20.894  0.00  0.00    +0.000 A 
ATOM     24  C   UNL     1      -3.745  12.651  22.117  0.00  0.00    +0.000 A 
ATOM     25  N   UNL     1      -2.400  12.542  22.247  0.00  0.00    +0.000 NA
ATOM     26  C   UNL     1      -1.754  12.319  21.087  0.00  0.00    +0.000 A 
ATOM     27  C   UNL     1      -0.307  12.100  20.928  0.00  0.00    +0.000 C 
ATOM     28  O   UNL     1       0.536  12.215  21.788  0.00  0.00    +0.000 OA
ENDBRANCH  17  18
ENDBRANCH   4  17
TORSDOF 4
ENDMDL
MODEL 9
REMARK VINA RESULT:      -7.9      0.852      1.793
REMARK  Name = 
REMARK  5 active torsions:
REMARK  status: ('A' for Active; 'I' for Inactive)
REMARK    1  A    between atoms: C_1  and  C_2
REMARK    2  A    between atoms: N_6  and  S_7
REMARK    3  A    between atoms: S_7  and  C_10
REMARK    4  A    between atoms: C_13  and  C_14
REMARK    5  A    between atoms: C_14  and  N_15
REMARK                            x       y       z     vdW  Elec       q    Type
REMARK                         _______ _______ _______ _____ _____    ______ ____
ROOT
ATOM      1  C   UNL     1       2.246   7.071  19.005  0.00  0.00    +0.000 A 
ATOM      2  C   UNL     1       2.386   7.831  17.840  0.00  0.00    +0.000 A 
ATOM      3  C   UNL     1       1.995   9.179  17.839  0.00  0.00    +0.000 A 
ATOM      4  C   UNL     1       1.409   9.764  18.972  0.00  0.00    +0.000 A 
ATOM      5  C   UNL     1       1.217   8.967  20.114  0.00  0.00    +0.000 A 
ATOM      6  C   UNL     1       1.660   7.636  20.139  0.00  0.00    +0.000 A 
ENDROOT
BRANCH   1   7
ATOM      7  S   UNL     1       2.821   5.369  19.072  0.00  0.00    +0.000 S 
ATOM      8  O   UNL     1       1.840   4.559  18.380  0.00  0.00    +0.000 OA
ATOM      9  O   UNL     1       3.190   5.091  20.440  0.00  0.00    +0.000 OA
BRANCH   7  15
ATOM     10  C   UNL     1       5.570   5.621  15.246  0.00  0.00    +0.000 C 
ATOM     11  C   UNL     1       5.623   4.434  16.210  0.00  0.00    +0.000 C 
ATOM     12  C   UNL     1       6.855   4.475  17.114  0.00  0.00    +0.000 C 
ATOM     13  C   UNL     1       6.758   5.619  18.110  0.00  0.00    +0.000 C 
ATOM     14  C   UNL     1       5.483   5.517  18.936  0.00  0.00    +0.000 C 
ATOM     15  N   UNL     1       4.266   5.401  18.102  0.00  0.00    +0.000 NA
ATOM     16  C   UNL     1       4.342   4.342  17.052  0.00  0.00    +0.000 C 
ENDBRANCH   7  15
ENDBRANCH   1   7
BRANCH   4  17
ATOM     17  C   UNL     1       1.057  11.242  18.983  0.00  0.00    +0.000 C 
BRANCH  17  18
ATOM     18  N   UNL     1      -0.367  11.502  19.040  0.00  0.00    +0.000 N 
ATOM     19  C   UNL     1      -1.292  10.975  18.183  0.00  0.00    +0.000 C 
ATOM     20  O   UNL     1      -1.127  10.230  17.233  0.00  0.00    +0.000 OA
ATOM     21  C   UNL     1      -2.596  11.463  18.616  0.00  0.00    +0.000 A 
ATOM     22  C   UNL     1      -3.880  11.204  18.178  0.00  0.00    +0.000 A 
ATOM     23  C   UNL     1      -4.921  11.789  18.905  0.00  0.00    +0.000 A 
ATOM     24  C   UNL     1      -4.618  12.593  20.013  0.00  0.00    +0.000 A 
ATOM     25  N   UNL     1      -3.359  12.873  20.430  0.00  0.00    +0.000 NA
ATOM     26  C   UNL     1      -2.395  12.283  19.698  0.00  0.00    +0.000 A 
ATOM     27  C   UNL     1      -0.947  12.356  19.948  0.00  0.00    +0.000 C 
ATOM     28  O   UNL     1      -0.393  13.055  20.765  0.00  0.00    +0.000 OA
ENDBRANCH  17  18
ENDBRANCH   4  17
TORSDOF 4
ENDMDL
