MODEL 1
REMARK VINA RESULT:      -7.1      0.000      0.000
REMARK  Name = 
REMARK  4 active torsions:
REMARK  status: ('A' for Active; 'I' for Inactive)
REMARK    1  A    between atoms: C_2  and  C_10
REMARK    2  A    between atoms: N_3  and  C_4
REMARK    3  A    between atoms: C_4  and  C_5
REMARK    4  A    between atoms: C_15  and  N_16
REMARK                            x       y       z     vdW  Elec       q    Type
REMARK                         _______ _______ _______ _____ _____    ______ ____
ROOT
ATOM      1  O   UNL     1       4.582   5.145  19.129  0.00  0.00    +0.000 OA
ATOM      2  C   UNL     1       5.067   4.200  18.523  0.00  0.00    +0.000 C 
ATOM      3  N   UNL     1       5.033   2.898  18.973  0.00  0.00    +0.000 N 
ATOM      4  H   UNL     1       5.595   2.187  18.526  0.00  0.00    +0.000 HD
ENDROOT
BRANCH   2   5
ATOM      5  C   UNL     1       5.690   4.410  17.191  0.00  0.00    +0.000 A 
ATOM      6  C   UNL     1       4.993   4.003  16.040  0.00  0.00    +0.000 A 
ATOM      7  C   UNL     1       5.518   4.234  14.765  0.00  0.00    +0.000 A 
ATOM      8  C   UNL     1       6.736   4.895  14.615  0.00  0.00    +0.000 A 
ATOM      9  C   UNL     1       7.432   5.330  15.741  0.00  0.00    +0.000 A 
ATOM     10  C   UNL     1       6.901   5.083  17.018  0.00  0.00    +0.000 A 
BRANCH  10  11
ATOM     11  N   UNL     1       7.694   5.513  18.159  0.00  0.00    +0.000 N 
ATOM     12  O   UNL     1       8.306   4.629  18.771  0.00  0.00    +0.000 OA
ATOM     13  O   UNL     1       7.788   6.732  18.344  0.00  0.00    +0.000 OA
ENDBRANCH  10  11
ENDBRANCH   2   5
BRANCH   3  14
ATOM     14  C   UNL     1       4.392   2.532  20.215  0.00  0.00    +0.000 C 
BRANCH  14  15
ATOM     15  C   UNL     1       2.916   2.690  20.066  0.00  0.00    +0.000 A 
ATOM     16  C   UNL     1       2.037   3.306  20.936  0.00  0.00    +0.000 A 
ATOM     17  C   UNL     1       0.695   3.277  20.462  0.00  0.00    +0.000 A 
ATOM     18  C   UNL     1       0.593   2.643  19.244  0.00  0.00    +0.000 A 
ATOM     19  S   UNL     1       2.107   2.081  18.683  0.00  0.00    +0.000 S 
ENDBRANCH  14  15
ENDBRANCH   3  14
TORSDOF 4
ENDMDL
MODEL 2
REMARK VINA RESULT:      -7.0      1.745      2.295
REMARK  Name = 
REMARK  4 active torsions:
REMARK  status: ('A' for Active; 'I' for Inactive)
REMARK    1  A    between atoms: C_2  and  C_10
REMARK    2  A    between atoms: N_3  and  C_4
REMARK    3  A    between atoms: C_4  and  C_5
REMARK    4  A    between atoms: C_15  and  N_16
REMARK                            x       y       z     vdW  Elec       q    Type
REMARK                         _______ _______ _______ _____ _____    ______ ____
ROOT
ATOM      1  O   UNL     1       3.420   6.470  17.779  0.00  0.00    +0.000 OA
ATOM      2  C   UNL     1       3.727   5.345  17.414  0.00  0.00    +0.000 C 
ATOM      3  N   UNL     1       2.900   4.248  17.521  0.00  0.00    +0.000 N 
ATOM      4  H   UNL     1       3.261   3.317  17.369  0.00  0.00    +0.000 HD
ENDROOT
BRANCH   2   5
ATOM      5  C   UNL     1       5.038   5.107  16.756  0.00  0.00    +0.000 A 
ATOM      6  C   UNL     1       5.153   5.309  15.370  0.00  0.00    +0.000 A 
ATOM      7  C   UNL     1       6.381   5.151  14.722  0.00  0.00    +0.000 A 
ATOM      8  C   UNL     1       7.521   4.811  15.448  0.00  0.00    +0.000 A 
ATOM      9  C   UNL     1       7.436   4.632  16.828  0.00  0.00    +0.000 A 
ATOM     10  C   UNL     1       6.195   4.781  17.467  0.00  0.00    +0.000 A 
BRANCH  10  11
ATOM     11  N   UNL     1       6.154   4.530  18.899  0.00  0.00    +0.000 N 
ATOM     12  O   UNL     1       6.709   5.366  19.623  0.00  0.00    +0.000 OA
ATOM     13  O   UNL     1       5.467   3.574  19.278  0.00  0.00    +0.000 OA
ENDBRANCH  10  11
ENDBRANCH   2   5
BRANCH   3  14
ATOM     14  C   UNL     1       1.566   4.344  18.069  0.00  0.00    +0.000 C 
BRANCH  14  15
ATOM     15  C   UNL     1       1.581   3.845  19.476  0.00  0.00    +0.000 A 
ATOM     16  C   UNL     1       1.044   2.670  19.965  0.00  0.00    +0.000 A 
ATOM     17  C   UNL     1       1.255   2.519  21.365  0.00  0.00    +0.000 A 
ATOM     18  C   UNL     1       1.951   3.581  21.898  0.00  0.00    +0.000 A 
ATOM     19  S   UNL     1       2.336   4.756  20.717  0.00  0.00    +0.000 S 
ENDBRANCH  14  15
ENDBRANCH   3  14
TORSDOF 4
ENDMDL
MODEL 3
REMARK VINA RESULT:      -6.9      2.841      6.077
REMARK  Name = 
REMARK  4 active torsions:
REMARK  status: ('A' for Active; 'I' for Inactive)
REMARK    1  A    between atoms: C_2  and  C_10
REMARK    2  A    between atoms: N_3  and  C_4
REMARK    3  A    between atoms: C_4  and  C_5
REMARK    4  A    between atoms: C_15  and  N_16
REMARK                            x       y       z     vdW  Elec       q    Type
REMARK                         _______ _______ _______ _____ _____    ______ ____
ROOT
ATOM      1  O   UNL     1       4.178   4.454  17.038  0.00  0.00    +0.000 OA
ATOM      2  C   UNL     1       4.501   4.232  18.196  0.00  0.00    +0.000 C 
ATOM      3  N   UNL     1       5.805   4.204  18.640  0.00  0.00    +0.000 N 
ATOM      4  H   UNL     1       6.027   3.846  19.558  0.00  0.00    +0.000 HD
ENDROOT
BRANCH   2   5
ATOM      5  C   UNL     1       3.458   4.030  19.235  0.00  0.00    +0.000 A 
ATOM      6  C   UNL     1       2.586   5.090  19.540  0.00  0.00    +0.000 A 
ATOM      7  C   UNL     1       1.556   4.924  20.470  0.00  0.00    +0.000 A 
ATOM      8  C   UNL     1       1.362   3.693  21.094  0.00  0.00    +0.000 A 
ATOM      9  C   UNL     1       2.199   2.622  20.787  0.00  0.00    +0.000 A 
ATOM     10  C   UNL     1       3.238   2.802  19.860  0.00  0.00    +0.000 A 
BRANCH  10  11
ATOM     11  N   UNL     1       4.112   1.665  19.618  0.00  0.00    +0.000 N 
ATOM     12  O   UNL     1       3.845   0.961  18.637  0.00  0.00    +0.000 OA
ATOM     13  O   UNL     1       5.115   1.571  20.336  0.00  0.00    +0.000 OA
ENDBRANCH  10  11
ENDBRANCH   2   5
BRANCH   3  14
ATOM     14  C   UNL     1       6.922   4.459  17.758  0.00  0.00    +0.000 C 
BRANCH  14  15
ATOM     15  C   UNL     1       7.328   5.889  17.887  0.00  0.00    +0.000 A 
ATOM     16  C   UNL     1       8.170   6.450  18.828  0.00  0.00    +0.000 A 
ATOM     17  C   UNL     1       8.337   7.851  18.638  0.00  0.00    +0.000 A 
ATOM     18  C   UNL     1       7.622   8.313  17.556  0.00  0.00    +0.000 A 
ATOM     19  S   UNL     1       6.747   7.064  16.782  0.00  0.00    +0.000 S 
ENDBRANCH  14  15
ENDBRANCH   3  14
TORSDOF 4
ENDMDL
MODEL 4
REMARK VINA RESULT:      -6.9      1.786      2.489
REMARK  Name = 
REMARK  4 active torsions:
REMARK  status: ('A' for Active; 'I' for Inactive)
REMARK    1  A    between atoms: C_2  and  C_10
REMARK    2  A    between atoms: N_3  and  C_4
REMARK    3  A    between atoms: C_4  and  C_5
REMARK    4  A    between atoms: C_15  and  N_16
REMARK                            x       y       z     vdW  Elec       q    Type
REMARK                         _______ _______ _______ _____ _____    ______ ____
ROOT
ATOM      1  O   UNL     1       3.425   2.387  17.370  0.00  0.00    +0.000 OA
ATOM      2  C   UNL     1       3.630   3.577  17.180  0.00  0.00    +0.000 C 
ATOM      3  N   UNL     1       2.706   4.567  17.430  0.00  0.00    +0.000 N 
ATOM      4  H   UNL     1       2.860   5.508  17.095  0.00  0.00    +0.000 HD
ENDROOT
BRANCH   2   5
ATOM      5  C   UNL     1       4.961   4.036  16.705  0.00  0.00    +0.000 A 
ATOM      6  C   UNL     1       5.212   4.088  15.323  0.00  0.00    +0.000 A 
ATOM      7  C   UNL     1       6.430   4.567  14.833  0.00  0.00    +0.000 A 
ATOM      8  C   UNL     1       7.411   5.024  15.712  0.00  0.00    +0.000 A 
ATOM      9  C   UNL     1       7.174   5.005  17.085  0.00  0.00    +0.000 A 
ATOM     10  C   UNL     1       5.951   4.511  17.567  0.00  0.00    +0.000 A 
BRANCH  10  11
ATOM     11  N   UNL     1       5.779   4.466  19.011  0.00  0.00    +0.000 N 
ATOM     12  O   UNL     1       5.804   5.551  19.605  0.00  0.00    +0.000 OA
ATOM     13  O   UNL     1       5.501   3.367  19.504  0.00  0.00    +0.000 OA
ENDBRANCH  10  11
ENDBRANCH   2   5
BRANCH   3  14
ATOM     14  C   UNL     1       1.396   4.277  17.967  0.00  0.00    +0.000 C 
BRANCH  14  15
ATOM     15  C   UNL     1       1.535   3.866  19.395  0.00  0.00    +0.000 A 
ATOM     16  C   UNL     1       1.059   2.718  19.998  0.00  0.00    +0.000 A 
ATOM     17  C   UNL     1       1.389   2.655  21.381  0.00  0.00    +0.000 A 
ATOM     18  C   UNL     1       2.110   3.755  21.789  0.00  0.00    +0.000 A 
ATOM     19  S   UNL     1       2.377   4.859  20.510  0.00  0.00    +0.000 S 
ENDBRANCH  14  15
ENDBRANCH   3  14
TORSDOF 4
ENDMDL
MODEL 5
REMARK VINA RESULT:      -6.9      2.891      6.346
REMARK  Name = 
REMARK  4 active torsions:
REMARK  status: ('A' for Active; 'I' for Inactive)
REMARK    1  A    between atoms: C_2  and  C_10
REMARK    2  A    between atoms: N_3  and  C_4
REMARK    3  A    between atoms: C_4  and  C_5
REMARK    4  A    between atoms: C_15  and  N_16
REMARK                            x       y       z     vdW  Elec       q    Type
REMARK                         _______ _______ _______ _____ _____    ______ ____
ROOT
ATOM      1  O   UNL     1       4.309   2.307  17.514  0.00  0.00    +0.000 OA
ATOM      2  C   UNL     1       4.212   3.232  18.308  0.00  0.00    +0.000 C 
ATOM      3  N   UNL     1       4.996   4.364  18.270  0.00  0.00    +0.000 N 
ATOM      4  H   UNL     1       4.995   5.014  19.044  0.00  0.00    +0.000 HD
ENDROOT
BRANCH   2   5
ATOM      5  C   UNL     1       3.160   3.205  19.357  0.00  0.00    +0.000 A 
ATOM      6  C   UNL     1       3.401   2.493  20.545  0.00  0.00    +0.000 A 
ATOM      7  C   UNL     1       2.462   2.488  21.580  0.00  0.00    +0.000 A 
ATOM      8  C   UNL     1       1.277   3.213  21.459  0.00  0.00    +0.000 A 
ATOM      9  C   UNL     1       1.030   3.947  20.301  0.00  0.00    +0.000 A 
ATOM     10  C   UNL     1       1.975   3.935  19.262  0.00  0.00    +0.000 A 
BRANCH  10  11
ATOM     11  N   UNL     1       1.641   4.677  18.056  0.00  0.00    +0.000 N 
ATOM     12  O   UNL     1       2.145   5.800  17.940  0.00  0.00    +0.000 OA
ATOM     13  O   UNL     1       0.985   4.075  17.196  0.00  0.00    +0.000 OA
ENDBRANCH  10  11
ENDBRANCH   2   5
BRANCH   3  14
ATOM     14  C   UNL     1       6.008   4.564  17.258  0.00  0.00    +0.000 C 
BRANCH  14  15
ATOM     15  C   UNL     1       6.802   5.781  17.596  0.00  0.00    +0.000 A 
ATOM     16  C   UNL     1       6.868   6.972  16.897  0.00  0.00    +0.000 A 
ATOM     17  C   UNL     1       7.724   7.920  17.524  0.00  0.00    +0.000 A 
ATOM     18  C   UNL     1       8.281   7.426  18.682  0.00  0.00    +0.000 A 
ATOM     19  S   UNL     1       7.778   5.823  19.004  0.00  0.00    +0.000 S 
ENDBRANCH  14  15
ENDBRANCH   3  14
TORSDOF 4
ENDMDL
MODEL 6
REMARK VINA RESULT:      -6.9      1.424      1.763
REMARK  Name = 
REMARK  4 active torsions:
REMARK  status: ('A' for Active; 'I' for Inactive)
REMARK    1  A    between atoms: C_2  and  C_10
REMARK    2  A    between atoms: N_3  and  C_4
REMARK    3  A    between atoms: C_4  and  C_5
REMARK    4  A    between atoms: C_15  and  N_16
REMARK                            x       y       z     vdW  Elec       q    Type
REMARK                         _______ _______ _______ _____ _____    ______ ____
ROOT
ATOM      1  O   UNL     1       5.246   3.772  19.183  0.00  0.00    +0.000 OA
ATOM      2  C   UNL     1       4.913   4.561  18.310  0.00  0.00    +0.000 C 
ATOM      3  N   UNL     1       3.960   5.541  18.482  0.00  0.00    +0.000 N 
ATOM      4  H   UNL     1       3.598   6.049  17.687  0.00  0.00    +0.000 HD
ENDROOT
BRANCH   2   5
ATOM      5  C   UNL     1       5.590   4.538  16.988  0.00  0.00    +0.000 A 
ATOM      6  C   UNL     1       4.866   4.116  15.859  0.00  0.00    +0.000 A 
ATOM      7  C   UNL     1       5.448   4.133  14.588  0.00  0.00    +0.000 A 
ATOM      8  C   UNL     1       6.752   4.594  14.417  0.00  0.00    +0.000 A 
ATOM      9  C   UNL     1       7.479   5.042  15.519  0.00  0.00    +0.000 A 
ATOM     10  C   UNL     1       6.889   5.009  16.793  0.00  0.00    +0.000 A 
BRANCH  10  11
ATOM     11  N   UNL     1       7.711   5.439  17.913  0.00  0.00    +0.000 N 
ATOM     12  O   UNL     1       7.672   6.642  18.199  0.00  0.00    +0.000 OA
ATOM     13  O   UNL     1       8.280   4.551  18.559  0.00  0.00    +0.000 OA
ENDBRANCH  10  11
ENDBRANCH   2   5
BRANCH   3  14
ATOM     14  C   UNL     1       3.273   5.732  19.740  0.00  0.00    +0.000 C 
BRANCH  14  15
ATOM     15  C   UNL     1       2.351   4.582  19.971  0.00  0.00    +0.000 A 
ATOM     16  C   UNL     1       1.451   4.025  19.083  0.00  0.00    +0.000 A 
ATOM     17  C   UNL     1       0.741   2.927  19.648  0.00  0.00    +0.000 A 
ATOM     18  C   UNL     1       1.125   2.680  20.947  0.00  0.00    +0.000 A 
ATOM     19  S   UNL     1       2.328   3.771  21.481  0.00  0.00    +0.000 S 
ENDBRANCH  14  15
ENDBRANCH   3  14
TORSDOF 4
ENDMDL
MODEL 7
REMARK VINA RESULT:      -6.9      2.706      6.212
REMARK  Name = 
REMARK  4 active torsions:
REMARK  status: ('A' for Active; 'I' for Inactive)
REMARK    1  A    between atoms: C_2  and  C_10
REMARK    2  A    between atoms: N_3  and  C_4
REMARK    3  A    between atoms: C_4  and  C_5
REMARK    4  A    between atoms: C_15  and  N_16
REMARK                            x       y       z     vdW  Elec       q    Type
REMARK                         _______ _______ _______ _____ _____    ______ ____
ROOT
ATOM      1  O   UNL     1       3.817   5.469  17.275  0.00  0.00    +0.000 OA
ATOM      2  C   UNL     1       4.158   4.577  18.039  0.00  0.00    +0.000 C 
ATOM      3  N   UNL     1       5.387   3.957  17.998  0.00  0.00    +0.000 N 
ATOM      4  H   UNL     1       5.555   3.116  18.532  0.00  0.00    +0.000 HD
ENDROOT
BRANCH   2   5
ATOM      5  C   UNL     1       3.248   4.143  19.130  0.00  0.00    +0.000 A 
ATOM      6  C   UNL     1       2.946   5.044  20.166  0.00  0.00    +0.000 A 
ATOM      7  C   UNL     1       2.051   4.694  21.181  0.00  0.00    +0.000 A 
ATOM      8  C   UNL     1       1.422   3.450  21.167  0.00  0.00    +0.000 A 
ATOM      9  C   UNL     1       1.686   2.552  20.136  0.00  0.00    +0.000 A 
ATOM     10  C   UNL     1       2.597   2.908  19.127  0.00  0.00    +0.000 A 
BRANCH  10  11
ATOM     11  N   UNL     1       2.874   1.911  18.105  0.00  0.00    +0.000 N 
ATOM     12  O   UNL     1       2.199   1.977  17.071  0.00  0.00    +0.000 OA
ATOM     13  O   UNL     1       3.840   1.165  18.303  0.00  0.00    +0.000 OA
ENDBRANCH  10  11
ENDBRANCH   2   5
BRANCH   3  14
ATOM     14  C   UNL     1       6.404   4.330  17.040  0.00  0.00    +0.000 C 
BRANCH  14  15
ATOM     15  C   UNL     1       7.037   5.609  17.475  0.00  0.00    +0.000 A 
ATOM     16  C   UNL     1       7.081   6.809  16.792  0.00  0.00    +0.000 A 
ATOM     17  C   UNL     1       7.765   7.823  17.520  0.00  0.00    +0.000 A 
ATOM     18  C   UNL     1       8.218   7.366  18.738  0.00  0.00    +0.000 A 
ATOM     19  S   UNL     1       7.825   5.721  18.993  0.00  0.00    +0.000 S 
ENDBRANCH  14  15
ENDBRANCH   3  14
TORSDOF 4
ENDMDL
MODEL 8
REMARK VINA RESULT:      -6.9      1.525      1.757
REMARK  Name = 
REMARK  4 active torsions:
REMARK  status: ('A' for Active; 'I' for Inactive)
REMARK    1  A    between atoms: C_2  and  C_10
REMARK    2  A    between atoms: N_3  and  C_4
REMARK    3  A    between atoms: C_4  and  C_5
REMARK    4  A    between atoms: C_15  and  N_16
REMARK                            x       y       z     vdW  Elec       q    Type
REMARK                         _______ _______ _______ _____ _____    ______ ____
ROOT
ATOM      1  O   UNL     1       3.939   7.029  17.341  0.00  0.00    +0.000 OA
ATOM      2  C   UNL     1       4.522   5.969  17.519  0.00  0.00    +0.000 C 
ATOM      3  N   UNL     1       4.405   5.209  18.662  0.00  0.00    +0.000 N 
ATOM      4  H   UNL     1       5.035   4.438  18.831  0.00  0.00    +0.000 HD
ENDROOT
BRANCH   2   5
ATOM      5  C   UNL     1       5.373   5.397  16.443  0.00  0.00    +0.000 A 
ATOM      6  C   UNL     1       4.774   4.603  15.450  0.00  0.00    +0.000 A 
ATOM      7  C   UNL     1       5.528   4.093  14.390  0.00  0.00    +0.000 A 
ATOM      8  C   UNL     1       6.888   4.384  14.289  0.00  0.00    +0.000 A 
ATOM      9  C   UNL     1       7.496   5.191  15.248  0.00  0.00    +0.000 A 
ATOM     10  C   UNL     1       6.732   5.689  16.316  0.00  0.00    +0.000 A 
BRANCH  10  11
ATOM     11  N   UNL     1       7.430   6.482  17.316  0.00  0.00    +0.000 N 
ATOM     12  O   UNL     1       7.622   7.673  17.042  0.00  0.00    +0.000 OA
ATOM     13  O   UNL     1       7.660   5.933  18.400  0.00  0.00    +0.000 OA
ENDBRANCH  10  11
ENDBRANCH   2   5
BRANCH   3  14
ATOM     14  C   UNL     1       3.552   5.602  19.761  0.00  0.00    +0.000 C 
BRANCH  14  15
ATOM     15  C   UNL     1       2.553   4.522  20.012  0.00  0.00    +0.000 A 
ATOM     16  C   UNL     1       2.236   3.923  21.216  0.00  0.00    +0.000 A 
ATOM     17  C   UNL     1       1.224   2.932  21.079  0.00  0.00    +0.000 A 
ATOM     18  C   UNL     1       0.798   2.808  19.775  0.00  0.00    +0.000 A 
ATOM     19  S   UNL     1       1.622   3.876  18.725  0.00  0.00    +0.000 S 
ENDBRANCH  14  15
ENDBRANCH   3  14
TORSDOF 4
ENDMDL
MODEL 9
REMARK VINA RESULT:      -6.8      1.765      2.271
REMARK  Name = 
REMARK  4 active torsions:
REMARK  status: ('A' for Active; 'I' for Inactive)
REMARK    1  A    between atoms: C_2  and  C_10
REMARK    2  A    between atoms: N_3  and  C_4
REMARK    3  A    between atoms: C_4  and  C_5
REMARK    4  A    between atoms: C_15  and  N_16
REMARK                            x       y       z     vdW  Elec       q    Type
REMARK                         _______ _______ _______ _____ _____    ______ ____
ROOT
ATOM      1  O   UNL     1       2.928   3.185  16.852  0.00  0.00    +0.000 OA
ATOM      2  C   UNL     1       3.537   4.216  17.098  0.00  0.00    +0.000 C 
ATOM      3  N   UNL     1       3.019   5.258  17.837  0.00  0.00    +0.000 N 
ATOM      4  H   UNL     1       3.491   6.151  17.864  0.00  0.00    +0.000 HD
ENDROOT
BRANCH   2   5
ATOM      5  C   UNL     1       4.942   4.378  16.644  0.00  0.00    +0.000 A 
ATOM      6  C   UNL     1       5.211   4.428  15.265  0.00  0.00    +0.000 A 
ATOM      7  C   UNL     1       6.512   4.636  14.797  0.00  0.00    +0.000 A 
ATOM      8  C   UNL     1       7.562   4.821  15.694  0.00  0.00    +0.000 A 
ATOM      9  C   UNL     1       7.314   4.801  17.066  0.00  0.00    +0.000 A 
ATOM     10  C   UNL     1       6.005   4.580  17.526  0.00  0.00    +0.000 A 
BRANCH  10  11
ATOM     11  N   UNL     1       5.813   4.516  18.966  0.00  0.00    +0.000 N 
ATOM     12  O   UNL     1       5.343   3.463  19.415  0.00  0.00    +0.000 OA
ATOM     13  O   UNL     1       6.247   5.466  19.628  0.00  0.00    +0.000 OA
ENDBRANCH  10  11
ENDBRANCH   2   5
BRANCH   3  14
ATOM     14  C   UNL     1       1.693   5.208  18.409  0.00  0.00    +0.000 C 
BRANCH  14  15
ATOM     15  C   UNL     1       1.727   4.375  19.646  0.00  0.00    +0.000 A 
ATOM     16  C   UNL     1       2.373   4.649  20.836  0.00  0.00    +0.000 A 
ATOM     17  C   UNL     1       2.178   3.627  21.807  0.00  0.00    +0.000 A 
ATOM     18  C   UNL     1       1.385   2.607  21.330  0.00  0.00    +0.000 A 
ATOM     19  S   UNL     1       0.889   2.881  19.716  0.00  0.00    +0.000 S 
ENDBRANCH  14  15
ENDBRANCH   3  14
TORSDOF 4
ENDMDL
