MODEL 1
REMARK VINA RESULT:      -7.6      0.000      0.000
REMARK  Name = 
REMARK  8 active torsions:
REMARK  status: ('A' for Active; 'I' for Inactive)
REMARK    1  A    between atoms: C_1  and  C_2
REMARK    2  A    between atoms: C_2  and  C_3
REMARK    3  A    between atoms: C_2  and  C_4
REMARK    4  A    between atoms: C_2  and  C_5
REMARK    5  A    between atoms: C_10  and  C_11
REMARK    6  A    between atoms: C_11  and  N_12
REMARK    7  A    between atoms: N_12  and  C_13
REMARK    8  A    between atoms: C_13  and  C_14
REMARK                            x       y       z     vdW  Elec       q    Type
REMARK                         _______ _______ _______ _____ _____    ______ ____
ROOT
ATOM      1  C   UNL     1       2.144   4.651  21.065  0.00  0.00    +0.000 C 
ENDROOT
BRANCH   1   7
ATOM      2  C   UNL     1       1.214  10.246  19.160  0.00  0.00    +0.000 A 
ATOM      3  C   UNL     1       1.915   9.727  18.047  0.00  0.00    +0.000 A 
ATOM      4  C   UNL     1       2.392   8.406  17.992  0.00  0.00    +0.000 A 
ATOM      5  C   UNL     1       2.120   7.620  19.100  0.00  0.00    +0.000 A 
ATOM      6  O   UNL     1       2.453   6.314  19.299  0.00  0.00    +0.000 OA
ATOM      7  C   UNL     1       1.938   6.034  20.545  0.00  0.00    +0.000 A 
ATOM      8  N   UNL     1       1.316   7.041  21.130  0.00  0.00    +0.000 NA
ATOM      9  C   UNL     1       1.428   8.057  20.215  0.00  0.00    +0.000 A 
ATOM     10  C   UNL     1       0.960   9.378  20.248  0.00  0.00    +0.000 A 
BRANCH   2  12
ATOM     11  C   UNL     1       0.499  12.115  20.647  0.00  0.00    +0.000 C 
ATOM     12  C   UNL     1       0.667  11.684  19.174  0.00  0.00    +0.000 C 
ATOM     13  C   UNL     1      -0.700  11.823  18.466  0.00  0.00    +0.000 C 
ATOM     14  C   UNL     1       1.620  12.684  18.474  0.00  0.00    +0.000 C 
ENDBRANCH   2  12
ENDBRANCH   1   7
BRANCH   1  15
ATOM     15  N   UNL     1       1.530   3.648  20.171  0.00  0.00    +0.000 NA
ATOM     16  H   UNL     1       1.337   4.125  19.285  0.00  0.00    +0.000 HD
BRANCH  15  17
ATOM     17  C   UNL     1       2.478   2.541  19.938  0.00  0.00    +0.000 C 
BRANCH  17  18
ATOM     18  C   UNL     1       3.334   2.783  18.693  0.00  0.00    +0.000 C 
ATOM     19  O   UNL     1       3.177   2.104  17.677  0.00  0.00    +0.000 OA
ATOM     20  N   UNL     1       4.251   3.798  18.830  0.00  0.00    +0.000 N 
ATOM     21  C   UNL     1       5.195   4.114  17.857  0.00  0.00    +0.000 A 
ATOM     22  C   UNL     1       4.902   4.130  16.493  0.00  0.00    +0.000 A 
ATOM     23  N   UNL     1       5.832   4.403  15.541  0.00  0.00    +0.000 NA
ATOM     24  C   UNL     1       7.077   4.623  16.012  0.00  0.00    +0.000 A 
ATOM     25  C   UNL     1       7.368   4.619  17.366  0.00  0.00    +0.000 A 
ATOM     26  N   UNL     1       6.430   4.407  18.318  0.00  0.00    +0.000 NA
ATOM     27  H   UNL     1       4.495   4.047  19.782  0.00  0.00    +0.000 HD
ENDBRANCH  17  18
ENDBRANCH  15  17
ENDBRANCH   1  15
TORSDOF 5
ENDMDL
MODEL 2
REMARK VINA RESULT:      -7.4      1.155      1.548
REMARK  Name = 
REMARK  8 active torsions:
REMARK  status: ('A' for Active; 'I' for Inactive)
REMARK    1  A    between atoms: C_1  and  C_2
REMARK    2  A    between atoms: C_2  and  C_3
REMARK    3  A    between atoms: C_2  and  C_4
REMARK    4  A    between atoms: C_2  and  C_5
REMARK    5  A    between atoms: C_10  and  C_11
REMARK    6  A    between atoms: C_11  and  N_12
REMARK    7  A    between atoms: N_12  and  C_13
REMARK    8  A    between atoms: C_13  and  C_14
REMARK                            x       y       z     vdW  Elec       q    Type
REMARK                         _______ _______ _______ _____ _____    ______ ____
ROOT
ATOM      1  C   UNL     1       2.125   4.498  20.820  0.00  0.00    +0.000 C 
ENDROOT
BRANCH   1   7
ATOM      2  C   UNL     1       1.282  10.194  19.190  0.00  0.00    +0.000 A 
ATOM      3  C   UNL     1       1.866   9.689  18.005  0.00  0.00    +0.000 A 
ATOM      4  C   UNL     1       2.281   8.353  17.866  0.00  0.00    +0.000 A 
ATOM      5  C   UNL     1       2.067   7.538  18.966  0.00  0.00    +0.000 A 
ATOM      6  O   UNL     1       2.359   6.213  19.092  0.00  0.00    +0.000 OA
ATOM      7  C   UNL     1       1.936   5.907  20.367  0.00  0.00    +0.000 A 
ATOM      8  N   UNL     1       1.408   6.915  21.034  0.00  0.00    +0.000 NA
ATOM      9  C   UNL     1       1.488   7.960  20.149  0.00  0.00    +0.000 A 
ATOM     10  C   UNL     1       1.081   9.296  20.266  0.00  0.00    +0.000 A 
BRANCH   2  12
ATOM     11  C   UNL     1      -0.602  11.737  18.659  0.00  0.00    +0.000 C 
ATOM     12  C   UNL     1       0.800  11.651  19.299  0.00  0.00    +0.000 C 
ATOM     13  C   UNL     1       1.728  12.655  18.579  0.00  0.00    +0.000 C 
ATOM     14  C   UNL     1       0.700  12.130  20.768  0.00  0.00    +0.000 C 
ENDBRANCH   2  12
ENDBRANCH   1   7
BRANCH   1  15
ATOM     15  N   UNL     1       1.814   3.543  19.738  0.00  0.00    +0.000 NA
ATOM     16  H   UNL     1       1.754   4.090  18.873  0.00  0.00    +0.000 HD
BRANCH  15  17
ATOM     17  C   UNL     1       2.901   2.553  19.619  0.00  0.00    +0.000 C 
BRANCH  17  18
ATOM     18  C   UNL     1       4.234   3.217  19.266  0.00  0.00    +0.000 C 
ATOM     19  O   UNL     1       5.238   3.021  19.952  0.00  0.00    +0.000 OA
ATOM     20  N   UNL     1       4.186   4.016  18.148  0.00  0.00    +0.000 N 
ATOM     21  C   UNL     1       5.257   4.789  17.712  0.00  0.00    +0.000 A 
ATOM     22  C   UNL     1       6.576   4.334  17.722  0.00  0.00    +0.000 A 
ATOM     23  N   UNL     1       7.626   5.102  17.331  0.00  0.00    +0.000 NA
ATOM     24  C   UNL     1       7.302   6.360  16.964  0.00  0.00    +0.000 A 
ATOM     25  C   UNL     1       5.993   6.811  16.942  0.00  0.00    +0.000 A 
ATOM     26  N   UNL     1       4.941   6.027  17.274  0.00  0.00    +0.000 NA
ATOM     27  H   UNL     1       3.264   4.341  17.877  0.00  0.00    +0.000 HD
ENDBRANCH  17  18
ENDBRANCH  15  17
ENDBRANCH   1  15
TORSDOF 5
ENDMDL
MODEL 3
REMARK VINA RESULT:      -7.4      1.169      1.773
REMARK  Name = 
REMARK  8 active torsions:
REMARK  status: ('A' for Active; 'I' for Inactive)
REMARK    1  A    between atoms: C_1  and  C_2
REMARK    2  A    between atoms: C_2  and  C_3
REMARK    3  A    between atoms: C_2  and  C_4
REMARK    4  A    between atoms: C_2  and  C_5
REMARK    5  A    between atoms: C_10  and  C_11
REMARK    6  A    between atoms: C_11  and  N_12
REMARK    7  A    between atoms: N_12  and  C_13
REMARK    8  A    between atoms: C_13  and  C_14
REMARK                            x       y       z     vdW  Elec       q    Type
REMARK                         _______ _______ _______ _____ _____    ______ ____
ROOT
ATOM      1  C   UNL     1       2.108   5.053  20.877  0.00  0.00    +0.000 C 
ENDROOT
BRANCH   1   7
ATOM      2  C   UNL     1       1.183  10.684  19.077  0.00  0.00    +0.000 A 
ATOM      3  C   UNL     1       1.854  10.176  17.940  0.00  0.00    +0.000 A 
ATOM      4  C   UNL     1       2.319   8.851  17.855  0.00  0.00    +0.000 A 
ATOM      5  C   UNL     1       2.065   8.052  18.957  0.00  0.00    +0.000 A 
ATOM      6  O   UNL     1       2.391   6.740  19.129  0.00  0.00    +0.000 OA
ATOM      7  C   UNL     1       1.902   6.445  20.383  0.00  0.00    +0.000 A 
ATOM      8  N   UNL     1       1.303   7.448  20.996  0.00  0.00    +0.000 NA
ATOM      9  C   UNL     1       1.403   8.477  20.094  0.00  0.00    +0.000 A 
ATOM     10  C   UNL     1       0.946   9.801  20.157  0.00  0.00    +0.000 A 
BRANCH   2  12
ATOM     11  C   UNL     1       1.664  13.034  18.400  0.00  0.00    +0.000 C 
ATOM     12  C   UNL     1       0.648  12.126  19.125  0.00  0.00    +0.000 C 
ATOM     13  C   UNL     1       0.458  12.657  20.564  0.00  0.00    +0.000 C 
ATOM     14  C   UNL     1      -0.726  12.268  18.426  0.00  0.00    +0.000 C 
ENDBRANCH   2  12
ENDBRANCH   1   7
BRANCH   1  15
ATOM     15  N   UNL     1       2.332   4.117  19.757  0.00  0.00    +0.000 NA
ATOM     16  H   UNL     1       2.327   4.679  18.900  0.00  0.00    +0.000 HD
BRANCH  15  17
ATOM     17  C   UNL     1       3.646   3.462  19.909  0.00  0.00    +0.000 C 
BRANCH  17  18
ATOM     18  C   UNL     1       4.694   4.078  18.980  0.00  0.00    +0.000 C 
ATOM     19  O   UNL     1       5.421   4.994  19.367  0.00  0.00    +0.000 OA
ATOM     20  N   UNL     1       4.734   3.516  17.725  0.00  0.00    +0.000 N 
ATOM     21  C   UNL     1       5.541   3.993  16.697  0.00  0.00    +0.000 A 
ATOM     22  C   UNL     1       6.855   4.416  16.899  0.00  0.00    +0.000 A 
ATOM     23  N   UNL     1       7.632   4.916  15.902  0.00  0.00    +0.000 NA
ATOM     24  C   UNL     1       7.023   5.008  14.702  0.00  0.00    +0.000 A 
ATOM     25  C   UNL     1       5.722   4.577  14.496  0.00  0.00    +0.000 A 
ATOM     26  N   UNL     1       4.969   4.024  15.475  0.00  0.00    +0.000 NA
ATOM     27  H   UNL     1       3.899   3.017  17.439  0.00  0.00    +0.000 HD
ENDBRANCH  17  18
ENDBRANCH  15  17
ENDBRANCH   1  15
TORSDOF 5
ENDMDL
MODEL 4
REMARK VINA RESULT:      -7.4      5.475      8.327
REMARK  Name = 
REMARK  8 active torsions:
REMARK  status: ('A' for Active; 'I' for Inactive)
REMARK    1  A    between atoms: C_1  and  C_2
REMARK    2  A    between atoms: C_2  and  C_3
REMARK    3  A    between atoms: C_2  and  C_4
REMARK    4  A    between atoms: C_2  and  C_5
REMARK    5  A    between atoms: C_10  and  C_11
REMARK    6  A    between atoms: C_11  and  N_12
REMARK    7  A    between atoms: N_12  and  C_13
REMARK    8  A    between atoms: C_13  and  C_14
REMARK                            x       y       z     vdW  Elec       q    Type
REMARK                         _______ _______ _______ _____ _____    ______ ____
ROOT
ATOM      1  C   UNL     1       7.983   6.774  17.749  0.00  0.00    +0.000 C 
ENDROOT
BRANCH   1   7
ATOM      2  C   UNL     1       2.866   4.170  19.435  0.00  0.00    +0.000 A 
ATOM      3  C   UNL     1       2.353   5.181  18.589  0.00  0.00    +0.000 A 
ATOM      4  C   UNL     1       3.172   6.112  17.927  0.00  0.00    +0.000 A 
ATOM      5  C   UNL     1       4.534   5.975  18.139  0.00  0.00    +0.000 A 
ATOM      6  O   UNL     1       5.541   6.728  17.614  0.00  0.00    +0.000 OA
ATOM      7  C   UNL     1       6.680   6.159  18.140  0.00  0.00    +0.000 A 
ATOM      8  N   UNL     1       6.471   5.127  18.934  0.00  0.00    +0.000 NA
ATOM      9  C   UNL     1       5.105   5.002  18.940  0.00  0.00    +0.000 A 
ATOM     10  C   UNL     1       4.270   4.083  19.589  0.00  0.00    +0.000 A 
BRANCH   2  12
ATOM     11  C   UNL     1       0.541   3.762  20.239  0.00  0.00    +0.000 C 
ATOM     12  C   UNL     1       1.948   3.138  20.113  0.00  0.00    +0.000 C 
ATOM     13  C   UNL     1       2.429   2.729  21.524  0.00  0.00    +0.000 C 
ATOM     14  C   UNL     1       1.833   1.827  19.298  0.00  0.00    +0.000 C 
ENDBRANCH   2  12
ENDBRANCH   1   7
BRANCH   1  15
ATOM     15  N   UNL     1       8.346   7.879  18.659  0.00  0.00    +0.000 NA
ATOM     16  H   UNL     1       9.335   7.750  18.897  0.00  0.00    +0.000 HD
BRANCH  15  17
ATOM     17  C   UNL     1       8.171   9.171  17.968  0.00  0.00    +0.000 C 
BRANCH  17  18
ATOM     18  C   UNL     1       8.967  10.287  18.647  0.00  0.00    +0.000 C 
ATOM     19  O   UNL     1       9.517  10.100  19.733  0.00  0.00    +0.000 OA
ATOM     20  N   UNL     1       8.999  11.466  17.939  0.00  0.00    +0.000 N 
ATOM     21  C   UNL     1       9.580  12.634  18.421  0.00  0.00    +0.000 A 
ATOM     22  C   UNL     1      10.788  12.649  19.120  0.00  0.00    +0.000 A 
ATOM     23  N   UNL     1      11.337  13.786  19.622  0.00  0.00    +0.000 NA
ATOM     24  C   UNL     1      10.605  14.902  19.428  0.00  0.00    +0.000 A 
ATOM     25  C   UNL     1       9.411  14.893  18.725  0.00  0.00    +0.000 A 
ATOM     26  N   UNL     1       8.894  13.771  18.172  0.00  0.00    +0.000 NA
ATOM     27  H   UNL     1       8.265  11.587  17.250  0.00  0.00    +0.000 HD
ENDBRANCH  17  18
ENDBRANCH  15  17
ENDBRANCH   1  15
TORSDOF 5
ENDMDL
MODEL 5
REMARK VINA RESULT:      -7.2      5.181      8.251
REMARK  Name = 
REMARK  8 active torsions:
REMARK  status: ('A' for Active; 'I' for Inactive)
REMARK    1  A    between atoms: C_1  and  C_2
REMARK    2  A    between atoms: C_2  and  C_3
REMARK    3  A    between atoms: C_2  and  C_4
REMARK    4  A    between atoms: C_2  and  C_5
REMARK    5  A    between atoms: C_10  and  C_11
REMARK    6  A    between atoms: C_11  and  N_12
REMARK    7  A    between atoms: N_12  and  C_13
REMARK    8  A    between atoms: C_13  and  C_14
REMARK                            x       y       z     vdW  Elec       q    Type
REMARK                         _______ _______ _______ _____ _____    ______ ____
ROOT
ATOM      1  C   UNL     1       7.717   7.323  17.318  0.00  0.00    +0.000 C 
ENDROOT
BRANCH   1   7
ATOM      2  C   UNL     1       2.921   4.328  19.276  0.00  0.00    +0.000 A 
ATOM      3  C   UNL     1       2.280   5.345  18.531  0.00  0.00    +0.000 A 
ATOM      4  C   UNL     1       2.985   6.357  17.856  0.00  0.00    +0.000 A 
ATOM      5  C   UNL     1       4.366   6.293  17.947  0.00  0.00    +0.000 A 
ATOM      6  O   UNL     1       5.279   7.132  17.382  0.00  0.00    +0.000 OA
ATOM      7  C   UNL     1       6.490   6.610  17.781  0.00  0.00    +0.000 A 
ATOM      8  N   UNL     1       6.409   5.529  18.533  0.00  0.00    +0.000 NA
ATOM      9  C   UNL     1       5.058   5.320  18.644  0.00  0.00    +0.000 A 
ATOM     10  C   UNL     1       4.336   4.320  19.309  0.00  0.00    +0.000 A 
BRANCH   2  12
ATOM     11  C   UNL     1       0.679   3.709  20.176  0.00  0.00    +0.000 C 
ATOM     12  C   UNL     1       2.125   3.209  19.970  0.00  0.00    +0.000 C 
ATOM     13  C   UNL     1       2.705   2.813  21.347  0.00  0.00    +0.000 C 
ATOM     14  C   UNL     1       2.081   1.908  19.130  0.00  0.00    +0.000 C 
ENDBRANCH   2  12
ENDBRANCH   1   7
BRANCH   1  15
ATOM     15  N   UNL     1       7.723   8.727  17.775  0.00  0.00    +0.000 NA
ATOM     16  H   UNL     1       6.849   8.871  18.292  0.00  0.00    +0.000 HD
BRANCH  15  17
ATOM     17  C   UNL     1       8.869   8.953  18.676  0.00  0.00    +0.000 C 
BRANCH  17  18
ATOM     18  C   UNL     1       9.041  10.436  19.011  0.00  0.00    +0.000 C 
ATOM     19  O   UNL     1       9.437  10.791  20.121  0.00  0.00    +0.000 OA
ATOM     20  N   UNL     1       8.721  11.287  17.978  0.00  0.00    +0.000 N 
ATOM     21  C   UNL     1       8.709  12.672  18.102  0.00  0.00    +0.000 A 
ATOM     22  C   UNL     1       9.684  13.379  18.807  0.00  0.00    +0.000 A 
ATOM     23  N   UNL     1       9.652  14.729  18.959  0.00  0.00    +0.000 NA
ATOM     24  C   UNL     1       8.582  15.337  18.406  0.00  0.00    +0.000 A 
ATOM     25  C   UNL     1       7.619  14.639  17.696  0.00  0.00    +0.000 A 
ATOM     26  N   UNL     1       7.682  13.303  17.493  0.00  0.00    +0.000 NA
ATOM     27  H   UNL     1       8.120  10.900  17.258  0.00  0.00    +0.000 HD
ENDBRANCH  17  18
ENDBRANCH  15  17
ENDBRANCH   1  15
TORSDOF 5
ENDMDL
MODEL 6
REMARK VINA RESULT:      -7.2      5.161      7.992
REMARK  Name = 
REMARK  8 active torsions:
REMARK  status: ('A' for Active; 'I' for Inactive)
REMARK    1  A    between atoms: C_1  and  C_2
REMARK    2  A    between atoms: C_2  and  C_3
REMARK    3  A    between atoms: C_2  and  C_4
REMARK    4  A    between atoms: C_2  and  C_5
REMARK    5  A    between atoms: C_10  and  C_11
REMARK    6  A    between atoms: C_11  and  N_12
REMARK    7  A    between atoms: N_12  and  C_13
REMARK    8  A    between atoms: C_13  and  C_14
REMARK                            x       y       z     vdW  Elec       q    Type
REMARK                         _______ _______ _______ _____ _____    ______ ____
ROOT
ATOM      1  C   UNL     1       8.031   6.505  18.307  0.00  0.00    +0.000 C 
ENDROOT
BRANCH   1   7
ATOM      2  C   UNL     1       2.762   3.763  19.029  0.00  0.00    +0.000 A 
ATOM      3  C   UNL     1       2.930   3.597  17.634  0.00  0.00    +0.000 A 
ATOM      4  C   UNL     1       4.044   4.092  16.934  0.00  0.00    +0.000 A 
ATOM      5  C   UNL     1       4.993   4.749  17.698  0.00  0.00    +0.000 A 
ATOM      6  O   UNL     1       6.162   5.309  17.278  0.00  0.00    +0.000 OA
ATOM      7  C   UNL     1       6.716   5.811  18.435  0.00  0.00    +0.000 A 
ATOM      8  N   UNL     1       6.003   5.611  19.526  0.00  0.00    +0.000 NA
ATOM      9  C   UNL     1       4.901   4.935  19.066  0.00  0.00    +0.000 A 
ATOM     10  C   UNL     1       3.783   4.432  19.745  0.00  0.00    +0.000 A 
BRANCH   2  12
ATOM     11  C   UNL     1       0.710   4.346  20.318  0.00  0.00    +0.000 C 
ATOM     12  C   UNL     1       1.553   3.173  19.775  0.00  0.00    +0.000 C 
ATOM     13  C   UNL     1       1.953   2.268  20.963  0.00  0.00    +0.000 C 
ATOM     14  C   UNL     1       0.657   2.308  18.855  0.00  0.00    +0.000 C 
ENDBRANCH   2  12
ENDBRANCH   1   7
BRANCH   1  15
ATOM     15  N   UNL     1       8.006   7.500  17.216  0.00  0.00    +0.000 NA
ATOM     16  H   UNL     1       7.414   7.108  16.476  0.00  0.00    +0.000 HD
BRANCH  15  17
ATOM     17  C   UNL     1       7.413   8.760  17.704  0.00  0.00    +0.000 C 
BRANCH  17  18
ATOM     18  C   UNL     1       8.482   9.720  18.233  0.00  0.00    +0.000 C 
ATOM     19  O   UNL     1       9.235   9.384  19.147  0.00  0.00    +0.000 OA
ATOM     20  N   UNL     1       8.505  10.940  17.597  0.00  0.00    +0.000 N 
ATOM     21  C   UNL     1       9.328  11.991  17.988  0.00  0.00    +0.000 A 
ATOM     22  C   UNL     1      10.654  11.811  18.383  0.00  0.00    +0.000 A 
ATOM     23  N   UNL     1      11.446  12.833  18.799  0.00  0.00    +0.000 NA
ATOM     24  C   UNL     1      10.841  14.038  18.840  0.00  0.00    +0.000 A 
ATOM     25  C   UNL     1       9.528  14.222  18.439  0.00  0.00    +0.000 A 
ATOM     26  N   UNL     1       8.758  13.216  17.967  0.00  0.00    +0.000 NA
ATOM     27  H   UNL     1       7.656  11.199  17.108  0.00  0.00    +0.000 HD
ENDBRANCH  17  18
ENDBRANCH  15  17
ENDBRANCH   1  15
TORSDOF 5
ENDMDL
MODEL 7
REMARK VINA RESULT:      -7.2      1.708      2.632
REMARK  Name = 
REMARK  8 active torsions:
REMARK  status: ('A' for Active; 'I' for Inactive)
REMARK    1  A    between atoms: C_1  and  C_2
REMARK    2  A    between atoms: C_2  and  C_3
REMARK    3  A    between atoms: C_2  and  C_4
REMARK    4  A    between atoms: C_2  and  C_5
REMARK    5  A    between atoms: C_10  and  C_11
REMARK    6  A    between atoms: C_11  and  N_12
REMARK    7  A    between atoms: N_12  and  C_13
REMARK    8  A    between atoms: C_13  and  C_14
REMARK                            x       y       z     vdW  Elec       q    Type
REMARK                         _______ _______ _______ _____ _____    ______ ____
ROOT
ATOM      1  C   UNL     1       2.984   4.284  19.744  0.00  0.00    +0.000 C 
ENDROOT
BRANCH   1   7
ATOM      2  C   UNL     1       0.952   9.912  19.864  0.00  0.00    +0.000 A 
ATOM      3  C   UNL     1       1.422   9.855  18.531  0.00  0.00    +0.000 A 
ATOM      4  C   UNL     1       2.028   8.711  17.983  0.00  0.00    +0.000 A 
ATOM      5  C   UNL     1       2.128   7.618  18.827  0.00  0.00    +0.000 A 
ATOM      6  O   UNL     1       2.655   6.393  18.548  0.00  0.00    +0.000 OA
ATOM      7  C   UNL     1       2.492   5.693  19.724  0.00  0.00    +0.000 A 
ATOM      8  N   UNL     1       1.913   6.369  20.697  0.00  0.00    +0.000 NA
ATOM      9  C   UNL     1       1.677   7.598  20.135  0.00  0.00    +0.000 A 
ATOM     10  C   UNL     1       1.075   8.748  20.661  0.00  0.00    +0.000 A 
BRANCH   2  12
ATOM     11  C   UNL     1       1.301  12.294  20.510  0.00  0.00    +0.000 C 
ATOM     12  C   UNL     1       0.255  11.163  20.425  0.00  0.00    +0.000 C 
ATOM     13  C   UNL     1      -0.347  10.946  21.832  0.00  0.00    +0.000 C 
ATOM     14  C   UNL     1      -0.913  11.639  19.525  0.00  0.00    +0.000 C 
ENDBRANCH   2  12
ENDBRANCH   1   7
BRANCH   1  15
ATOM     15  N   UNL     1       4.377   4.198  19.262  0.00  0.00    +0.000 NA
ATOM     16  H   UNL     1       4.898   3.665  19.966  0.00  0.00    +0.000 HD
BRANCH  15  17
ATOM     17  C   UNL     1       4.416   3.481  17.973  0.00  0.00    +0.000 C 
BRANCH  17  18
ATOM     18  C   UNL     1       5.215   4.253  16.921  0.00  0.00    +0.000 C 
ATOM     19  O   UNL     1       5.371   5.471  17.014  0.00  0.00    +0.000 OA
ATOM     20  N   UNL     1       5.716   3.468  15.909  0.00  0.00    +0.000 N 
ATOM     21  C   UNL     1       6.383   3.980  14.801  0.00  0.00    +0.000 A 
ATOM     22  C   UNL     1       7.309   5.020  14.886  0.00  0.00    +0.000 A 
ATOM     23  N   UNL     1       7.933   5.545  13.799  0.00  0.00    +0.000 NA
ATOM     24  C   UNL     1       7.563   5.008  12.619  0.00  0.00    +0.000 A 
ATOM     25  C   UNL     1       6.652   3.967  12.532  0.00  0.00    +0.000 A 
ATOM     26  N   UNL     1       6.076   3.404  13.618  0.00  0.00    +0.000 NA
ATOM     27  H   UNL     1       5.259   2.572  15.777  0.00  0.00    +0.000 HD
ENDBRANCH  17  18
ENDBRANCH  15  17
ENDBRANCH   1  15
TORSDOF 5
ENDMDL
MODEL 8
REMARK VINA RESULT:      -7.1      0.882      1.286
REMARK  Name = 
REMARK  8 active torsions:
REMARK  status: ('A' for Active; 'I' for Inactive)
REMARK    1  A    between atoms: C_1  and  C_2
REMARK    2  A    between atoms: C_2  and  C_3
REMARK    3  A    between atoms: C_2  and  C_4
REMARK    4  A    between atoms: C_2  and  C_5
REMARK    5  A    between atoms: C_10  and  C_11
REMARK    6  A    between atoms: C_11  and  N_12
REMARK    7  A    between atoms: N_12  and  C_13
REMARK    8  A    between atoms: C_13  and  C_14
REMARK                            x       y       z     vdW  Elec       q    Type
REMARK                         _______ _______ _______ _____ _____    ______ ____
ROOT
ATOM      1  C   UNL     1       2.273   3.792  21.356  0.00  0.00    +0.000 C 
ENDROOT
BRANCH   1   7
ATOM      2  C   UNL     1       1.527   9.303  19.148  0.00  0.00    +0.000 A 
ATOM      3  C   UNL     1       2.174   8.691  18.050  0.00  0.00    +0.000 A 
ATOM      4  C   UNL     1       2.593   7.349  18.061  0.00  0.00    +0.000 A 
ATOM      5  C   UNL     1       2.320   6.641  19.220  0.00  0.00    +0.000 A 
ATOM      6  O   UNL     1       2.603   5.336  19.488  0.00  0.00    +0.000 OA
ATOM      7  C   UNL     1       2.111   5.151  20.761  0.00  0.00    +0.000 A 
ATOM      8  N   UNL     1       1.549   6.216  21.300  0.00  0.00    +0.000 NA
ATOM      9  C   UNL     1       1.678   7.172  20.325  0.00  0.00    +0.000 A 
ATOM     10  C   UNL     1       1.267   8.511  20.292  0.00  0.00    +0.000 A 
BRANCH   2  12
ATOM     11  C   UNL     1      -0.351  10.775  18.426  0.00  0.00    +0.000 C 
ATOM     12  C   UNL     1       1.042  10.762  19.092  0.00  0.00    +0.000 C 
ATOM     13  C   UNL     1       1.980  11.685  18.281  0.00  0.00    +0.000 C 
ATOM     14  C   UNL     1       0.920  11.398  20.499  0.00  0.00    +0.000 C 
ENDBRANCH   2  12
ENDBRANCH   1   7
BRANCH   1  15
ATOM     15  N   UNL     1       2.303   2.751  20.310  0.00  0.00    +0.000 NA
ATOM     16  H   UNL     1       1.904   3.173  19.465  0.00  0.00    +0.000 HD
BRANCH  15  17
ATOM     17  C   UNL     1       3.698   2.349  20.046  0.00  0.00    +0.000 C 
BRANCH  17  18
ATOM     18  C   UNL     1       4.108   2.643  18.601  0.00  0.00    +0.000 C 
ATOM     19  O   UNL     1       3.705   1.939  17.674  0.00  0.00    +0.000 OA
ATOM     20  N   UNL     1       4.935   3.733  18.462  0.00  0.00    +0.000 N 
ATOM     21  C   UNL     1       5.505   4.113  17.251  0.00  0.00    +0.000 A 
ATOM     22  C   UNL     1       4.808   4.085  16.043  0.00  0.00    +0.000 A 
ATOM     23  N   UNL     1       5.376   4.422  14.855  0.00  0.00    +0.000 NA
ATOM     24  C   UNL     1       6.682   4.751  14.924  0.00  0.00    +0.000 A 
ATOM     25  C   UNL     1       7.374   4.790  16.124  0.00  0.00    +0.000 A 
ATOM     26  N   UNL     1       6.793   4.514  17.315  0.00  0.00    +0.000 NA
ATOM     27  H   UNL     1       5.437   4.015  19.297  0.00  0.00    +0.000 HD
ENDBRANCH  17  18
ENDBRANCH  15  17
ENDBRANCH   1  15
TORSDOF 5
ENDMDL
MODEL 9
REMARK VINA RESULT:      -7.1      4.139      9.026
REMARK  Name = 
REMARK  8 active torsions:
REMARK  status: ('A' for Active; 'I' for Inactive)
REMARK    1  A    between atoms: C_1  and  C_2
REMARK    2  A    between atoms: C_2  and  C_3
REMARK    3  A    between atoms: C_2  and  C_4
REMARK    4  A    between atoms: C_2  and  C_5
REMARK    5  A    between atoms: C_10  and  C_11
REMARK    6  A    between atoms: C_11  and  N_12
REMARK    7  A    between atoms: N_12  and  C_13
REMARK    8  A    between atoms: C_13  and  C_14
REMARK                            x       y       z     vdW  Elec       q    Type
REMARK                         _______ _______ _______ _____ _____    ______ ____
ROOT
ATOM      1  C   UNL     1      -0.505  10.465  22.560  0.00  0.00    +0.000 C 
ENDROOT
BRANCH   1   7
ATOM      2  C   UNL     1       2.637   7.154  18.690  0.00  0.00    +0.000 A 
ATOM      3  C   UNL     1       2.288   8.238  17.851  0.00  0.00    +0.000 A 
ATOM      4  C   UNL     1       1.508   9.323  18.288  0.00  0.00    +0.000 A 
ATOM      5  C   UNL     1       1.107   9.282  19.613  0.00  0.00    +0.000 A 
ATOM      6  O   UNL     1       0.363  10.202  20.288  0.00  0.00    +0.000 OA
ATOM      7  C   UNL     1       0.270   9.676  21.558  0.00  0.00    +0.000 A 
ATOM      8  N   UNL     1       0.887   8.523  21.729  0.00  0.00    +0.000 NA
ATOM      9  C   UNL     1       1.424   8.264  20.493  0.00  0.00    +0.000 A 
ATOM     10  C   UNL     1       2.203   7.192  20.037  0.00  0.00    +0.000 A 
BRANCH   2  12
ATOM     11  C   UNL     1       4.403   6.536  17.044  0.00  0.00    +0.000 C 
ATOM     12  C   UNL     1       3.527   6.001  18.196  0.00  0.00    +0.000 C 
ATOM     13  C   UNL     1       2.721   4.789  17.676  0.00  0.00    +0.000 C 
ATOM     14  C   UNL     1       4.457   5.456  19.309  0.00  0.00    +0.000 C 
ENDBRANCH   2  12
ENDBRANCH   1   7
BRANCH   1  15
ATOM     15  N   UNL     1      -0.296  11.915  22.374  0.00  0.00    +0.000 NA
ATOM     16  H   UNL     1      -0.225  12.074  21.364  0.00  0.00    +0.000 HD
BRANCH  15  17
ATOM     17  C   UNL     1      -1.453  12.658  22.909  0.00  0.00    +0.000 C 
BRANCH  17  18
ATOM     18  C   UNL     1      -2.692  12.485  22.028  0.00  0.00    +0.000 C 
ATOM     19  O   UNL     1      -3.798  12.272  22.528  0.00  0.00    +0.000 OA
ATOM     20  N   UNL     1      -2.443  12.592  20.680  0.00  0.00    +0.000 N 
ATOM     21  C   UNL     1      -3.408  12.368  19.702  0.00  0.00    +0.000 A 
ATOM     22  C   UNL     1      -4.725  12.812  19.820  0.00  0.00    +0.000 A 
ATOM     23  N   UNL     1      -5.676  12.561  18.882  0.00  0.00    +0.000 NA
ATOM     24  C   UNL     1      -5.260  11.814  17.839  0.00  0.00    +0.000 A 
ATOM     25  C   UNL     1      -3.949  11.381  17.714  0.00  0.00    +0.000 A 
ATOM     26  N   UNL     1      -2.988  11.681  18.617  0.00  0.00    +0.000 NA
ATOM     27  H   UNL     1      -1.481  12.446  20.396  0.00  0.00    +0.000 HD
ENDBRANCH  17  18
ENDBRANCH  15  17
ENDBRANCH   1  15
TORSDOF 5
ENDMDL
