MODEL 1
REMARK VINA RESULT:      -8.3      0.000      0.000
REMARK  Name = 
REMARK  6 active torsions:
REMARK  status: ('A' for Active; 'I' for Inactive)
REMARK    1  A    between atoms: C_1  and  C_2
REMARK    2  A    between atoms: C_2  and  C_9
REMARK    3  A    between atoms: N_3  and  N_4
REMARK    4  A    between atoms: N_4  and  C_5
REMARK    5  A    between atoms: C_15  and  C_16
REMARK    6  A    between atoms: C_16  and  C_17
REMARK                            x       y       z     vdW  Elec       q    Type
REMARK                         _______ _______ _______ _____ _____    ______ ____
ROOT
ATOM      1  C   UNL     1       3.099   5.867  18.905  0.00  0.00    +0.000 A 
ATOM      2  C   UNL     1       2.742   4.953  20.033  0.00  0.00    +0.000 A 
ATOM      3  C   UNL     1       1.932   5.429  20.983  0.00  0.00    +0.000 A 
ATOM      4  C   UNL     1       1.469   6.756  20.893  0.00  0.00    +0.000 A 
ATOM      5  N   UNL     1       0.658   7.428  21.678  0.00  0.00    +0.000 NA
ATOM      6  C   UNL     1       0.538   8.659  21.094  0.00  0.00    +0.000 A 
ATOM      7  C   UNL     1       1.298   8.750  19.944  0.00  0.00    +0.000 A 
ATOM      8  N   UNL     1       1.895   7.516  19.811  0.00  0.00    +0.000 N 
ATOM      9  N   UNL     1       2.717   7.107  18.783  0.00  0.00    +0.000 NA
ENDROOT
BRANCH   1  11
ATOM     10  C   UNL     1       3.503   3.969  17.221  0.00  0.00    +0.000 C 
ATOM     11  C   UNL     1       3.999   5.251  17.826  0.00  0.00    +0.000 C 
ATOM     12  N   UNL     1       5.053   5.947  17.515  0.00  0.00    +0.000 NA
BRANCH  12  13
ATOM     13  N   UNL     1       6.001   5.570  16.581  0.00  0.00    +0.000 N 
ATOM     14  C   UNL     1       5.753   5.519  15.153  0.00  0.00    +0.000 C 
ATOM     15  C   UNL     1       7.124   4.862  17.044  0.00  0.00    +0.000 C 
ATOM     16  N   UNL     1       7.236   4.843  18.403  0.00  0.00    +0.000 N 
ATOM     17  O   UNL     1       7.966   4.319  16.339  0.00  0.00    +0.000 OA
ATOM     18  H   UNL     1       6.717   5.559  18.883  0.00  0.00    +0.000 HD
ATOM     19  H   UNL     1       8.111   4.515  18.782  0.00  0.00    +0.000 HD
ENDBRANCH  12  13
ENDBRANCH   1  11
BRANCH   7  20
ATOM     20  C   UNL     1       1.400   9.851  18.955  0.00  0.00    +0.000 C 
BRANCH  20  21
ATOM     21  C   UNL     1       0.088  10.473  18.545  0.00  0.00    +0.000 A 
ATOM     22  C   UNL     1      -0.641   9.960  17.467  0.00  0.00    +0.000 A 
ATOM     23  C   UNL     1      -1.941  10.426  17.194  0.00  0.00    +0.000 A 
ATOM     24  C   UNL     1      -2.720   9.872  16.170  0.00  0.00    +0.000 A 
ATOM     25  C   UNL     1      -4.023  10.310  15.975  0.00  0.00    +0.000 A 
ATOM     26  C   UNL     1      -4.503  11.304  16.804  0.00  0.00    +0.000 A 
ATOM     27  N   UNL     1      -3.775  11.882  17.785  0.00  0.00    +0.000 NA
ATOM     28  C   UNL     1      -2.516  11.451  17.979  0.00  0.00    +0.000 A 
ATOM     29  C   UNL     1      -1.754  12.001  18.997  0.00  0.00    +0.000 A 
ATOM     30  C   UNL     1      -0.478  11.521  19.278  0.00  0.00    +0.000 A 
ATOM     31  F   UNL     1       0.197  12.051  20.309  0.00  0.00    +0.000 F 
ENDBRANCH  20  21
ENDBRANCH   7  20
TORSDOF 4
ENDMDL
MODEL 2
REMARK VINA RESULT:      -8.3      1.148      1.222
REMARK  Name = 
REMARK  6 active torsions:
REMARK  status: ('A' for Active; 'I' for Inactive)
REMARK    1  A    between atoms: C_1  and  C_2
REMARK    2  A    between atoms: C_2  and  C_9
REMARK    3  A    between atoms: N_3  and  N_4
REMARK    4  A    between atoms: N_4  and  C_5
REMARK    5  A    between atoms: C_15  and  C_16
REMARK    6  A    between atoms: C_16  and  C_17
REMARK                            x       y       z     vdW  Elec       q    Type
REMARK                         _______ _______ _______ _____ _____    ______ ____
ROOT
ATOM      1  C   UNL     1       3.554   5.377  18.325  0.00  0.00    +0.000 A 
ATOM      2  C   UNL     1       3.334   4.472  19.493  0.00  0.00    +0.000 A 
ATOM      3  C   UNL     1       2.596   4.935  20.506  0.00  0.00    +0.000 A 
ATOM      4  C   UNL     1       2.078   6.243  20.440  0.00  0.00    +0.000 A 
ATOM      5  N   UNL     1       1.317   6.899  21.286  0.00  0.00    +0.000 NA
ATOM      6  C   UNL     1       1.100   8.115  20.698  0.00  0.00    +0.000 A 
ATOM      7  C   UNL     1       1.749   8.213  19.483  0.00  0.00    +0.000 A 
ATOM      8  N   UNL     1       2.377   6.998  19.313  0.00  0.00    +0.000 N 
ATOM      9  N   UNL     1       3.118   6.601  18.221  0.00  0.00    +0.000 NA
ENDROOT
BRANCH   1  11
ATOM     10  C   UNL     1       4.400   3.275  17.115  0.00  0.00    +0.000 C 
ATOM     11  C   UNL     1       4.376   4.775  17.178  0.00  0.00    +0.000 C 
ATOM     12  N   UNL     1       4.899   5.636  16.355  0.00  0.00    +0.000 NA
BRANCH  12  13
ATOM     13  N   UNL     1       5.685   5.308  15.265  0.00  0.00    +0.000 N 
ATOM     14  C   UNL     1       5.286   4.368  14.235  0.00  0.00    +0.000 C 
ATOM     15  C   UNL     1       7.056   5.607  15.338  0.00  0.00    +0.000 C 
ATOM     16  N   UNL     1       7.388   6.397  16.400  0.00  0.00    +0.000 N 
ATOM     17  O   UNL     1       7.910   5.242  14.539  0.00  0.00    +0.000 OA
ATOM     18  H   UNL     1       6.622   6.909  16.805  0.00  0.00    +0.000 HD
ATOM     19  H   UNL     1       8.314   6.793  16.399  0.00  0.00    +0.000 HD
ENDBRANCH  12  13
ENDBRANCH   1  11
BRANCH   7  20
ATOM     20  C   UNL     1       1.722   9.300  18.473  0.00  0.00    +0.000 C 
BRANCH  20  21
ATOM     21  C   UNL     1       0.467  10.137  18.463  0.00  0.00    +0.000 A 
ATOM     22  C   UNL     1      -0.675   9.707  17.778  0.00  0.00    +0.000 A 
ATOM     23  C   UNL     1      -1.894  10.399  17.911  0.00  0.00    +0.000 A 
ATOM     24  C   UNL     1      -3.068   9.942  17.299  0.00  0.00    +0.000 A 
ATOM     25  C   UNL     1      -4.266  10.611  17.509  0.00  0.00    +0.000 A 
ATOM     26  C   UNL     1      -4.249  11.733  18.315  0.00  0.00    +0.000 A 
ATOM     27  N   UNL     1      -3.132  12.220  18.901  0.00  0.00    +0.000 NA
ATOM     28  C   UNL     1      -1.975  11.565  18.704  0.00  0.00    +0.000 A 
ATOM     29  C   UNL     1      -0.818  12.022  19.317  0.00  0.00    +0.000 A 
ATOM     30  C   UNL     1       0.379  11.321  19.201  0.00  0.00    +0.000 A 
ATOM     31  F   UNL     1       1.456  11.776  19.858  0.00  0.00    +0.000 F 
ENDBRANCH  20  21
ENDBRANCH   7  20
TORSDOF 4
ENDMDL
MODEL 3
REMARK VINA RESULT:      -8.0      0.791      1.204
REMARK  Name = 
REMARK  6 active torsions:
REMARK  status: ('A' for Active; 'I' for Inactive)
REMARK    1  A    between atoms: C_1  and  C_2
REMARK    2  A    between atoms: C_2  and  C_9
REMARK    3  A    between atoms: N_3  and  N_4
REMARK    4  A    between atoms: N_4  and  C_5
REMARK    5  A    between atoms: C_15  and  C_16
REMARK    6  A    between atoms: C_16  and  C_17
REMARK                            x       y       z     vdW  Elec       q    Type
REMARK                         _______ _______ _______ _____ _____    ______ ____
ROOT
ATOM      1  C   UNL     1       3.483   5.381  18.968  0.00  0.00    +0.000 A 
ATOM      2  C   UNL     1       3.061   4.503  20.101  0.00  0.00    +0.000 A 
ATOM      3  C   UNL     1       2.186   5.003  20.979  0.00  0.00    +0.000 A 
ATOM      4  C   UNL     1       1.718   6.320  20.812  0.00  0.00    +0.000 A 
ATOM      5  N   UNL     1       0.851   7.010  21.519  0.00  0.00    +0.000 NA
ATOM      6  C   UNL     1       0.759   8.218  20.886  0.00  0.00    +0.000 A 
ATOM      7  C   UNL     1       1.592   8.279  19.786  0.00  0.00    +0.000 A 
ATOM      8  N   UNL     1       2.208   7.047  19.735  0.00  0.00    +0.000 N 
ATOM      9  N   UNL     1       3.100   6.612  18.779  0.00  0.00    +0.000 NA
ENDROOT
BRANCH   1  11
ATOM     10  C   UNL     1       4.024   3.422  17.397  0.00  0.00    +0.000 C 
ATOM     11  C   UNL     1       4.458   4.739  17.973  0.00  0.00    +0.000 C 
ATOM     12  N   UNL     1       5.515   5.444  17.693  0.00  0.00    +0.000 NA
BRANCH  12  13
ATOM     13  N   UNL     1       6.524   5.047  16.835  0.00  0.00    +0.000 N 
ATOM     14  C   UNL     1       7.747   4.399  17.270  0.00  0.00    +0.000 C 
ATOM     15  C   UNL     1       6.543   5.611  15.548  0.00  0.00    +0.000 C 
ATOM     16  N   UNL     1       5.414   6.312  15.241  0.00  0.00    +0.000 N 
ATOM     17  O   UNL     1       7.448   5.494  14.730  0.00  0.00    +0.000 OA
ATOM     18  H   UNL     1       4.611   6.095  15.809  0.00  0.00    +0.000 HD
ATOM     19  H   UNL     1       5.292   6.578  14.277  0.00  0.00    +0.000 HD
ENDBRANCH  12  13
ENDBRANCH   1  11
BRANCH   7  20
ATOM     20  C   UNL     1       1.750   9.347  18.767  0.00  0.00    +0.000 C 
BRANCH  20  21
ATOM     21  C   UNL     1       0.499  10.132  18.460  0.00  0.00    +0.000 A 
ATOM     22  C   UNL     1      -0.439   9.652  17.539  0.00  0.00    +0.000 A 
ATOM     23  C   UNL     1      -1.681  10.295  17.381  0.00  0.00    +0.000 A 
ATOM     24  C   UNL     1      -2.667   9.788  16.525  0.00  0.00    +0.000 A 
ATOM     25  C   UNL     1      -3.906  10.410  16.447  0.00  0.00    +0.000 A 
ATOM     26  C   UNL     1      -4.116  11.535  17.220  0.00  0.00    +0.000 A 
ATOM     27  N   UNL     1      -3.182  12.070  18.037  0.00  0.00    +0.000 NA
ATOM     28  C   UNL     1      -1.985  11.462  18.118  0.00  0.00    +0.000 A 
ATOM     29  C   UNL     1      -1.017  11.968  18.972  0.00  0.00    +0.000 A 
ATOM     30  C   UNL     1       0.201  11.316  19.142  0.00  0.00    +0.000 A 
ATOM     31  F   UNL     1       1.081  11.817  20.020  0.00  0.00    +0.000 F 
ENDBRANCH  20  21
ENDBRANCH   7  20
TORSDOF 4
ENDMDL
MODEL 4
REMARK VINA RESULT:      -8.0      2.835      4.159
REMARK  Name = 
REMARK  6 active torsions:
REMARK  status: ('A' for Active; 'I' for Inactive)
REMARK    1  A    between atoms: C_1  and  C_2
REMARK    2  A    between atoms: C_2  and  C_9
REMARK    3  A    between atoms: N_3  and  N_4
REMARK    4  A    between atoms: N_4  and  C_5
REMARK    5  A    between atoms: C_15  and  C_16
REMARK    6  A    between atoms: C_16  and  C_17
REMARK                            x       y       z     vdW  Elec       q    Type
REMARK                         _______ _______ _______ _____ _____    ______ ____
ROOT
ATOM      1  C   UNL     1       4.455   3.967  17.177  0.00  0.00    +0.000 A 
ATOM      2  C   UNL     1       3.710   2.709  16.868  0.00  0.00    +0.000 A 
ATOM      3  C   UNL     1       2.593   2.465  17.558  0.00  0.00    +0.000 A 
ATOM      4  C   UNL     1       2.178   3.381  18.544  0.00  0.00    +0.000 A 
ATOM      5  N   UNL     1       1.118   3.371  19.321  0.00  0.00    +0.000 NA
ATOM      6  C   UNL     1       1.210   4.518  20.060  0.00  0.00    +0.000 A 
ATOM      7  C   UNL     1       2.348   5.234  19.745  0.00  0.00    +0.000 A 
ATOM      8  N   UNL     1       2.971   4.501  18.759  0.00  0.00    +0.000 N 
ATOM      9  N   UNL     1       4.129   4.837  18.091  0.00  0.00    +0.000 NA
ENDROOT
BRANCH   1  11
ATOM     10  C   UNL     1       6.978   4.445  17.092  0.00  0.00    +0.000 C 
ATOM     11  C   UNL     1       5.708   4.210  16.325  0.00  0.00    +0.000 C 
ATOM     12  N   UNL     1       5.535   4.115  15.040  0.00  0.00    +0.000 NA
BRANCH  12  13
ATOM     13  N   UNL     1       6.526   4.310  14.094  0.00  0.00    +0.000 N 
ATOM     14  C   UNL     1       7.505   5.379  14.157  0.00  0.00    +0.000 C 
ATOM     15  C   UNL     1       6.363   3.687  12.845  0.00  0.00    +0.000 C 
ATOM     16  N   UNL     1       5.346   2.779  12.814  0.00  0.00    +0.000 N 
ATOM     17  O   UNL     1       7.055   3.885  11.853  0.00  0.00    +0.000 OA
ATOM     18  H   UNL     1       5.050   2.441  13.715  0.00  0.00    +0.000 HD
ATOM     19  H   UNL     1       5.302   2.173  12.010  0.00  0.00    +0.000 HD
ENDBRANCH  12  13
ENDBRANCH   1  11
BRANCH   7  20
ATOM     20  C   UNL     1       2.802   6.563  20.226  0.00  0.00    +0.000 C 
BRANCH  20  21
ATOM     21  C   UNL     1       1.947   7.729  19.796  0.00  0.00    +0.000 A 
ATOM     22  C   UNL     1       1.097   8.367  20.706  0.00  0.00    +0.000 A 
ATOM     23  C   UNL     1       0.433   9.557  20.353  0.00  0.00    +0.000 A 
ATOM     24  C   UNL     1      -0.361  10.256  21.272  0.00  0.00    +0.000 A 
ATOM     25  C   UNL     1      -0.944  11.462  20.909  0.00  0.00    +0.000 A 
ATOM     26  C   UNL     1      -0.727  11.927  19.627  0.00  0.00    +0.000 A 
ATOM     27  N   UNL     1       0.009  11.269  18.704  0.00  0.00    +0.000 NA
ATOM     28  C   UNL     1       0.580  10.105  19.059  0.00  0.00    +0.000 A 
ATOM     29  C   UNL     1       1.367   9.423  18.145  0.00  0.00    +0.000 A 
ATOM     30  C   UNL     1       2.040   8.259  18.505  0.00  0.00    +0.000 A 
ATOM     31  F   UNL     1       2.832   7.666  17.599  0.00  0.00    +0.000 F 
ENDBRANCH  20  21
ENDBRANCH   7  20
TORSDOF 4
ENDMDL
MODEL 5
REMARK VINA RESULT:      -8.0      2.195      3.314
REMARK  Name = 
REMARK  6 active torsions:
REMARK  status: ('A' for Active; 'I' for Inactive)
REMARK    1  A    between atoms: C_1  and  C_2
REMARK    2  A    between atoms: C_2  and  C_9
REMARK    3  A    between atoms: N_3  and  N_4
REMARK    4  A    between atoms: N_4  and  C_5
REMARK    5  A    between atoms: C_15  and  C_16
REMARK    6  A    between atoms: C_16  and  C_17
REMARK                            x       y       z     vdW  Elec       q    Type
REMARK                         _______ _______ _______ _____ _____    ______ ____
ROOT
ATOM      1  C   UNL     1       3.281   5.927  18.892  0.00  0.00    +0.000 A 
ATOM      2  C   UNL     1       2.836   5.180  20.108  0.00  0.00    +0.000 A 
ATOM      3  C   UNL     1       1.980   5.792  20.932  0.00  0.00    +0.000 A 
ATOM      4  C   UNL     1       1.552   7.100  20.633  0.00  0.00    +0.000 A 
ATOM      5  N   UNL     1       0.708   7.883  21.267  0.00  0.00    +0.000 NA
ATOM      6  C   UNL     1       0.650   9.024  20.515  0.00  0.00    +0.000 A 
ATOM      7  C   UNL     1       1.481   8.948  19.414  0.00  0.00    +0.000 A 
ATOM      8  N   UNL     1       2.059   7.699  19.488  0.00  0.00    +0.000 N 
ATOM      9  N   UNL     1       2.934   7.143  18.580  0.00  0.00    +0.000 NA
ENDROOT
BRANCH   1  11
ATOM     10  C   UNL     1       3.684   3.889  17.380  0.00  0.00    +0.000 C 
ATOM     11  C   UNL     1       4.233   5.158  17.967  0.00  0.00    +0.000 C 
ATOM     12  N   UNL     1       5.379   5.731  17.745  0.00  0.00    +0.000 NA
BRANCH  12  13
ATOM     13  N   UNL     1       6.385   5.205  16.955  0.00  0.00    +0.000 N 
ATOM     14  C   UNL     1       7.529   4.483  17.478  0.00  0.00    +0.000 C 
ATOM     15  C   UNL     1       6.504   5.693  15.642  0.00  0.00    +0.000 C 
ATOM     16  N   UNL     1       5.452   6.467  15.249  0.00  0.00    +0.000 N 
ATOM     17  O   UNL     1       7.428   5.456  14.873  0.00  0.00    +0.000 OA
ATOM     18  H   UNL     1       4.611   6.349  15.790  0.00  0.00    +0.000 HD
ATOM     19  H   UNL     1       5.392   6.688  14.267  0.00  0.00    +0.000 HD
ENDBRANCH  12  13
ENDBRANCH   1  11
BRANCH   7  20
ATOM     20  C   UNL     1       1.667   9.902  18.294  0.00  0.00    +0.000 C 
BRANCH  20  21
ATOM     21  C   UNL     1       1.150  11.297  18.544  0.00  0.00    +0.000 A 
ATOM     22  C   UNL     1       2.032  12.350  18.807  0.00  0.00    +0.000 A 
ATOM     23  C   UNL     1       1.566  13.677  18.868  0.00  0.00    +0.000 A 
ATOM     24  C   UNL     1       2.441  14.756  19.052  0.00  0.00    +0.000 A 
ATOM     25  C   UNL     1       1.953  16.056  19.037  0.00  0.00    +0.000 A 
ATOM     26  C   UNL     1       0.596  16.236  18.855  0.00  0.00    +0.000 A 
ATOM     27  N   UNL     1      -0.283  15.222  18.702  0.00  0.00    +0.000 NA
ATOM     28  C   UNL     1       0.191  13.964  18.708  0.00  0.00    +0.000 A 
ATOM     29  C   UNL     1      -0.681  12.903  18.521  0.00  0.00    +0.000 A 
ATOM     30  C   UNL     1      -0.212  11.595  18.438  0.00  0.00    +0.000 A 
ATOM     31  F   UNL     1      -1.091  10.610  18.202  0.00  0.00    +0.000 F 
ENDBRANCH  20  21
ENDBRANCH   7  20
TORSDOF 4
ENDMDL
MODEL 6
REMARK VINA RESULT:      -8.0      2.237      3.253
REMARK  Name = 
REMARK  6 active torsions:
REMARK  status: ('A' for Active; 'I' for Inactive)
REMARK    1  A    between atoms: C_1  and  C_2
REMARK    2  A    between atoms: C_2  and  C_9
REMARK    3  A    between atoms: N_3  and  N_4
REMARK    4  A    between atoms: N_4  and  C_5
REMARK    5  A    between atoms: C_15  and  C_16
REMARK    6  A    between atoms: C_16  and  C_17
REMARK                            x       y       z     vdW  Elec       q    Type
REMARK                         _______ _______ _______ _____ _____    ______ ____
ROOT
ATOM      1  C   UNL     1       3.118   6.165  18.819  0.00  0.00    +0.000 A 
ATOM      2  C   UNL     1       2.679   5.403  20.027  0.00  0.00    +0.000 A 
ATOM      3  C   UNL     1       1.846   6.013  20.876  0.00  0.00    +0.000 A 
ATOM      4  C   UNL     1       1.435   7.333  20.609  0.00  0.00    +0.000 A 
ATOM      5  N   UNL     1       0.615   8.118  21.271  0.00  0.00    +0.000 NA
ATOM      6  C   UNL     1       0.566   9.274  20.542  0.00  0.00    +0.000 A 
ATOM      7  C   UNL     1       1.378   9.206  19.427  0.00  0.00    +0.000 A 
ATOM      8  N   UNL     1       1.936   7.946  19.468  0.00  0.00    +0.000 N 
ATOM      9  N   UNL     1       2.787   7.394  18.536  0.00  0.00    +0.000 NA
ENDROOT
BRANCH   1  11
ATOM     10  C   UNL     1       3.505   4.094  17.350  0.00  0.00    +0.000 C 
ATOM     11  C   UNL     1       4.042   5.399  17.864  0.00  0.00    +0.000 C 
ATOM     12  N   UNL     1       5.152   6.002  17.559  0.00  0.00    +0.000 NA
BRANCH  12  13
ATOM     13  N   UNL     1       6.130   5.484  16.728  0.00  0.00    +0.000 N 
ATOM     14  C   UNL     1       5.946   5.258  15.307  0.00  0.00    +0.000 C 
ATOM     15  C   UNL     1       7.207   4.813  17.332  0.00  0.00    +0.000 C 
ATOM     16  N   UNL     1       7.256   4.964  18.686  0.00  0.00    +0.000 N 
ATOM     17  O   UNL     1       8.063   4.162  16.744  0.00  0.00    +0.000 OA
ATOM     18  H   UNL     1       6.739   5.749  19.046  0.00  0.00    +0.000 HD
ATOM     19  H   UNL     1       8.101   4.664  19.147  0.00  0.00    +0.000 HD
ENDBRANCH  12  13
ENDBRANCH   1  11
BRANCH   7  20
ATOM     20  C   UNL     1       1.564  10.179  18.322  0.00  0.00    +0.000 C 
BRANCH  20  21
ATOM     21  C   UNL     1       1.074  11.577  18.607  0.00  0.00    +0.000 A 
ATOM     22  C   UNL     1       1.976  12.603  18.907  0.00  0.00    +0.000 A 
ATOM     23  C   UNL     1       1.537  13.937  19.001  0.00  0.00    +0.000 A 
ATOM     24  C   UNL     1       2.433  14.992  19.222  0.00  0.00    +0.000 A 
ATOM     25  C   UNL     1       1.973  16.301  19.240  0.00  0.00    +0.000 A 
ATOM     26  C   UNL     1       0.622  16.516  19.052  0.00  0.00    +0.000 A 
ATOM     27  N   UNL     1      -0.278  15.525  18.863  0.00  0.00    +0.000 NA
ATOM     28  C   UNL     1       0.170  14.258  18.837  0.00  0.00    +0.000 A 
ATOM     29  C   UNL     1      -0.722  13.221  18.614  0.00  0.00    +0.000 A 
ATOM     30  C   UNL     1      -0.281  11.906  18.499  0.00  0.00    +0.000 A 
ATOM     31  F   UNL     1      -1.178  10.948  18.228  0.00  0.00    +0.000 F 
ENDBRANCH  20  21
ENDBRANCH   7  20
TORSDOF 4
ENDMDL
MODEL 7
REMARK VINA RESULT:      -8.0      2.821      4.297
REMARK  Name = 
REMARK  6 active torsions:
REMARK  status: ('A' for Active; 'I' for Inactive)
REMARK    1  A    between atoms: C_1  and  C_2
REMARK    2  A    between atoms: C_2  and  C_9
REMARK    3  A    between atoms: N_3  and  N_4
REMARK    4  A    between atoms: N_4  and  C_5
REMARK    5  A    between atoms: C_15  and  C_16
REMARK    6  A    between atoms: C_16  and  C_17
REMARK                            x       y       z     vdW  Elec       q    Type
REMARK                         _______ _______ _______ _____ _____    ______ ____
ROOT
ATOM      1  C   UNL     1       4.730   4.241  16.901  0.00  0.00    +0.000 A 
ATOM      2  C   UNL     1       4.086   2.894  16.957  0.00  0.00    +0.000 A 
ATOM      3  C   UNL     1       2.984   2.764  17.701  0.00  0.00    +0.000 A 
ATOM      4  C   UNL     1       2.491   3.880  18.404  0.00  0.00    +0.000 A 
ATOM      5  N   UNL     1       1.428   4.003  19.167  0.00  0.00    +0.000 NA
ATOM      6  C   UNL     1       1.426   5.312  19.564  0.00  0.00    +0.000 A 
ATOM      7  C   UNL     1       2.510   5.998  19.052  0.00  0.00    +0.000 A 
ATOM      8  N   UNL     1       3.196   5.073  18.296  0.00  0.00    +0.000 N 
ATOM      9  N   UNL     1       4.330   5.300  17.548  0.00  0.00    +0.000 NA
ENDROOT
BRANCH   1  11
ATOM     10  C   UNL     1       7.287   4.400  16.716  0.00  0.00    +0.000 C 
ATOM     11  C   UNL     1       5.968   4.336  16.001  0.00  0.00    +0.000 C 
ATOM     12  N   UNL     1       5.734   4.281  14.723  0.00  0.00    +0.000 NA
BRANCH  12  13
ATOM     13  N   UNL     1       6.702   4.363  13.739  0.00  0.00    +0.000 N 
ATOM     14  C   UNL     1       7.685   5.427  13.658  0.00  0.00    +0.000 C 
ATOM     15  C   UNL     1       6.509   3.604  12.571  0.00  0.00    +0.000 C 
ATOM     16  N   UNL     1       5.489   2.703  12.667  0.00  0.00    +0.000 N 
ATOM     17  O   UNL     1       7.178   3.684  11.548  0.00  0.00    +0.000 OA
ATOM     18  H   UNL     1       5.213   2.471  13.607  0.00  0.00    +0.000 HD
ATOM     19  H   UNL     1       5.425   2.010  11.938  0.00  0.00    +0.000 HD
ENDBRANCH  12  13
ENDBRANCH   1  11
BRANCH   7  20
ATOM     20  C   UNL     1       2.857   7.438  19.146  0.00  0.00    +0.000 C 
BRANCH  20  21
ATOM     21  C   UNL     1       1.742   8.339  19.617  0.00  0.00    +0.000 A 
ATOM     22  C   UNL     1       1.323   8.321  20.952  0.00  0.00    +0.000 A 
ATOM     23  C   UNL     1       0.408   9.278  21.429  0.00  0.00    +0.000 A 
ATOM     24  C   UNL     1       0.034   9.329  22.778  0.00  0.00    +0.000 A 
ATOM     25  C   UNL     1      -0.817  10.330  23.225  0.00  0.00    +0.000 A 
ATOM     26  C   UNL     1      -1.284  11.244  22.301  0.00  0.00    +0.000 A 
ATOM     27  N   UNL     1      -0.969  11.213  20.987  0.00  0.00    +0.000 NA
ATOM     28  C   UNL     1      -0.137  10.248  20.557  0.00  0.00    +0.000 A 
ATOM     29  C   UNL     1       0.231  10.207  19.221  0.00  0.00    +0.000 A 
ATOM     30  C   UNL     1       1.154   9.273  18.759  0.00  0.00    +0.000 A 
ATOM     31  F   UNL     1       1.517   9.311  17.469  0.00  0.00    +0.000 F 
ENDBRANCH  20  21
ENDBRANCH   7  20
TORSDOF 4
ENDMDL
MODEL 8
REMARK VINA RESULT:      -7.9      2.910      4.118
REMARK  Name = 
REMARK  6 active torsions:
REMARK  status: ('A' for Active; 'I' for Inactive)
REMARK    1  A    between atoms: C_1  and  C_2
REMARK    2  A    between atoms: C_2  and  C_9
REMARK    3  A    between atoms: N_3  and  N_4
REMARK    4  A    between atoms: N_4  and  C_5
REMARK    5  A    between atoms: C_15  and  C_16
REMARK    6  A    between atoms: C_16  and  C_17
REMARK                            x       y       z     vdW  Elec       q    Type
REMARK                         _______ _______ _______ _____ _____    ______ ____
ROOT
ATOM      1  C   UNL     1       3.806   4.664  17.159  0.00  0.00    +0.000 A 
ATOM      2  C   UNL     1       3.081   3.389  16.874  0.00  0.00    +0.000 A 
ATOM      3  C   UNL     1       2.108   3.027  17.715  0.00  0.00    +0.000 A 
ATOM      4  C   UNL     1       1.820   3.842  18.827  0.00  0.00    +0.000 A 
ATOM      5  N   UNL     1       0.907   3.710  19.763  0.00  0.00    +0.000 NA
ATOM      6  C   UNL     1       1.067   4.804  20.569  0.00  0.00    +0.000 A 
ATOM      7  C   UNL     1       2.101   5.609  20.132  0.00  0.00    +0.000 A 
ATOM      8  N   UNL     1       2.584   4.989  19.001  0.00  0.00    +0.000 N 
ATOM      9  N   UNL     1       3.596   5.443  18.183  0.00  0.00    +0.000 NA
ENDROOT
BRANCH   1  11
ATOM     10  C   UNL     1       5.159   6.515  16.000  0.00  0.00    +0.000 C 
ATOM     11  C   UNL     1       4.885   5.045  16.137  0.00  0.00    +0.000 C 
ATOM     12  N   UNL     1       5.483   4.045  15.560  0.00  0.00    +0.000 NA
BRANCH  12  13
ATOM     13  N   UNL     1       6.473   4.164  14.601  0.00  0.00    +0.000 N 
ATOM     14  C   UNL     1       7.709   4.895  14.803  0.00  0.00    +0.000 C 
ATOM     15  C   UNL     1       6.124   3.886  13.268  0.00  0.00    +0.000 C 
ATOM     16  N   UNL     1       4.896   3.308  13.133  0.00  0.00    +0.000 N 
ATOM     17  O   UNL     1       6.827   4.097  12.287  0.00  0.00    +0.000 OA
ATOM     18  H   UNL     1       4.533   2.879  13.969  0.00  0.00    +0.000 HD
ATOM     19  H   UNL     1       4.673   2.920  12.230  0.00  0.00    +0.000 HD
ENDBRANCH  12  13
ENDBRANCH   1  11
BRANCH   7  20
ATOM     20  C   UNL     1       2.564   6.924  20.640  0.00  0.00    +0.000 C 
BRANCH  20  21
ATOM     21  C   UNL     1       1.529   8.022  20.623  0.00  0.00    +0.000 A 
ATOM     22  C   UNL     1       0.868   8.400  21.796  0.00  0.00    +0.000 A 
ATOM     23  C   UNL     1       0.034   9.534  21.814  0.00  0.00    +0.000 A 
ATOM     24  C   UNL     1      -0.576   9.979  22.995  0.00  0.00    +0.000 A 
ATOM     25  C   UNL     1      -1.336  11.141  22.988  0.00  0.00    +0.000 A 
ATOM     26  C   UNL     1      -1.476  11.817  21.792  0.00  0.00    +0.000 A 
ATOM     27  N   UNL     1      -0.927  11.406  20.627  0.00  0.00    +0.000 NA
ATOM     28  C   UNL     1      -0.184  10.285  20.637  0.00  0.00    +0.000 A 
ATOM     29  C   UNL     1       0.419   9.855  19.465  0.00  0.00    +0.000 A 
ATOM     30  C   UNL     1       1.261   8.746  19.457  0.00  0.00    +0.000 A 
ATOM     31  F   UNL     1       1.863   8.404  18.309  0.00  0.00    +0.000 F 
ENDBRANCH  20  21
ENDBRANCH   7  20
TORSDOF 4
ENDMDL
MODEL 9
REMARK VINA RESULT:      -7.9      2.473      4.005
REMARK  Name = 
REMARK  6 active torsions:
REMARK  status: ('A' for Active; 'I' for Inactive)
REMARK    1  A    between atoms: C_1  and  C_2
REMARK    2  A    between atoms: C_2  and  C_9
REMARK    3  A    between atoms: N_3  and  N_4
REMARK    4  A    between atoms: N_4  and  C_5
REMARK    5  A    between atoms: C_15  and  C_16
REMARK    6  A    between atoms: C_16  and  C_17
REMARK                            x       y       z     vdW  Elec       q    Type
REMARK                         _______ _______ _______ _____ _____    ______ ____
ROOT
ATOM      1  C   UNL     1       1.239   8.997  20.193  0.00  0.00    +0.000 A 
ATOM      2  C   UNL     1       1.422   8.344  21.526  0.00  0.00    +0.000 A 
ATOM      3  C   UNL     1       0.839   8.919  22.582  0.00  0.00    +0.000 A 
ATOM      4  C   UNL     1       0.102  10.105  22.402  0.00  0.00    +0.000 A 
ATOM      5  N   UNL     1      -0.571  10.827  23.269  0.00  0.00    +0.000 NA
ATOM      6  C   UNL     1      -1.109  11.849  22.537  0.00  0.00    +0.000 A 
ATOM      7  C   UNL     1      -0.749  11.764  21.206  0.00  0.00    +0.000 A 
ATOM      8  N   UNL     1       0.030  10.631  21.118  0.00  0.00    +0.000 N 
ATOM      9  N   UNL     1       0.588  10.104  19.974  0.00  0.00    +0.000 NA
ENDROOT
BRANCH   1  11
ATOM     10  C   UNL     1       1.734   8.924  17.674  0.00  0.00    +0.000 C 
ATOM     11  C   UNL     1       1.900   8.270  19.015  0.00  0.00    +0.000 C 
ATOM     12  N   UNL     1       2.583   7.208  19.327  0.00  0.00    +0.000 NA
BRANCH  12  13
ATOM     13  N   UNL     1       3.244   6.400  18.420  0.00  0.00    +0.000 N 
ATOM     14  C   UNL     1       4.173   6.897  17.422  0.00  0.00    +0.000 C 
ATOM     15  C   UNL     1       2.732   5.108  18.206  0.00  0.00    +0.000 C 
ATOM     16  N   UNL     1       1.773   4.744  19.104  0.00  0.00    +0.000 N 
ATOM     17  O   UNL     1       3.095   4.333  17.329  0.00  0.00    +0.000 OA
ATOM     18  H   UNL     1       1.765   5.278  19.958  0.00  0.00    +0.000 HD
ATOM     19  H   UNL     1       1.506   3.772  19.115  0.00  0.00    +0.000 HD
ENDBRANCH  12  13
ENDBRANCH   1  11
BRANCH   7  20
ATOM     20  C   UNL     1      -1.169  12.595  20.051  0.00  0.00    +0.000 C 
BRANCH  20  21
ATOM     21  C   UNL     1      -2.511  12.242  19.459  0.00  0.00    +0.000 A 
ATOM     22  C   UNL     1      -3.696  12.656  20.076  0.00  0.00    +0.000 A 
ATOM     23  C   UNL     1      -4.938  12.478  19.436  0.00  0.00    +0.000 A 
ATOM     24  C   UNL     1      -6.129  12.955  19.999  0.00  0.00    +0.000 A 
ATOM     25  C   UNL     1      -7.325  12.823  19.307  0.00  0.00    +0.000 A 
ATOM     26  C   UNL     1      -7.295  12.200  18.074  0.00  0.00    +0.000 A 
ATOM     27  N   UNL     1      -6.172  11.703  17.511  0.00  0.00    +0.000 NA
ATOM     28  C   UNL     1      -5.013  11.839  18.178  0.00  0.00    +0.000 A 
ATOM     29  C   UNL     1      -3.838  11.369  17.612  0.00  0.00    +0.000 A 
ATOM     30  C   UNL     1      -2.611  11.567  18.238  0.00  0.00    +0.000 A 
ATOM     31  F   UNL     1      -1.498  11.140  17.623  0.00  0.00    +0.000 F 
ENDBRANCH  20  21
ENDBRANCH   7  20
TORSDOF 4
ENDMDL
