MODEL 1
REMARK VINA RESULT:      -8.4      0.000      0.000
REMARK  Name = 
REMARK  8 active torsions:
REMARK  status: ('A' for Active; 'I' for Inactive)
REMARK    1  A    between atoms: C_1  and  C_2
REMARK    2  A    between atoms: C_6  and  C_7
REMARK    3  A    between atoms: N_9  and  C_10
REMARK    4  A    between atoms: C_10  and  C_11
REMARK    5  A    between atoms: C_11  and  O_13
REMARK    6  A    between atoms: C_18  and  C_19
REMARK    7  A    between atoms: C_26  and  O_27
REMARK    8  A    between atoms: O_27  and  C_28
REMARK                            x       y       z     vdW  Elec       q    Type
REMARK                         _______ _______ _______ _____ _____    ______ ____
ROOT
ATOM      1  C   UNL     1       4.195   3.714  17.779  0.00  0.00    +0.000 C 
ATOM      2  C   UNL     1       4.948   3.720  16.379  0.00  0.00    +0.000 C 
ATOM      3  C   UNL     1       6.244   4.404  16.701  0.00  0.00    +0.000 A 
ATOM      4  C   UNL     1       7.126   4.986  15.810  0.00  0.00    +0.000 A 
ATOM      5  C   UNL     1       7.826   6.091  16.261  0.00  0.00    +0.000 A 
ATOM      6  C   UNL     1       7.554   6.610  17.545  0.00  0.00    +0.000 A 
ATOM      7  C   UNL     1       6.845   5.828  18.489  0.00  0.00    +0.000 A 
ATOM      8  C   UNL     1       6.291   4.633  18.071  0.00  0.00    +0.000 A 
ATOM      9  C   UNL     1       5.378   3.634  18.755  0.00  0.00    +0.000 C 
ENDROOT
BRANCH   1  12
ATOM     10  C   UNL     1       3.315   6.135  17.854  0.00  0.00    +0.000 C 
ATOM     11  O   UNL     1       3.872   6.412  16.796  0.00  0.00    +0.000 OA
ATOM     12  N   UNL     1       3.348   4.849  18.307  0.00  0.00    +0.000 N 
ATOM     13  H   UNL     1       2.816   4.672  19.154  0.00  0.00    +0.000 HD
BRANCH  10  19
ATOM     14  C   UNL     1       0.899   8.623  21.843  0.00  0.00    +0.000 C 
ATOM     15  C   UNL     1       1.376   8.356  20.438  0.00  0.00    +0.000 A 
ATOM     16  C   UNL     1       1.058   9.392  19.533  0.00  0.00    +0.000 A 
ATOM     17  C   UNL     1       1.470   9.361  18.216  0.00  0.00    +0.000 A 
ATOM     18  C   UNL     1       2.211   8.283  17.767  0.00  0.00    +0.000 A 
ATOM     19  C   UNL     1       2.544   7.201  18.608  0.00  0.00    +0.000 A 
ATOM     20  C   UNL     1       2.118   7.228  19.971  0.00  0.00    +0.000 A 
BRANCH  20  21
ATOM     21  O   UNL     1       2.522   6.162  20.772  0.00  0.00    +0.000 OA
BRANCH  21  22
ATOM     22  C   UNL     1       1.572   5.139  21.173  0.00  0.00    +0.000 C 
ATOM     23  C   UNL     1       0.813   4.410  20.042  0.00  0.00    +0.000 C 
ATOM     24  C   UNL     1       1.175   3.062  20.672  0.00  0.00    +0.000 C 
ATOM     25  C   UNL     1       2.169   3.778  21.594  0.00  0.00    +0.000 C 
ENDBRANCH  21  22
ENDBRANCH  20  21
ENDBRANCH  10  19
ENDBRANCH   1  12
BRANCH   6  26
ATOM     26  C   UNL     1       7.873   8.061  17.822  0.00  0.00    +0.000 C 
ATOM     27  F   UNL     1       8.597   8.251  18.967  0.00  0.00    +0.000 F 
ATOM     28  F   UNL     1       8.656   8.601  16.827  0.00  0.00    +0.000 F 
ATOM     29  F   UNL     1       6.790   8.852  17.917  0.00  0.00    +0.000 F 
ENDBRANCH   6  26
BRANCH   1  30
ATOM     30  C   UNL     1       3.230   2.544  17.617  0.00  0.00    +0.000 C 
ATOM     31  O   UNL     1       2.076   2.613  17.236  0.00  0.00    +0.000 OA
BRANCH  30  32
ATOM     32  O   UNL     1       3.755   1.389  18.132  0.00  0.00    +0.000 OA
ATOM     33  H   UNL     1       4.673   1.263  17.800  0.00  0.00    +0.000 HD
ENDBRANCH  30  32
ENDBRANCH   1  30
TORSDOF 7
ENDMDL
MODEL 2
REMARK VINA RESULT:      -7.2      7.974     10.656
REMARK  Name = 
REMARK  8 active torsions:
REMARK  status: ('A' for Active; 'I' for Inactive)
REMARK    1  A    between atoms: C_1  and  C_2
REMARK    2  A    between atoms: C_6  and  C_7
REMARK    3  A    between atoms: N_9  and  C_10
REMARK    4  A    between atoms: C_10  and  C_11
REMARK    5  A    between atoms: C_11  and  O_13
REMARK    6  A    between atoms: C_18  and  C_19
REMARK    7  A    between atoms: C_26  and  O_27
REMARK    8  A    between atoms: O_27  and  C_28
REMARK                            x       y       z     vdW  Elec       q    Type
REMARK                         _______ _______ _______ _____ _____    ______ ____
ROOT
ATOM      1  C   UNL     1      -0.167  13.191  20.699  0.00  0.00    +0.000 C 
ATOM      2  C   UNL     1       0.579  11.816  20.418  0.00  0.00    +0.000 C 
ATOM      3  C   UNL     1       0.041  11.412  19.077  0.00  0.00    +0.000 A 
ATOM      4  C   UNL     1       0.072  10.154  18.507  0.00  0.00    +0.000 A 
ATOM      5  C   UNL     1      -0.990   9.817  17.686  0.00  0.00    +0.000 A 
ATOM      6  C   UNL     1      -2.068  10.715  17.539  0.00  0.00    +0.000 A 
ATOM      7  C   UNL     1      -1.919  12.068  17.930  0.00  0.00    +0.000 A 
ATOM      8  C   UNL     1      -0.769  12.437  18.603  0.00  0.00    +0.000 A 
ATOM      9  C   UNL     1      -0.347  13.730  19.272  0.00  0.00    +0.000 C 
ENDROOT
BRANCH   1  12
ATOM     10  C   UNL     1      -2.063  12.548  22.321  0.00  0.00    +0.000 C 
ATOM     11  O   UNL     1      -1.330  11.780  22.937  0.00  0.00    +0.000 OA
ATOM     12  N   UNL     1      -1.537  13.316  21.324  0.00  0.00    +0.000 N 
ATOM     13  H   UNL     1      -2.181  13.975  20.896  0.00  0.00    +0.000 HD
BRANCH  10  19
ATOM     14  C   UNL     1      -7.219  13.650  21.951  0.00  0.00    +0.000 C 
ATOM     15  C   UNL     1      -5.914  13.230  22.580  0.00  0.00    +0.000 A 
ATOM     16  C   UNL     1      -6.050  12.805  23.919  0.00  0.00    +0.000 A 
ATOM     17  C   UNL     1      -4.979  12.319  24.641  0.00  0.00    +0.000 A 
ATOM     18  C   UNL     1      -3.736  12.252  24.040  0.00  0.00    +0.000 A 
ATOM     19  C   UNL     1      -3.521  12.683  22.714  0.00  0.00    +0.000 A 
ATOM     20  C   UNL     1      -4.626  13.188  21.963  0.00  0.00    +0.000 A 
BRANCH  20  21
ATOM     21  O   UNL     1      -4.371  13.548  20.642  0.00  0.00    +0.000 OA
BRANCH  21  22
ATOM     22  C   UNL     1      -4.805  12.695  19.548  0.00  0.00    +0.000 C 
ATOM     23  C   UNL     1      -5.695  11.487  19.916  0.00  0.00    +0.000 C 
ATOM     24  C   UNL     1      -6.686  11.888  18.820  0.00  0.00    +0.000 C 
ATOM     25  C   UNL     1      -5.964  13.233  18.681  0.00  0.00    +0.000 C 
ENDBRANCH  21  22
ENDBRANCH  20  21
ENDBRANCH  10  19
ENDBRANCH   1  12
BRANCH   6  26
ATOM     26  C   UNL     1      -3.416  10.169  17.130  0.00  0.00    +0.000 C 
ATOM     27  F   UNL     1      -4.067   9.512  18.139  0.00  0.00    +0.000 F 
ATOM     28  F   UNL     1      -4.277  11.180  16.767  0.00  0.00    +0.000 F 
ATOM     29  F   UNL     1      -3.372   9.323  16.087  0.00  0.00    +0.000 F 
ENDBRANCH   6  26
BRANCH   1  30
ATOM     30  C   UNL     1       0.780  13.872  21.683  0.00  0.00    +0.000 C 
ATOM     31  O   UNL     1       0.483  14.743  22.478  0.00  0.00    +0.000 OA
BRANCH  30  32
ATOM     32  O   UNL     1       2.081  13.518  21.448  0.00  0.00    +0.000 OA
ATOM     33  H   UNL     1       2.118  12.603  21.085  0.00  0.00    +0.000 HD
ENDBRANCH  30  32
ENDBRANCH   1  30
TORSDOF 7
ENDMDL
MODEL 3
REMARK VINA RESULT:      -7.1      7.996     10.942
REMARK  Name = 
REMARK  8 active torsions:
REMARK  status: ('A' for Active; 'I' for Inactive)
REMARK    1  A    between atoms: C_1  and  C_2
REMARK    2  A    between atoms: C_6  and  C_7
REMARK    3  A    between atoms: N_9  and  C_10
REMARK    4  A    between atoms: C_10  and  C_11
REMARK    5  A    between atoms: C_11  and  O_13
REMARK    6  A    between atoms: C_18  and  C_19
REMARK    7  A    between atoms: C_26  and  O_27
REMARK    8  A    between atoms: O_27  and  C_28
REMARK                            x       y       z     vdW  Elec       q    Type
REMARK                         _______ _______ _______ _____ _____    ______ ____
ROOT
ATOM      1  C   UNL     1      -0.505  13.554  20.437  0.00  0.00    +0.000 C 
ATOM      2  C   UNL     1       0.379  12.234  20.393  0.00  0.00    +0.000 C 
ATOM      3  C   UNL     1       0.010  11.630  19.070  0.00  0.00    +0.000 A 
ATOM      4  C   UNL     1       0.203  10.324  18.664  0.00  0.00    +0.000 A 
ATOM      5  C   UNL     1      -0.742   9.795  17.802  0.00  0.00    +0.000 A 
ATOM      6  C   UNL     1      -1.873  10.563  17.453  0.00  0.00    +0.000 A 
ATOM      7  C   UNL     1      -1.878  11.960  17.687  0.00  0.00    +0.000 A 
ATOM      8  C   UNL     1      -0.835  12.512  18.406  0.00  0.00    +0.000 A 
ATOM      9  C   UNL     1      -0.591  13.908  18.945  0.00  0.00    +0.000 C 
ENDROOT
BRANCH   1  12
ATOM     10  C   UNL     1      -2.591  12.697  21.683  0.00  0.00    +0.000 C 
ATOM     11  O   UNL     1      -1.952  11.791  22.211  0.00  0.00    +0.000 OA
ATOM     12  N   UNL     1      -1.935  13.619  20.922  0.00  0.00    +0.000 N 
ATOM     13  H   UNL     1      -2.509  14.377  20.565  0.00  0.00    +0.000 HD
BRANCH  10  19
ATOM     14  C   UNL     1      -7.146  13.355  24.282  0.00  0.00    +0.000 C 
ATOM     15  C   UNL     1      -6.214  13.079  23.129  0.00  0.00    +0.000 A 
ATOM     16  C   UNL     1      -6.884  12.909  21.899  0.00  0.00    +0.000 A 
ATOM     17  C   UNL     1      -6.197  12.716  20.716  0.00  0.00    +0.000 A 
ATOM     18  C   UNL     1      -4.815  12.683  20.737  0.00  0.00    +0.000 A 
ATOM     19  C   UNL     1      -4.081  12.820  21.934  0.00  0.00    +0.000 A 
ATOM     20  C   UNL     1      -4.787  13.018  23.159  0.00  0.00    +0.000 A 
BRANCH  20  21
ATOM     21  O   UNL     1      -4.013  13.205  24.303  0.00  0.00    +0.000 OA
BRANCH  21  22
ATOM     22  C   UNL     1      -3.585  14.536  24.695  0.00  0.00    +0.000 C 
ATOM     23  C   UNL     1      -2.078  14.852  24.562  0.00  0.00    +0.000 C 
ATOM     24  C   UNL     1      -2.419  16.147  23.819  0.00  0.00    +0.000 C 
ATOM     25  C   UNL     1      -3.871  15.670  23.687  0.00  0.00    +0.000 C 
ENDBRANCH  21  22
ENDBRANCH  20  21
ENDBRANCH  10  19
ENDBRANCH   1  12
BRANCH   6  26
ATOM     26  C   UNL     1      -3.124   9.847  16.999  0.00  0.00    +0.000 C 
ATOM     27  F   UNL     1      -3.580   8.924  17.900  0.00  0.00    +0.000 F 
ATOM     28  F   UNL     1      -4.174  10.724  16.844  0.00  0.00    +0.000 F 
ATOM     29  F   UNL     1      -2.994   9.206  15.825  0.00  0.00    +0.000 F 
ENDBRANCH   6  26
BRANCH   1  30
ATOM     30  C   UNL     1       0.281  14.431  21.408  0.00  0.00    +0.000 C 
ATOM     31  O   UNL     1       1.034  14.039  22.280  0.00  0.00    +0.000 OA
BRANCH  30  32
ATOM     32  O   UNL     1      -0.099  15.743  21.314  0.00  0.00    +0.000 OA
ATOM     33  H   UNL     1      -0.988  15.804  20.894  0.00  0.00    +0.000 HD
ENDBRANCH  30  32
ENDBRANCH   1  30
TORSDOF 7
ENDMDL
MODEL 4
REMARK VINA RESULT:      -7.0      8.040     11.225
REMARK  Name = 
REMARK  8 active torsions:
REMARK  status: ('A' for Active; 'I' for Inactive)
REMARK    1  A    between atoms: C_1  and  C_2
REMARK    2  A    between atoms: C_6  and  C_7
REMARK    3  A    between atoms: N_9  and  C_10
REMARK    4  A    between atoms: C_10  and  C_11
REMARK    5  A    between atoms: C_11  and  O_13
REMARK    6  A    between atoms: C_18  and  C_19
REMARK    7  A    between atoms: C_26  and  O_27
REMARK    8  A    between atoms: O_27  and  C_28
REMARK                            x       y       z     vdW  Elec       q    Type
REMARK                         _______ _______ _______ _____ _____    ______ ____
ROOT
ATOM      1  C   UNL     1      -0.650  13.483  20.869  0.00  0.00    +0.000 C 
ATOM      2  C   UNL     1       0.202  12.142  20.841  0.00  0.00    +0.000 C 
ATOM      3  C   UNL     1      -0.048  11.617  19.458  0.00  0.00    +0.000 A 
ATOM      4  C   UNL     1       0.154  10.328  19.004  0.00  0.00    +0.000 A 
ATOM      5  C   UNL     1      -0.713   9.871  18.025  0.00  0.00    +0.000 A 
ATOM      6  C   UNL     1      -1.785  10.689  17.609  0.00  0.00    +0.000 A 
ATOM      7  C   UNL     1      -1.780  12.072  17.915  0.00  0.00    +0.000 A 
ATOM      8  C   UNL     1      -0.801  12.555  18.762  0.00  0.00    +0.000 A 
ATOM      9  C   UNL     1      -0.578  13.914  19.397  0.00  0.00    +0.000 C 
ENDROOT
BRANCH   1  12
ATOM     10  C   UNL     1      -2.827  12.719  22.016  0.00  0.00    +0.000 C 
ATOM     11  O   UNL     1      -2.224  11.899  22.702  0.00  0.00    +0.000 OA
ATOM     12  N   UNL     1      -2.119  13.564  21.214  0.00  0.00    +0.000 N 
ATOM     13  H   UNL     1      -2.671  14.260  20.720  0.00  0.00    +0.000 HD
BRANCH  10  19
ATOM     14  C   UNL     1      -7.592  13.948  23.944  0.00  0.00    +0.000 C 
ATOM     15  C   UNL     1      -6.564  13.352  23.017  0.00  0.00    +0.000 A 
ATOM     16  C   UNL     1      -7.128  12.731  21.882  0.00  0.00    +0.000 A 
ATOM     17  C   UNL     1      -6.345  12.188  20.883  0.00  0.00    +0.000 A 
ATOM     18  C   UNL     1      -4.968  12.248  20.999  0.00  0.00    +0.000 A 
ATOM     19  C   UNL     1      -4.336  12.830  22.117  0.00  0.00    +0.000 A 
ATOM     20  C   UNL     1      -5.142  13.392  23.153  0.00  0.00    +0.000 A 
BRANCH  20  21
ATOM     21  O   UNL     1      -4.468  14.004  24.208  0.00  0.00    +0.000 OA
BRANCH  21  22
ATOM     22  C   UNL     1      -3.951  15.355  24.068  0.00  0.00    +0.000 C 
ATOM     23  C   UNL     1      -4.941  16.512  24.333  0.00  0.00    +0.000 C 
ATOM     24  C   UNL     1      -3.917  17.169  25.263  0.00  0.00    +0.000 C 
ATOM     25  C   UNL     1      -3.087  15.880  25.235  0.00  0.00    +0.000 C 
ENDBRANCH  21  22
ENDBRANCH  20  21
ENDBRANCH  10  19
ENDBRANCH   1  12
BRANCH   6  26
ATOM     26  C   UNL     1      -3.001  10.033  16.997  0.00  0.00    +0.000 C 
ATOM     27  F   UNL     1      -2.736   9.380  15.824  0.00  0.00    +0.000 F 
ATOM     28  F   UNL     1      -3.515   9.060  17.824  0.00  0.00    +0.000 F 
ATOM     29  F   UNL     1      -4.012  10.882  16.744  0.00  0.00    +0.000 F 
ENDBRANCH   6  26
BRANCH   1  30
ATOM     30  C   UNL     1       0.055  14.286  21.958  0.00  0.00    +0.000 C 
ATOM     31  O   UNL     1      -0.437  15.175  22.626  0.00  0.00    +0.000 OA
BRANCH  30  32
ATOM     32  O   UNL     1       1.398  14.019  21.984  0.00  0.00    +0.000 OA
ATOM     33  H   UNL     1       1.792  14.370  22.816  0.00  0.00    +0.000 HD
ENDBRANCH  30  32
ENDBRANCH   1  30
TORSDOF 7
ENDMDL
MODEL 5
REMARK VINA RESULT:      -7.0      8.367     12.425
REMARK  Name = 
REMARK  8 active torsions:
REMARK  status: ('A' for Active; 'I' for Inactive)
REMARK    1  A    between atoms: C_1  and  C_2
REMARK    2  A    between atoms: C_6  and  C_7
REMARK    3  A    between atoms: N_9  and  C_10
REMARK    4  A    between atoms: C_10  and  C_11
REMARK    5  A    between atoms: C_11  and  O_13
REMARK    6  A    between atoms: C_18  and  C_19
REMARK    7  A    between atoms: C_26  and  O_27
REMARK    8  A    between atoms: O_27  and  C_28
REMARK                            x       y       z     vdW  Elec       q    Type
REMARK                         _______ _______ _______ _____ _____    ______ ____
ROOT
ATOM      1  C   UNL     1      -5.992  13.374  19.100  0.00  0.00    +0.000 C 
ATOM      2  C   UNL     1      -7.146  12.634  19.905  0.00  0.00    +0.000 C 
ATOM      3  C   UNL     1      -6.898  13.070  21.318  0.00  0.00    +0.000 A 
ATOM      4  C   UNL     1      -7.370  12.474  22.472  0.00  0.00    +0.000 A 
ATOM      5  C   UNL     1      -6.553  12.544  23.587  0.00  0.00    +0.000 A 
ATOM      6  C   UNL     1      -5.274  13.130  23.476  0.00  0.00    +0.000 A 
ATOM      7  C   UNL     1      -4.963  13.941  22.358  0.00  0.00    +0.000 A 
ATOM      8  C   UNL     1      -5.869  14.004  21.316  0.00  0.00    +0.000 A 
ATOM      9  C   UNL     1      -5.806  14.644  19.943  0.00  0.00    +0.000 C 
ENDROOT
BRANCH   1  12
ATOM     10  C   UNL     1      -4.228  11.550  18.652  0.00  0.00    +0.000 C 
ATOM     11  O   UNL     1      -5.092  10.734  18.345  0.00  0.00    +0.000 OA
ATOM     12  N   UNL     1      -4.591  12.838  18.913  0.00  0.00    +0.000 N 
ATOM     13  H   UNL     1      -3.824  13.478  19.099  0.00  0.00    +0.000 HD
BRANCH  10  19
ATOM     14  C   UNL     1       0.816  11.233  20.197  0.00  0.00    +0.000 C 
ATOM     15  C   UNL     1      -0.408  11.011  19.346  0.00  0.00    +0.000 A 
ATOM     16  C   UNL     1      -0.179  10.149  18.252  0.00  0.00    +0.000 A 
ATOM     17  C   UNL     1      -1.195   9.771  17.397  0.00  0.00    +0.000 A 
ATOM     18  C   UNL     1      -2.473  10.253  17.614  0.00  0.00    +0.000 A 
ATOM     19  C   UNL     1      -2.769  11.138  18.672  0.00  0.00    +0.000 A 
ATOM     20  C   UNL     1      -1.721  11.533  19.557  0.00  0.00    +0.000 A 
BRANCH  20  21
ATOM     21  O   UNL     1      -2.079  12.363  20.618  0.00  0.00    +0.000 OA
BRANCH  21  22
ATOM     22  C   UNL     1      -1.308  13.558  20.913  0.00  0.00    +0.000 C 
ATOM     23  C   UNL     1      -2.025  14.914  20.727  0.00  0.00    +0.000 C 
ATOM     24  C   UNL     1      -1.559  15.347  22.120  0.00  0.00    +0.000 C 
ATOM     25  C   UNL     1      -1.128  13.904  22.407  0.00  0.00    +0.000 C 
ENDBRANCH  21  22
ENDBRANCH  20  21
ENDBRANCH  10  19
ENDBRANCH   1  12
BRANCH   6  26
ATOM     26  C   UNL     1      -4.206  12.732  24.469  0.00  0.00    +0.000 C 
ATOM     27  F   UNL     1      -3.505  13.795  24.970  0.00  0.00    +0.000 F 
ATOM     28  F   UNL     1      -4.753  12.128  25.578  0.00  0.00    +0.000 F 
ATOM     29  F   UNL     1      -3.299  11.869  23.982  0.00  0.00    +0.000 F 
ENDBRANCH   6  26
BRANCH   1  30
ATOM     30  C   UNL     1      -6.579  13.444  17.693  0.00  0.00    +0.000 C 
ATOM     31  O   UNL     1      -5.953  13.390  16.652  0.00  0.00    +0.000 OA
BRANCH  30  32
ATOM     32  O   UNL     1      -7.909  13.766  17.723  0.00  0.00    +0.000 OA
ATOM     33  H   UNL     1      -8.016  14.722  17.939  0.00  0.00    +0.000 HD
ENDBRANCH  30  32
ENDBRANCH   1  30
TORSDOF 7
ENDMDL
MODEL 6
REMARK VINA RESULT:      -7.0      8.073     10.977
REMARK  Name = 
REMARK  8 active torsions:
REMARK  status: ('A' for Active; 'I' for Inactive)
REMARK    1  A    between atoms: C_1  and  C_2
REMARK    2  A    between atoms: C_6  and  C_7
REMARK    3  A    between atoms: N_9  and  C_10
REMARK    4  A    between atoms: C_10  and  C_11
REMARK    5  A    between atoms: C_11  and  O_13
REMARK    6  A    between atoms: C_18  and  C_19
REMARK    7  A    between atoms: C_26  and  O_27
REMARK    8  A    between atoms: O_27  and  C_28
REMARK                            x       y       z     vdW  Elec       q    Type
REMARK                         _______ _______ _______ _____ _____    ______ ____
ROOT
ATOM      1  C   UNL     1      -0.372  13.468  20.809  0.00  0.00    +0.000 C 
ATOM      2  C   UNL     1       0.521  12.184  20.528  0.00  0.00    +0.000 C 
ATOM      3  C   UNL     1       0.000  11.698  19.208  0.00  0.00    +0.000 A 
ATOM      4  C   UNL     1       0.163  10.442  18.657  0.00  0.00    +0.000 A 
ATOM      5  C   UNL     1      -0.873   9.969  17.869  0.00  0.00    +0.000 A 
ATOM      6  C   UNL     1      -2.051  10.734  17.739  0.00  0.00    +0.000 A 
ATOM      7  C   UNL     1      -2.051  12.102  18.106  0.00  0.00    +0.000 A 
ATOM      8  C   UNL     1      -0.936  12.613  18.742  0.00  0.00    +0.000 A 
ATOM      9  C   UNL     1      -0.650  13.958  19.381  0.00  0.00    +0.000 C 
ENDROOT
BRANCH   1  12
ATOM     10  C   UNL     1      -2.200  12.528  22.364  0.00  0.00    +0.000 C 
ATOM     11  O   UNL     1      -1.418  11.720  22.858  0.00  0.00    +0.000 OA
ATOM     12  N   UNL     1      -1.731  13.445  21.470  0.00  0.00    +0.000 N 
ATOM     13  H   UNL     1      -2.413  14.124  21.145  0.00  0.00    +0.000 HD
BRANCH  10  19
ATOM     14  C   UNL     1      -7.472  12.678  22.037  0.00  0.00    +0.000 C 
ATOM     15  C   UNL     1      -6.105  12.655  22.671  0.00  0.00    +0.000 A 
ATOM     16  C   UNL     1      -6.144  12.603  24.081  0.00  0.00    +0.000 A 
ATOM     17  C   UNL     1      -4.994  12.507  24.840  0.00  0.00    +0.000 A 
ATOM     18  C   UNL     1      -3.768  12.467  24.201  0.00  0.00    +0.000 A 
ATOM     19  C   UNL     1      -3.652  12.541  22.797  0.00  0.00    +0.000 A 
ATOM     20  C   UNL     1      -4.839  12.642  22.009  0.00  0.00    +0.000 A 
BRANCH  20  21
ATOM     21  O   UNL     1      -4.672  12.655  20.626  0.00  0.00    +0.000 OA
BRANCH  21  22
ATOM     22  C   UNL     1      -4.785  13.897  19.881  0.00  0.00    +0.000 C 
ATOM     23  C   UNL     1      -6.184  14.258  19.334  0.00  0.00    +0.000 C 
ATOM     24  C   UNL     1      -6.050  15.663  19.928  0.00  0.00    +0.000 C 
ATOM     25  C   UNL     1      -4.822  15.195  20.718  0.00  0.00    +0.000 C 
ENDBRANCH  21  22
ENDBRANCH  20  21
ENDBRANCH  10  19
ENDBRANCH   1  12
BRANCH   6  26
ATOM     26  C   UNL     1      -3.337  10.029  17.374  0.00  0.00    +0.000 C 
ATOM     27  F   UNL     1      -3.357   9.562  16.088  0.00  0.00    +0.000 F 
ATOM     28  F   UNL     1      -3.530   8.907  18.149  0.00  0.00    +0.000 F 
ATOM     29  F   UNL     1      -4.439  10.783  17.527  0.00  0.00    +0.000 F 
ENDBRANCH   6  26
BRANCH   1  30
ATOM     30  C   UNL     1       0.514  14.272  21.757  0.00  0.00    +0.000 C 
ATOM     31  O   UNL     1       0.264  15.371  22.214  0.00  0.00    +0.000 OA
BRANCH  30  32
ATOM     32  O   UNL     1       1.744  13.689  21.904  0.00  0.00    +0.000 OA
ATOM     33  H   UNL     1       2.029  13.290  21.050  0.00  0.00    +0.000 HD
ENDBRANCH  30  32
ENDBRANCH   1  30
TORSDOF 7
ENDMDL
MODEL 7
REMARK VINA RESULT:      -6.9      5.891      9.961
REMARK  Name = 
REMARK  8 active torsions:
REMARK  status: ('A' for Active; 'I' for Inactive)
REMARK    1  A    between atoms: C_1  and  C_2
REMARK    2  A    between atoms: C_6  and  C_7
REMARK    3  A    between atoms: N_9  and  C_10
REMARK    4  A    between atoms: C_10  and  C_11
REMARK    5  A    between atoms: C_11  and  O_13
REMARK    6  A    between atoms: C_18  and  C_19
REMARK    7  A    between atoms: C_26  and  O_27
REMARK    8  A    between atoms: O_27  and  C_28
REMARK                            x       y       z     vdW  Elec       q    Type
REMARK                         _______ _______ _______ _____ _____    ______ ____
ROOT
ATOM      1  C   UNL     1      -2.448  13.039  21.839  0.00  0.00    +0.000 C 
ATOM      2  C   UNL     1      -1.868  14.175  22.788  0.00  0.00    +0.000 C 
ATOM      3  C   UNL     1      -1.270  15.148  21.815  0.00  0.00    +0.000 A 
ATOM      4  C   UNL     1      -0.340  16.134  22.084  0.00  0.00    +0.000 A 
ATOM      5  C   UNL     1       0.559  16.432  21.075  0.00  0.00    +0.000 A 
ATOM      6  C   UNL     1       0.540  15.679  19.882  0.00  0.00    +0.000 A 
ATOM      7  C   UNL     1      -0.584  14.876  19.570  0.00  0.00    +0.000 A 
ATOM      8  C   UNL     1      -1.569  14.722  20.527  0.00  0.00    +0.000 A 
ATOM      9  C   UNL     1      -2.809  13.851  20.586  0.00  0.00    +0.000 C 
ENDROOT
BRANCH   1  12
ATOM     10  C   UNL     1      -0.576  11.269  21.897  0.00  0.00    +0.000 C 
ATOM     11  O   UNL     1      -0.293  11.550  23.058  0.00  0.00    +0.000 OA
ATOM     12  N   UNL     1      -1.652  11.868  21.312  0.00  0.00    +0.000 N 
ATOM     13  H   UNL     1      -1.871  11.547  20.373  0.00  0.00    +0.000 HD
BRANCH  10  19
ATOM     14  C   UNL     1       1.765   8.727  17.898  0.00  0.00    +0.000 C 
ATOM     15  C   UNL     1       1.285   8.996  19.301  0.00  0.00    +0.000 A 
ATOM     16  C   UNL     1       1.708   8.024  20.233  0.00  0.00    +0.000 A 
ATOM     17  C   UNL     1       1.426   8.134  21.580  0.00  0.00    +0.000 A 
ATOM     18  C   UNL     1       0.703   9.223  22.031  0.00  0.00    +0.000 A 
ATOM     19  C   UNL     1       0.226  10.220  21.153  0.00  0.00    +0.000 A 
ATOM     20  C   UNL     1       0.514  10.109  19.759  0.00  0.00    +0.000 A 
BRANCH  20  21
ATOM     21  O   UNL     1       0.068  11.148  18.945  0.00  0.00    +0.000 OA
BRANCH  21  22
ATOM     22  C   UNL     1      -0.914  10.900  17.903  0.00  0.00    +0.000 C 
ATOM     23  C   UNL     1      -2.086   9.958  18.259  0.00  0.00    +0.000 C 
ATOM     24  C   UNL     1      -3.076  10.990  17.712  0.00  0.00    +0.000 C 
ATOM     25  C   UNL     1      -1.945  12.023  17.655  0.00  0.00    +0.000 C 
ENDBRANCH  21  22
ENDBRANCH  20  21
ENDBRANCH  10  19
ENDBRANCH   1  12
BRANCH   6  26
ATOM     26  C   UNL     1       1.800  15.609  19.049  0.00  0.00    +0.000 C 
ATOM     27  F   UNL     1       2.948  15.649  19.793  0.00  0.00    +0.000 F 
ATOM     28  F   UNL     1       1.879  14.419  18.360  0.00  0.00    +0.000 F 
ATOM     29  F   UNL     1       1.903  16.582  18.129  0.00  0.00    +0.000 F 
ENDBRANCH   6  26
BRANCH   1  30
ATOM     30  C   UNL     1      -3.534  12.418  22.712  0.00  0.00    +0.000 C 
ATOM     31  O   UNL     1      -3.372  11.913  23.808  0.00  0.00    +0.000 OA
BRANCH  30  32
ATOM     32  O   UNL     1      -4.721  12.319  22.038  0.00  0.00    +0.000 OA
ATOM     33  H   UNL     1      -5.203  13.177  22.084  0.00  0.00    +0.000 HD
ENDBRANCH  30  32
ENDBRANCH   1  30
TORSDOF 7
ENDMDL
MODEL 8
REMARK VINA RESULT:      -6.9      8.703     12.589
REMARK  Name = 
REMARK  8 active torsions:
REMARK  status: ('A' for Active; 'I' for Inactive)
REMARK    1  A    between atoms: C_1  and  C_2
REMARK    2  A    between atoms: C_6  and  C_7
REMARK    3  A    between atoms: N_9  and  C_10
REMARK    4  A    between atoms: C_10  and  C_11
REMARK    5  A    between atoms: C_11  and  O_13
REMARK    6  A    between atoms: C_18  and  C_19
REMARK    7  A    between atoms: C_26  and  O_27
REMARK    8  A    between atoms: O_27  and  C_28
REMARK                            x       y       z     vdW  Elec       q    Type
REMARK                         _______ _______ _______ _____ _____    ______ ____
ROOT
ATOM      1  C   UNL     1      -6.286  13.737  19.296  0.00  0.00    +0.000 C 
ATOM      2  C   UNL     1      -7.389  12.993  20.166  0.00  0.00    +0.000 C 
ATOM      3  C   UNL     1      -7.000  13.350  21.571  0.00  0.00    +0.000 A 
ATOM      4  C   UNL     1      -7.388  12.711  22.733  0.00  0.00    +0.000 A 
ATOM      5  C   UNL     1      -6.473  12.699  23.771  0.00  0.00    +0.000 A 
ATOM      6  C   UNL     1      -5.189  13.250  23.572  0.00  0.00    +0.000 A 
ATOM      7  C   UNL     1      -4.950  14.106  22.470  0.00  0.00    +0.000 A 
ATOM      8  C   UNL     1      -5.942  14.249  21.519  0.00  0.00    +0.000 A 
ATOM      9  C   UNL     1      -5.980  14.956  20.178  0.00  0.00    +0.000 C 
ENDROOT
BRANCH   1  12
ATOM     10  C   UNL     1      -4.598  11.852  18.802  0.00  0.00    +0.000 C 
ATOM     11  O   UNL     1      -5.493  11.014  18.738  0.00  0.00    +0.000 OA
ATOM     12  N   UNL     1      -4.927  13.167  18.957  0.00  0.00    +0.000 N 
ATOM     13  H   UNL     1      -4.146  13.817  18.939  0.00  0.00    +0.000 HD
BRANCH  10  19
ATOM     14  C   UNL     1       0.661  11.874  19.321  0.00  0.00    +0.000 C 
ATOM     15  C   UNL     1      -0.699  11.448  18.832  0.00  0.00    +0.000 A 
ATOM     16  C   UNL     1      -0.662  10.308  18.001  0.00  0.00    +0.000 A 
ATOM     17  C   UNL     1      -1.815   9.726  17.510  0.00  0.00    +0.000 A 
ATOM     18  C   UNL     1      -3.040  10.278  17.836  0.00  0.00    +0.000 A 
ATOM     19  C   UNL     1      -3.151  11.431  18.641  0.00  0.00    +0.000 A 
ATOM     20  C   UNL     1      -1.962  12.037  19.149  0.00  0.00    +0.000 A 
BRANCH  20  21
ATOM     21  O   UNL     1      -2.130  13.140  19.985  0.00  0.00    +0.000 OA
BRANCH  21  22
ATOM     22  C   UNL     1      -1.036  13.609  20.816  0.00  0.00    +0.000 C 
ATOM     23  C   UNL     1      -1.171  15.028  21.412  0.00  0.00    +0.000 C 
ATOM     24  C   UNL     1      -0.811  14.478  22.795  0.00  0.00    +0.000 C 
ATOM     25  C   UNL     1      -0.985  13.053  22.256  0.00  0.00    +0.000 C 
ENDBRANCH  21  22
ENDBRANCH  20  21
ENDBRANCH  10  19
ENDBRANCH   1  12
BRANCH   6  26
ATOM     26  C   UNL     1      -4.051  12.770  24.443  0.00  0.00    +0.000 C 
ATOM     27  F   UNL     1      -4.466  12.198  25.615  0.00  0.00    +0.000 F 
ATOM     28  F   UNL     1      -3.324  11.782  23.818  0.00  0.00    +0.000 F 
ATOM     29  F   UNL     1      -3.171  13.730  24.775  0.00  0.00    +0.000 F 
ENDBRANCH   6  26
BRANCH   1  30
ATOM     30  C   UNL     1      -6.993  13.896  17.953  0.00  0.00    +0.000 C 
ATOM     31  O   UNL     1      -7.747  13.091  17.440  0.00  0.00    +0.000 OA
BRANCH  30  32
ATOM     32  O   UNL     1      -6.537  14.995  17.277  0.00  0.00    +0.000 OA
ATOM     33  H   UNL     1      -5.595  14.862  17.021  0.00  0.00    +0.000 HD
ENDBRANCH  30  32
ENDBRANCH   1  30
TORSDOF 7
ENDMDL
MODEL 9
REMARK VINA RESULT:      -6.8      7.143     11.472
REMARK  Name = 
REMARK  8 active torsions:
REMARK  status: ('A' for Active; 'I' for Inactive)
REMARK    1  A    between atoms: C_1  and  C_2
REMARK    2  A    between atoms: C_6  and  C_7
REMARK    3  A    between atoms: N_9  and  C_10
REMARK    4  A    between atoms: C_10  and  C_11
REMARK    5  A    between atoms: C_11  and  O_13
REMARK    6  A    between atoms: C_18  and  C_19
REMARK    7  A    between atoms: C_26  and  O_27
REMARK    8  A    between atoms: O_27  and  C_28
REMARK                            x       y       z     vdW  Elec       q    Type
REMARK                         _______ _______ _______ _____ _____    ______ ____
ROOT
ATOM      1  C   UNL     1      -2.050  13.668  22.486  0.00  0.00    +0.000 C 
ATOM      2  C   UNL     1      -2.682  14.962  21.812  0.00  0.00    +0.000 C 
ATOM      3  C   UNL     1      -4.072  14.514  21.471  0.00  0.00    +0.000 A 
ATOM      4  C   UNL     1      -4.942  15.100  20.572  0.00  0.00    +0.000 A 
ATOM      5  C   UNL     1      -5.805  14.252  19.899  0.00  0.00    +0.000 A 
ATOM      6  C   UNL     1      -5.702  12.858  20.094  0.00  0.00    +0.000 A 
ATOM      7  C   UNL     1      -4.983  12.350  21.203  0.00  0.00    +0.000 A 
ATOM      8  C   UNL     1      -4.258  13.234  21.979  0.00  0.00    +0.000 A 
ATOM      9  C   UNL     1      -3.290  13.029  23.128  0.00  0.00    +0.000 C 
ENDROOT
BRANCH   1  12
ATOM     10  C   UNL     1      -0.832  11.409  22.255  0.00  0.00    +0.000 C 
ATOM     11  O   UNL     1      -1.018  11.143  23.439  0.00  0.00    +0.000 OA
ATOM     12  N   UNL     1      -1.391  12.537  21.731  0.00  0.00    +0.000 N 
ATOM     13  H   UNL     1      -1.253  12.669  20.733  0.00  0.00    +0.000 HD
BRANCH  10  19
ATOM     14  C   UNL     1       1.557   9.433  17.975  0.00  0.00    +0.000 C 
ATOM     15  C   UNL     1       1.032   9.495  19.387  0.00  0.00    +0.000 A 
ATOM     16  C   UNL     1       1.373   8.365  20.160  0.00  0.00    +0.000 A 
ATOM     17  C   UNL     1       1.041   8.269  21.497  0.00  0.00    +0.000 A 
ATOM     18  C   UNL     1       0.348   9.306  22.095  0.00  0.00    +0.000 A 
ATOM     19  C   UNL     1      -0.048  10.454  21.377  0.00  0.00    +0.000 A 
ATOM     20  C   UNL     1       0.293  10.557  19.994  0.00  0.00    +0.000 A 
BRANCH  20  21
ATOM     21  O   UNL     1      -0.072  11.735  19.346  0.00  0.00    +0.000 OA
BRANCH  21  22
ATOM     22  C   UNL     1      -1.017  11.708  18.243  0.00  0.00    +0.000 C 
ATOM     23  C   UNL     1      -1.492  10.318  17.764  0.00  0.00    +0.000 C 
ATOM     24  C   UNL     1      -2.945  10.796  17.830  0.00  0.00    +0.000 C 
ATOM     25  C   UNL     1      -2.483  12.045  18.590  0.00  0.00    +0.000 C 
ENDBRANCH  21  22
ENDBRANCH  20  21
ENDBRANCH  10  19
ENDBRANCH   1  12
BRANCH   6  26
ATOM     26  C   UNL     1      -6.214  11.935  19.012  0.00  0.00    +0.000 C 
ATOM     27  F   UNL     1      -5.778  12.269  17.759  0.00  0.00    +0.000 F 
ATOM     28  F   UNL     1      -5.767  10.647  19.199  0.00  0.00    +0.000 F 
ATOM     29  F   UNL     1      -7.555  11.860  18.944  0.00  0.00    +0.000 F 
ENDBRANCH   6  26
BRANCH   1  30
ATOM     30  C   UNL     1      -0.941  14.267  23.347  0.00  0.00    +0.000 C 
ATOM     31  O   UNL     1      -1.039  14.603  24.511  0.00  0.00    +0.000 OA
BRANCH  30  32
ATOM     32  O   UNL     1       0.165  14.566  22.597  0.00  0.00    +0.000 OA
ATOM     33  H   UNL     1      -0.111  14.869  21.701  0.00  0.00    +0.000 HD
ENDBRANCH  30  32
ENDBRANCH   1  30
TORSDOF 7
ENDMDL
