MODEL 1
REMARK VINA RESULT:      -6.8      0.000      0.000
REMARK  Name = 
REMARK  7 active torsions:
REMARK  status: ('A' for Active; 'I' for Inactive)
REMARK    1  A    between atoms: C_1  and  C_2
REMARK    2  A    between atoms: C_6  and  C_7
REMARK    3  A    between atoms: C_10  and  N_11
REMARK    4  A    between atoms: C_13  and  C_14
REMARK    5  A    between atoms: C_15  and  C_16
REMARK    6  A    between atoms: C_16  and  C_17
REMARK    7  A    between atoms: C_17  and  C_19
REMARK                            x       y       z     vdW  Elec       q    Type
REMARK                         _______ _______ _______ _____ _____    ______ ____
ROOT
ATOM      1  C   UNL     1       2.018   3.632  21.232  0.00  0.00    +0.000 C 
ATOM      2  C   UNL     1       2.015   4.940  20.487  0.00  0.00    +0.000 A 
ATOM      3  N   UNL     1       1.448   5.950  21.170  0.00  0.00    +0.000 NA
ATOM      4  C   UNL     1       1.469   7.148  20.564  0.00  0.00    +0.000 A 
ATOM      5  S   UNL     1       0.812   8.485  21.381  0.00  0.00    +0.000 S 
ATOM      6  C   UNL     1       1.183   9.547  20.100  0.00  0.00    +0.000 A 
ATOM      7  C   UNL     1       1.810   8.872  19.062  0.00  0.00    +0.000 A 
ATOM      8  C   UNL     1       1.990   7.454  19.309  0.00  0.00    +0.000 A 
ATOM      9  C   UNL     1       2.585   6.366  18.590  0.00  0.00    +0.000 A 
ATOM     10  C   UNL     1       3.211   6.505  17.222  0.00  0.00    +0.000 C 
ATOM     11  C   UNL     1       2.611   5.084  19.224  0.00  0.00    +0.000 A 
ENDROOT
BRANCH   6  12
ATOM     12  C   UNL     1       0.830  10.959  20.155  0.00  0.00    +0.000 C 
ATOM     13  N   UNL     1       0.063  11.383  21.206  0.00  0.00    +0.000 N 
ATOM     14  O   UNL     1       1.168  11.787  19.307  0.00  0.00    +0.000 OA
ATOM     15  H   UNL     1      -0.270  10.741  21.911  0.00  0.00    +0.000 HD
ATOM     16  H   UNL     1      -0.208  12.354  21.233  0.00  0.00    +0.000 HD
ENDBRANCH   6  12
BRANCH   7  17
ATOM     17  N   UNL     1       2.208   9.534  17.945  0.00  0.00    +0.000 N 
ATOM     18  H   UNL     1       2.824  10.347  18.063  0.00  0.00    +0.000 HD
ATOM     19  H   UNL     1       1.560   9.696  17.183  0.00  0.00    +0.000 HD
ENDBRANCH   7  17
BRANCH  11  20
ATOM     20  C   UNL     1       3.342   3.915  18.583  0.00  0.00    +0.000 C 
BRANCH  20  21
ATOM     21  C   UNL     1       4.785   3.677  19.009  0.00  0.00    +0.000 C 
ATOM     22  O   UNL     1       5.122   2.869  19.864  0.00  0.00    +0.000 OA
BRANCH  21  23
ATOM     23  C   UNL     1       5.819   4.545  18.353  0.00  0.00    +0.000 A 
ATOM     24  C   UNL     1       6.523   5.476  19.128  0.00  0.00    +0.000 A 
ATOM     25  C   UNL     1       7.384   6.391  18.511  0.00  0.00    +0.000 A 
ATOM     26  C   UNL     1       7.560   6.369  17.128  0.00  0.00    +0.000 A 
ATOM     27  C   UNL     1       6.909   5.409  16.360  0.00  0.00    +0.000 A 
ATOM     28  C   UNL     1       6.049   4.494  16.970  0.00  0.00    +0.000 A 
ENDBRANCH  21  23
ENDBRANCH  20  21
ENDBRANCH  11  20
TORSDOF 5
ENDMDL
MODEL 2
REMARK VINA RESULT:      -6.8      1.509      1.992
REMARK  Name = 
REMARK  7 active torsions:
REMARK  status: ('A' for Active; 'I' for Inactive)
REMARK    1  A    between atoms: C_1  and  C_2
REMARK    2  A    between atoms: C_6  and  C_7
REMARK    3  A    between atoms: C_10  and  N_11
REMARK    4  A    between atoms: C_13  and  C_14
REMARK    5  A    between atoms: C_15  and  C_16
REMARK    6  A    between atoms: C_16  and  C_17
REMARK    7  A    between atoms: C_17  and  C_19
REMARK                            x       y       z     vdW  Elec       q    Type
REMARK                         _______ _______ _______ _____ _____    ______ ____
ROOT
ATOM      1  C   UNL     1       1.955   4.654  20.839  0.00  0.00    +0.000 C 
ATOM      2  C   UNL     1       1.773   6.090  20.425  0.00  0.00    +0.000 A 
ATOM      3  N   UNL     1       1.155   6.845  21.349  0.00  0.00    +0.000 NA
ATOM      4  C   UNL     1       1.016   8.145  21.043  0.00  0.00    +0.000 A 
ATOM      5  S   UNL     1       0.284   9.175  22.179  0.00  0.00    +0.000 S 
ATOM      6  C   UNL     1       0.463  10.539  21.171  0.00  0.00    +0.000 A 
ATOM      7  C   UNL     1       1.085  10.196  19.979  0.00  0.00    +0.000 A 
ATOM      8  C   UNL     1       1.421   8.789  19.876  0.00  0.00    +0.000 A 
ATOM      9  C   UNL     1       2.072   7.969  18.897  0.00  0.00    +0.000 A 
ATOM     10  C   UNL     1       2.590   8.489  17.577  0.00  0.00    +0.000 C 
ATOM     11  C   UNL     1       2.267   6.586  19.209  0.00  0.00    +0.000 A 
ENDROOT
BRANCH   6  12
ATOM     12  C   UNL     1      -0.024  11.851  21.572  0.00  0.00    +0.000 C 
ATOM     13  N   UNL     1      -1.337  11.956  21.947  0.00  0.00    +0.000 N 
ATOM     14  O   UNL     1       0.668  12.870  21.581  0.00  0.00    +0.000 OA
ATOM     15  H   UNL     1      -1.958  11.160  21.927  0.00  0.00    +0.000 HD
ATOM     16  H   UNL     1      -1.686  12.868  22.197  0.00  0.00    +0.000 HD
ENDBRANCH   6  12
BRANCH   7  17
ATOM     17  N   UNL     1       1.340  11.138  19.034  0.00  0.00    +0.000 N 
ATOM     18  H   UNL     1       1.406  10.831  18.057  0.00  0.00    +0.000 HD
ATOM     19  H   UNL     1       2.007  11.879  19.212  0.00  0.00    +0.000 HD
ENDBRANCH   7  17
BRANCH  11  20
ATOM     20  C   UNL     1       3.068   5.687  18.280  0.00  0.00    +0.000 C 
BRANCH  20  21
ATOM     21  C   UNL     1       4.557   5.538  18.566  0.00  0.00    +0.000 C 
ATOM     22  O   UNL     1       5.051   5.618  19.683  0.00  0.00    +0.000 OA
BRANCH  21  23
ATOM     23  C   UNL     1       5.441   5.336  17.371  0.00  0.00    +0.000 A 
ATOM     24  C   UNL     1       4.982   5.722  16.105  0.00  0.00    +0.000 A 
ATOM     25  C   UNL     1       5.729   5.410  14.964  0.00  0.00    +0.000 A 
ATOM     26  C   UNL     1       6.942   4.732  15.081  0.00  0.00    +0.000 A 
ATOM     27  C   UNL     1       7.433   4.399  16.339  0.00  0.00    +0.000 A 
ATOM     28  C   UNL     1       6.691   4.707  17.481  0.00  0.00    +0.000 A 
ENDBRANCH  21  23
ENDBRANCH  20  21
ENDBRANCH  11  20
TORSDOF 5
ENDMDL
MODEL 3
REMARK VINA RESULT:      -6.7      1.102      1.455
REMARK  Name = 
REMARK  7 active torsions:
REMARK  status: ('A' for Active; 'I' for Inactive)
REMARK    1  A    between atoms: C_1  and  C_2
REMARK    2  A    between atoms: C_6  and  C_7
REMARK    3  A    between atoms: C_10  and  N_11
REMARK    4  A    between atoms: C_13  and  C_14
REMARK    5  A    between atoms: C_15  and  C_16
REMARK    6  A    between atoms: C_16  and  C_17
REMARK    7  A    between atoms: C_17  and  C_19
REMARK                            x       y       z     vdW  Elec       q    Type
REMARK                         _______ _______ _______ _____ _____    ______ ____
ROOT
ATOM      1  C   UNL     1       2.098   4.491  21.173  0.00  0.00    +0.000 C 
ATOM      2  C   UNL     1       2.006   5.799  20.434  0.00  0.00    +0.000 A 
ATOM      3  N   UNL     1       1.368   6.764  21.119  0.00  0.00    +0.000 NA
ATOM      4  C   UNL     1       1.306   7.963  20.519  0.00  0.00    +0.000 A 
ATOM      5  S   UNL     1       0.554   9.247  21.340  0.00  0.00    +0.000 S 
ATOM      6  C   UNL     1       0.854  10.338  20.066  0.00  0.00    +0.000 A 
ATOM      7  C   UNL     1       1.530   9.714  19.027  0.00  0.00    +0.000 A 
ATOM      8  C   UNL     1       1.809   8.311  19.268  0.00  0.00    +0.000 A 
ATOM      9  C   UNL     1       2.480   7.271  18.545  0.00  0.00    +0.000 A 
ATOM     10  C   UNL     1       3.099   7.460  17.181  0.00  0.00    +0.000 C 
ATOM     11  C   UNL     1       2.594   5.990  19.174  0.00  0.00    +0.000 A 
ENDROOT
BRANCH   6  12
ATOM     12  C   UNL     1       0.403  11.722  20.126  0.00  0.00    +0.000 C 
ATOM     13  N   UNL     1      -0.425  12.077  21.156  0.00  0.00    +0.000 N 
ATOM     14  O   UNL     1       0.710  12.584  19.300  0.00  0.00    +0.000 OA
ATOM     15  H   UNL     1      -0.735  11.404  21.842  0.00  0.00    +0.000 HD
ATOM     16  H   UNL     1      -0.763  13.027  21.186  0.00  0.00    +0.000 HD
ENDBRANCH   6  12
BRANCH   7  17
ATOM     17  N   UNL     1       1.884  10.408  17.914  0.00  0.00    +0.000 N 
ATOM     18  H   UNL     1       2.884  10.479  17.691  0.00  0.00    +0.000 HD
ATOM     19  H   UNL     1       1.411  11.269  17.670  0.00  0.00    +0.000 HD
ENDBRANCH   7  17
BRANCH  11  20
ATOM     20  C   UNL     1       3.407   4.879  18.530  0.00  0.00    +0.000 C 
BRANCH  20  21
ATOM     21  C   UNL     1       4.925   5.008  18.578  0.00  0.00    +0.000 C 
ATOM     22  O   UNL     1       5.554   5.309  19.583  0.00  0.00    +0.000 OA
BRANCH  21  23
ATOM     23  C   UNL     1       5.647   4.796  17.279  0.00  0.00    +0.000 A 
ATOM     24  C   UNL     1       6.856   5.464  17.051  0.00  0.00    +0.000 A 
ATOM     25  C   UNL     1       7.468   5.393  15.794  0.00  0.00    +0.000 A 
ATOM     26  C   UNL     1       6.890   4.643  14.771  0.00  0.00    +0.000 A 
ATOM     27  C   UNL     1       5.720   3.928  15.010  0.00  0.00    +0.000 A 
ATOM     28  C   UNL     1       5.105   3.996  16.261  0.00  0.00    +0.000 A 
ENDBRANCH  21  23
ENDBRANCH  20  21
ENDBRANCH  11  20
TORSDOF 5
ENDMDL
MODEL 4
REMARK VINA RESULT:      -6.6      2.798      7.563
REMARK  Name = 
REMARK  7 active torsions:
REMARK  status: ('A' for Active; 'I' for Inactive)
REMARK    1  A    between atoms: C_1  and  C_2
REMARK    2  A    between atoms: C_6  and  C_7
REMARK    3  A    between atoms: C_10  and  N_11
REMARK    4  A    between atoms: C_13  and  C_14
REMARK    5  A    between atoms: C_15  and  C_16
REMARK    6  A    between atoms: C_16  and  C_17
REMARK    7  A    between atoms: C_17  and  C_19
REMARK                            x       y       z     vdW  Elec       q    Type
REMARK                         _______ _______ _______ _____ _____    ______ ____
ROOT
ATOM      1  C   UNL     1       0.303   8.667  21.804  0.00  0.00    +0.000 C 
ATOM      2  C   UNL     1       1.151   7.892  20.830  0.00  0.00    +0.000 A 
ATOM      3  N   UNL     1       1.351   6.612  21.186  0.00  0.00    +0.000 NA
ATOM      4  C   UNL     1       2.059   5.869  20.321  0.00  0.00    +0.000 A 
ATOM      5  S   UNL     1       2.318   4.228  20.678  0.00  0.00    +0.000 S 
ATOM      6  C   UNL     1       3.201   3.976  19.242  0.00  0.00    +0.000 A 
ATOM      7  C   UNL     1       3.286   5.146  18.500  0.00  0.00    +0.000 A 
ATOM      8  C   UNL     1       2.622   6.279  19.115  0.00  0.00    +0.000 A 
ATOM      9  C   UNL     1       2.406   7.649  18.751  0.00  0.00    +0.000 A 
ATOM     10  C   UNL     1       2.928   8.273  17.478  0.00  0.00    +0.000 C 
ATOM     11  C   UNL     1       1.624   8.457  19.636  0.00  0.00    +0.000 A 
ENDROOT
BRANCH   6  12
ATOM     12  C   UNL     1       3.781   2.679  18.922  0.00  0.00    +0.000 C 
ATOM     13  N   UNL     1       4.849   2.258  19.668  0.00  0.00    +0.000 N 
ATOM     14  O   UNL     1       3.379   1.948  18.015  0.00  0.00    +0.000 OA
ATOM     15  H   UNL     1       5.241   2.831  20.401  0.00  0.00    +0.000 HD
ATOM     16  H   UNL     1       5.272   1.374  19.432  0.00  0.00    +0.000 HD
ENDBRANCH   6  12
BRANCH   7  17
ATOM     17  N   UNL     1       3.936   5.165  17.308  0.00  0.00    +0.000 N 
ATOM     18  H   UNL     1       4.204   6.079  16.923  0.00  0.00    +0.000 HD
ATOM     19  H   UNL     1       3.662   4.540  16.560  0.00  0.00    +0.000 HD
ENDBRANCH   7  17
BRANCH  11  20
ATOM     20  C   UNL     1       1.240   9.879  19.253  0.00  0.00    +0.000 C 
BRANCH  20  21
ATOM     21  C   UNL     1      -0.081  10.070  18.519  0.00  0.00    +0.000 C 
ATOM     22  O   UNL     1      -0.372   9.503  17.474  0.00  0.00    +0.000 OA
BRANCH  21  23
ATOM     23  C   UNL     1      -1.032  11.064  19.119  0.00  0.00    +0.000 A 
ATOM     24  C   UNL     1      -0.659  11.755  20.278  0.00  0.00    +0.000 A 
ATOM     25  C   UNL     1      -1.584  12.576  20.933  0.00  0.00    +0.000 A 
ATOM     26  C   UNL     1      -2.874  12.725  20.424  0.00  0.00    +0.000 A 
ATOM     27  C   UNL     1      -3.233  12.089  19.241  0.00  0.00    +0.000 A 
ATOM     28  C   UNL     1      -2.313  11.268  18.584  0.00  0.00    +0.000 A 
ENDBRANCH  21  23
ENDBRANCH  20  21
ENDBRANCH  11  20
TORSDOF 5
ENDMDL
MODEL 5
REMARK VINA RESULT:      -6.6      3.979      6.648
REMARK  Name = 
REMARK  7 active torsions:
REMARK  status: ('A' for Active; 'I' for Inactive)
REMARK    1  A    between atoms: C_1  and  C_2
REMARK    2  A    between atoms: C_6  and  C_7
REMARK    3  A    between atoms: C_10  and  N_11
REMARK    4  A    between atoms: C_13  and  C_14
REMARK    5  A    between atoms: C_15  and  C_16
REMARK    6  A    between atoms: C_16  and  C_17
REMARK    7  A    between atoms: C_17  and  C_19
REMARK                            x       y       z     vdW  Elec       q    Type
REMARK                         _______ _______ _______ _____ _____    ______ ____
ROOT
ATOM      1  C   UNL     1       2.544   2.215  18.187  0.00  0.00    +0.000 C 
ATOM      2  C   UNL     1       3.702   3.085  17.774  0.00  0.00    +0.000 A 
ATOM      3  N   UNL     1       4.082   2.909  16.497  0.00  0.00    +0.000 NA
ATOM      4  C   UNL     1       5.079   3.701  16.070  0.00  0.00    +0.000 A 
ATOM      5  S   UNL     1       5.587   3.570  14.454  0.00  0.00    +0.000 S 
ATOM      6  C   UNL     1       6.764   4.788  14.646  0.00  0.00    +0.000 A 
ATOM      7  C   UNL     1       6.755   5.287  15.941  0.00  0.00    +0.000 A 
ATOM      8  C   UNL     1       5.770   4.662  16.804  0.00  0.00    +0.000 A 
ATOM      9  C   UNL     1       5.359   4.833  18.166  0.00  0.00    +0.000 A 
ATOM     10  C   UNL     1       5.981   5.832  19.112  0.00  0.00    +0.000 C 
ATOM     11  C   UNL     1       4.274   4.029  18.640  0.00  0.00    +0.000 A 
ENDROOT
BRANCH   6  12
ATOM     12  C   UNL     1       7.643   5.177  13.552  0.00  0.00    +0.000 C 
ATOM     13  N   UNL     1       7.357   4.695  12.303  0.00  0.00    +0.000 N 
ATOM     14  O   UNL     1       8.633   5.899  13.686  0.00  0.00    +0.000 OA
ATOM     15  H   UNL     1       6.578   4.074  12.142  0.00  0.00    +0.000 HD
ATOM     16  H   UNL     1       7.979   4.939  11.548  0.00  0.00    +0.000 HD
ENDBRANCH   6  12
BRANCH   7  17
ATOM     17  N   UNL     1       7.606   6.280  16.308  0.00  0.00    +0.000 N 
ATOM     18  H   UNL     1       8.581   6.027  16.506  0.00  0.00    +0.000 HD
ATOM     19  H   UNL     1       7.302   7.014  16.937  0.00  0.00    +0.000 HD
ENDBRANCH   7  17
BRANCH  11  20
ATOM     20  C   UNL     1       3.694   4.249  20.029  0.00  0.00    +0.000 C 
BRANCH  20  21
ATOM     21  C   UNL     1       2.315   4.889  20.115  0.00  0.00    +0.000 C 
ATOM     22  O   UNL     1       1.311   4.304  20.501  0.00  0.00    +0.000 OA
BRANCH  21  23
ATOM     23  C   UNL     1       2.214   6.308  19.638  0.00  0.00    +0.000 A 
ATOM     24  C   UNL     1       1.810   7.306  20.534  0.00  0.00    +0.000 A 
ATOM     25  C   UNL     1       1.572   8.606  20.073  0.00  0.00    +0.000 A 
ATOM     26  C   UNL     1       1.754   8.919  18.727  0.00  0.00    +0.000 A 
ATOM     27  C   UNL     1       2.213   7.948  17.843  0.00  0.00    +0.000 A 
ATOM     28  C   UNL     1       2.451   6.649  18.297  0.00  0.00    +0.000 A 
ENDBRANCH  21  23
ENDBRANCH  20  21
ENDBRANCH  11  20
TORSDOF 5
ENDMDL
MODEL 6
REMARK VINA RESULT:      -6.6      1.460      1.754
REMARK  Name = 
REMARK  7 active torsions:
REMARK  status: ('A' for Active; 'I' for Inactive)
REMARK    1  A    between atoms: C_1  and  C_2
REMARK    2  A    between atoms: C_6  and  C_7
REMARK    3  A    between atoms: C_10  and  N_11
REMARK    4  A    between atoms: C_13  and  C_14
REMARK    5  A    between atoms: C_15  and  C_16
REMARK    6  A    between atoms: C_16  and  C_17
REMARK    7  A    between atoms: C_17  and  C_19
REMARK                            x       y       z     vdW  Elec       q    Type
REMARK                         _______ _______ _______ _____ _____    ______ ____
ROOT
ATOM      1  C   UNL     1       2.192   4.605  21.213  0.00  0.00    +0.000 C 
ATOM      2  C   UNL     1       2.107   5.890  20.432  0.00  0.00    +0.000 A 
ATOM      3  N   UNL     1       1.239   6.778  20.947  0.00  0.00    +0.000 NA
ATOM      4  C   UNL     1       1.167   7.959  20.313  0.00  0.00    +0.000 A 
ATOM      5  S   UNL     1       0.126   9.152  20.929  0.00  0.00    +0.000 S 
ATOM      6  C   UNL     1       0.554  10.264  19.709  0.00  0.00    +0.000 A 
ATOM      7  C   UNL     1       1.492   9.715  18.845  0.00  0.00    +0.000 A 
ATOM      8  C   UNL     1       1.871   8.355  19.178  0.00  0.00    +0.000 A 
ATOM      9  C   UNL     1       2.787   7.395  18.636  0.00  0.00    +0.000 A 
ATOM     10  C   UNL     1       3.644   7.646  17.418  0.00  0.00    +0.000 C 
ATOM     11  C   UNL     1       2.913   6.140  19.312  0.00  0.00    +0.000 A 
ENDROOT
BRANCH   6  12
ATOM     12  C   UNL     1      -0.052  11.586  19.637  0.00  0.00    +0.000 C 
ATOM     13  N   UNL     1      -0.499  12.145  20.804  0.00  0.00    +0.000 N 
ATOM     14  O   UNL     1      -0.197  12.222  18.592  0.00  0.00    +0.000 OA
ATOM     15  H   UNL     1      -0.436  11.655  21.684  0.00  0.00    +0.000 HD
ATOM     16  H   UNL     1      -0.945  13.048  20.754  0.00  0.00    +0.000 HD
ENDBRANCH   6  12
BRANCH   7  17
ATOM     17  N   UNL     1       1.984  10.438  17.807  0.00  0.00    +0.000 N 
ATOM     18  H   UNL     1       1.599  10.259  16.872  0.00  0.00    +0.000 HD
ATOM     19  H   UNL     1       2.975  10.640  17.741  0.00  0.00    +0.000 HD
ENDBRANCH   7  17
BRANCH  11  20
ATOM     20  C   UNL     1       3.959   5.126  18.876  0.00  0.00    +0.000 C 
BRANCH  20  21
ATOM     21  C   UNL     1       3.725   4.405  17.555  0.00  0.00    +0.000 C 
ATOM     22  O   UNL     1       2.686   3.826  17.266  0.00  0.00    +0.000 OA
BRANCH  21  23
ATOM     23  C   UNL     1       4.882   4.382  16.600  0.00  0.00    +0.000 A 
ATOM     24  C   UNL     1       6.181   4.559  17.094  0.00  0.00    +0.000 A 
ATOM     25  C   UNL     1       7.256   4.686  16.208  0.00  0.00    +0.000 A 
ATOM     26  C   UNL     1       7.044   4.617  14.831  0.00  0.00    +0.000 A 
ATOM     27  C   UNL     1       5.766   4.382  14.336  0.00  0.00    +0.000 A 
ATOM     28  C   UNL     1       4.690   4.256  15.216  0.00  0.00    +0.000 A 
ENDBRANCH  21  23
ENDBRANCH  20  21
ENDBRANCH  11  20
TORSDOF 5
ENDMDL
MODEL 7
REMARK VINA RESULT:      -6.5      3.004      7.532
REMARK  Name = 
REMARK  7 active torsions:
REMARK  status: ('A' for Active; 'I' for Inactive)
REMARK    1  A    between atoms: C_1  and  C_2
REMARK    2  A    between atoms: C_6  and  C_7
REMARK    3  A    between atoms: C_10  and  N_11
REMARK    4  A    between atoms: C_13  and  C_14
REMARK    5  A    between atoms: C_15  and  C_16
REMARK    6  A    between atoms: C_16  and  C_17
REMARK    7  A    between atoms: C_17  and  C_19
REMARK                            x       y       z     vdW  Elec       q    Type
REMARK                         _______ _______ _______ _____ _____    ______ ____
ROOT
ATOM      1  C   UNL     1       1.327   9.669  18.225  0.00  0.00    +0.000 C 
ATOM      2  C   UNL     1       2.083   8.383  18.431  0.00  0.00    +0.000 A 
ATOM      3  N   UNL     1       3.045   8.170  17.517  0.00  0.00    +0.000 NA
ATOM      4  C   UNL     1       3.780   7.059  17.691  0.00  0.00    +0.000 A 
ATOM      5  S   UNL     1       5.045   6.742  16.602  0.00  0.00    +0.000 S 
ATOM      6  C   UNL     1       5.478   5.303  17.407  0.00  0.00    +0.000 A 
ATOM      7  C   UNL     1       4.656   5.080  18.502  0.00  0.00    +0.000 A 
ATOM      8  C   UNL     1       3.643   6.102  18.692  0.00  0.00    +0.000 A 
ATOM      9  C   UNL     1       2.608   6.338  19.655  0.00  0.00    +0.000 A 
ATOM     10  C   UNL     1       2.316   5.419  20.818  0.00  0.00    +0.000 C 
ATOM     11  C   UNL     1       1.832   7.533  19.518  0.00  0.00    +0.000 A 
ENDROOT
BRANCH   6  12
ATOM     12  C   UNL     1       6.564   4.459  16.928  0.00  0.00    +0.000 C 
ATOM     13  N   UNL     1       6.299   3.609  15.888  0.00  0.00    +0.000 N 
ATOM     14  O   UNL     1       7.698   4.456  17.409  0.00  0.00    +0.000 OA
ATOM     15  H   UNL     1       5.379   3.546  15.478  0.00  0.00    +0.000 HD
ATOM     16  H   UNL     1       7.040   3.003  15.572  0.00  0.00    +0.000 HD
ENDBRANCH   6  12
BRANCH   7  17
ATOM     17  N   UNL     1       4.837   3.994  19.296  0.00  0.00    +0.000 N 
ATOM     18  H   UNL     1       4.405   4.004  20.228  0.00  0.00    +0.000 HD
ATOM     19  H   UNL     1       5.734   3.525  19.334  0.00  0.00    +0.000 HD
ENDBRANCH   7  17
BRANCH  11  20
ATOM     20  C   UNL     1       0.809   7.919  20.575  0.00  0.00    +0.000 C 
BRANCH  20  21
ATOM     21  C   UNL     1       1.252   8.907  21.647  0.00  0.00    +0.000 C 
ATOM     22  O   UNL     1       2.275   8.786  22.308  0.00  0.00    +0.000 OA
BRANCH  21  23
ATOM     23  C   UNL     1       0.322  10.054  21.912  0.00  0.00    +0.000 A 
ATOM     24  C   UNL     1       0.504  11.258  21.219  0.00  0.00    +0.000 A 
ATOM     25  C   UNL     1      -0.259  12.382  21.555  0.00  0.00    +0.000 A 
ATOM     26  C   UNL     1      -1.215  12.305  22.567  0.00  0.00    +0.000 A 
ATOM     27  C   UNL     1      -1.442  11.097  23.219  0.00  0.00    +0.000 A 
ATOM     28  C   UNL     1      -0.683   9.973  22.888  0.00  0.00    +0.000 A 
ENDBRANCH  21  23
ENDBRANCH  20  21
ENDBRANCH  11  20
TORSDOF 5
ENDMDL
MODEL 8
REMARK VINA RESULT:      -6.5      0.885      1.253
REMARK  Name = 
REMARK  7 active torsions:
REMARK  status: ('A' for Active; 'I' for Inactive)
REMARK    1  A    between atoms: C_1  and  C_2
REMARK    2  A    between atoms: C_6  and  C_7
REMARK    3  A    between atoms: C_10  and  N_11
REMARK    4  A    between atoms: C_13  and  C_14
REMARK    5  A    between atoms: C_15  and  C_16
REMARK    6  A    between atoms: C_16  and  C_17
REMARK    7  A    between atoms: C_17  and  C_19
REMARK                            x       y       z     vdW  Elec       q    Type
REMARK                         _______ _______ _______ _____ _____    ______ ____
ROOT
ATOM      1  C   UNL     1       2.261   4.244  20.958  0.00  0.00    +0.000 C 
ATOM      2  C   UNL     1       2.114   5.592  20.302  0.00  0.00    +0.000 A 
ATOM      3  N   UNL     1       1.525   6.512  21.085  0.00  0.00    +0.000 NA
ATOM      4  C   UNL     1       1.419   7.743  20.559  0.00  0.00    +0.000 A 
ATOM      5  S   UNL     1       0.724   8.974  21.503  0.00  0.00    +0.000 S 
ATOM      6  C   UNL     1       0.931  10.137  20.273  0.00  0.00    +0.000 A 
ATOM      7  C   UNL     1       1.533   9.576  19.156  0.00  0.00    +0.000 A 
ATOM      8  C   UNL     1       1.830   8.164  19.297  0.00  0.00    +0.000 A 
ATOM      9  C   UNL     1       2.451   7.169  18.471  0.00  0.00    +0.000 A 
ATOM     10  C   UNL     1       2.971   7.439  17.079  0.00  0.00    +0.000 C 
ATOM     11  C   UNL     1       2.611   5.856  19.017  0.00  0.00    +0.000 A 
ENDROOT
BRANCH   6  12
ATOM     12  C   UNL     1       0.483  11.512  20.443  0.00  0.00    +0.000 C 
ATOM     13  N   UNL     1      -0.705  11.719  21.092  0.00  0.00    +0.000 N 
ATOM     14  O   UNL     1       1.099  12.495  20.028  0.00  0.00    +0.000 OA
ATOM     15  H   UNL     1      -1.268  10.949  21.424  0.00  0.00    +0.000 HD
ATOM     16  H   UNL     1      -1.033  12.668  21.186  0.00  0.00    +0.000 HD
ENDBRANCH   6  12
BRANCH   7  17
ATOM     17  N   UNL     1       1.805  10.333  18.062  0.00  0.00    +0.000 N 
ATOM     18  H   UNL     1       1.049  10.486  17.384  0.00  0.00    +0.000 HD
ATOM     19  H   UNL     1       2.691  10.244  17.580  0.00  0.00    +0.000 HD
ENDBRANCH   7  17
BRANCH  11  20
ATOM     20  C   UNL     1       3.379   4.788  18.255  0.00  0.00    +0.000 C 
BRANCH  20  21
ATOM     21  C   UNL     1       4.764   4.421  18.773  0.00  0.00    +0.000 C 
ATOM     22  O   UNL     1       5.013   3.399  19.399  0.00  0.00    +0.000 OA
BRANCH  21  23
ATOM     23  C   UNL     1       5.849   5.428  18.525  0.00  0.00    +0.000 A 
ATOM     24  C   UNL     1       5.838   6.169  17.337  0.00  0.00    +0.000 A 
ATOM     25  C   UNL     1       6.916   7.005  17.023  0.00  0.00    +0.000 A 
ATOM     26  C   UNL     1       7.994   7.120  17.898  0.00  0.00    +0.000 A 
ATOM     27  C   UNL     1       7.984   6.434  19.108  0.00  0.00    +0.000 A 
ATOM     28  C   UNL     1       6.912   5.597  19.426  0.00  0.00    +0.000 A 
ENDBRANCH  21  23
ENDBRANCH  20  21
ENDBRANCH  11  20
TORSDOF 5
ENDMDL
MODEL 9
REMARK VINA RESULT:      -6.5      2.804      7.535
REMARK  Name = 
REMARK  7 active torsions:
REMARK  status: ('A' for Active; 'I' for Inactive)
REMARK    1  A    between atoms: C_1  and  C_2
REMARK    2  A    between atoms: C_6  and  C_7
REMARK    3  A    between atoms: C_10  and  N_11
REMARK    4  A    between atoms: C_13  and  C_14
REMARK    5  A    between atoms: C_15  and  C_16
REMARK    6  A    between atoms: C_16  and  C_17
REMARK    7  A    between atoms: C_17  and  C_19
REMARK                            x       y       z     vdW  Elec       q    Type
REMARK                         _______ _______ _______ _____ _____    ______ ____
ROOT
ATOM      1  C   UNL     1       0.407   8.483  21.666  0.00  0.00    +0.000 C 
ATOM      2  C   UNL     1       1.265   7.682  20.724  0.00  0.00    +0.000 A 
ATOM      3  N   UNL     1       1.423   6.399  21.096  0.00  0.00    +0.000 NA
ATOM      4  C   UNL     1       2.140   5.633  20.259  0.00  0.00    +0.000 A 
ATOM      5  S   UNL     1       2.348   3.989  20.636  0.00  0.00    +0.000 S 
ATOM      6  C   UNL     1       3.270   3.705  19.230  0.00  0.00    +0.000 A 
ATOM      7  C   UNL     1       3.406   4.867  18.483  0.00  0.00    +0.000 A 
ATOM      8  C   UNL     1       2.750   6.021  19.068  0.00  0.00    +0.000 A 
ATOM      9  C   UNL     1       2.579   7.392  18.688  0.00  0.00    +0.000 A 
ATOM     10  C   UNL     1       3.155   7.993  17.428  0.00  0.00    +0.000 C 
ATOM     11  C   UNL     1       1.789   8.226  19.542  0.00  0.00    +0.000 A 
ENDROOT
BRANCH   6  12
ATOM     12  C   UNL     1       3.828   2.392  18.938  0.00  0.00    +0.000 C 
ATOM     13  N   UNL     1       4.826   1.929  19.753  0.00  0.00    +0.000 N 
ATOM     14  O   UNL     1       3.468   1.683  17.997  0.00  0.00    +0.000 OA
ATOM     15  H   UNL     1       5.184   2.482  20.519  0.00  0.00    +0.000 HD
ATOM     16  H   UNL     1       5.235   1.033  19.538  0.00  0.00    +0.000 HD
ENDBRANCH   6  12
BRANCH   7  17
ATOM     17  N   UNL     1       4.093   4.861  17.312  0.00  0.00    +0.000 N 
ATOM     18  H   UNL     1       4.671   5.681  17.091  0.00  0.00    +0.000 HD
ATOM     19  H   UNL     1       3.671   4.496  16.467  0.00  0.00    +0.000 HD
ENDBRANCH   7  17
BRANCH  11  20
ATOM     20  C   UNL     1       1.452   9.652  19.137  0.00  0.00    +0.000 C 
BRANCH  20  21
ATOM     21  C   UNL     1       0.141   9.874  18.393  0.00  0.00    +0.000 C 
ATOM     22  O   UNL     1      -0.126   9.367  17.311  0.00  0.00    +0.000 OA
BRANCH  21  23
ATOM     23  C   UNL     1      -0.830  10.822  19.034  0.00  0.00    +0.000 A 
ATOM     24  C   UNL     1      -2.134  10.911  18.531  0.00  0.00    +0.000 A 
ATOM     25  C   UNL     1      -3.008  11.889  19.019  0.00  0.00    +0.000 A 
ATOM     26  C   UNL     1      -2.593  12.765  20.021  0.00  0.00    +0.000 A 
ATOM     27  C   UNL     1      -1.319  12.644  20.567  0.00  0.00    +0.000 A 
ATOM     28  C   UNL     1      -0.443  11.671  20.082  0.00  0.00    +0.000 A 
ENDBRANCH  21  23
ENDBRANCH  20  21
ENDBRANCH  11  20
TORSDOF 5
ENDMDL
