MODEL 1
REMARK VINA RESULT:      -8.0      0.000      0.000
REMARK  Name = 
REMARK  14 active torsions:
REMARK  status: ('A' for Active; 'I' for Inactive)
REMARK    1  A    between atoms: C_1  and  C_2
REMARK    2  A    between atoms: C_2  and  C_4
REMARK    3  A    between atoms: C_4  and  C_6
REMARK    4  A    between atoms: C_6  and  C_7
REMARK    5  A    between atoms: C_6  and  N_14
REMARK    6  A    between atoms: C_7  and  C_8
REMARK    7  A    between atoms: C_15  and  C_17
REMARK    8  A    between atoms: C_17  and  N_18
REMARK    9  A    between atoms: C_17  and  C_29
REMARK   10  A    between atoms: C_19  and  O_21
REMARK   11  A    between atoms: O_21  and  C_22
REMARK   12  A    between atoms: C_22  and  C_23
REMARK   13  A    between atoms: C_29  and  C_30
REMARK   14  A    between atoms: C_29  and  C_31
REMARK                            x       y       z     vdW  Elec       q    Type
REMARK                         _______ _______ _______ _____ _____    ______ ____
ROOT
ATOM      1  N   UNL     1       4.903   4.290  18.060  0.00  0.00    +0.000 N 
ATOM      2  C   UNL     1       3.783   3.498  18.199  0.00  0.00    +0.000 C 
ATOM      3  O   UNL     1       3.454   2.678  17.347  0.00  0.00    +0.000 OA
ATOM      4  H   UNL     1       5.079   5.048  18.710  0.00  0.00    +0.000 HD
ENDROOT
BRANCH   1   5
ATOM      5  C   UNL     1       5.803   4.184  16.900  0.00  0.00    +0.000 C 
BRANCH   5   6
ATOM      6  C   UNL     1       7.181   4.674  17.331  0.00  0.00    +0.000 C 
ATOM      7  O   UNL     1       8.238   4.124  17.028  0.00  0.00    +0.000 OA
BRANCH   6   9
ATOM      8  C   UNL     1       7.929   5.852  19.485  0.00  0.00    +0.000 C 
ATOM      9  C   UNL     1       7.229   5.946  18.165  0.00  0.00    +0.000 C 
ATOM     10  O   UNL     1       6.718   6.976  17.746  0.00  0.00    +0.000 OA
ENDBRANCH   6   9
ENDBRANCH   5   6
BRANCH   5  11
ATOM     11  C   UNL     1       5.253   4.922  15.662  0.00  0.00    +0.000 C 
BRANCH  11  12
ATOM     12  C   UNL     1       5.949   4.581  14.360  0.00  0.00    +0.000 A 
ATOM     13  C   UNL     1       7.153   5.186  13.981  0.00  0.00    +0.000 A 
ATOM     14  C   UNL     1       7.737   4.883  12.746  0.00  0.00    +0.000 A 
ATOM     15  C   UNL     1       7.134   3.962  11.889  0.00  0.00    +0.000 A 
ATOM     16  C   UNL     1       5.960   3.329  12.272  0.00  0.00    +0.000 A 
ATOM     17  C   UNL     1       5.382   3.632  13.502  0.00  0.00    +0.000 A 
ENDBRANCH  11  12
ENDBRANCH   5  11
ENDBRANCH   1   5
BRANCH   2  18
ATOM     18  C   UNL     1       2.919   3.781  19.453  0.00  0.00    +0.000 C 
BRANCH  18  19
ATOM     19  N   UNL     1       2.089   4.957  19.177  0.00  0.00    +0.000 N 
ATOM     20  C   UNL     1       2.622   6.216  19.166  0.00  0.00    +0.000 C 
ATOM     21  O   UNL     1       3.768   6.483  19.507  0.00  0.00    +0.000 OA
ATOM     22  H   UNL     1       1.171   4.864  18.767  0.00  0.00    +0.000 HD
BRANCH  20  23
ATOM     23  O   UNL     1       1.697   7.114  18.751  0.00  0.00    +0.000 OA
BRANCH  23  24
ATOM     24  C   UNL     1       2.040   8.494  18.961  0.00  0.00    +0.000 C 
BRANCH  24  25
ATOM     25  C   UNL     1       1.165   9.087  20.037  0.00  0.00    +0.000 A 
ATOM     26  C   UNL     1       0.209  10.070  19.746  0.00  0.00    +0.000 A 
ATOM     27  C   UNL     1      -0.594  10.600  20.760  0.00  0.00    +0.000 A 
ATOM     28  C   UNL     1      -0.445  10.156  22.073  0.00  0.00    +0.000 A 
ATOM     29  C   UNL     1       0.502   9.179  22.374  0.00  0.00    +0.000 A 
ATOM     30  C   UNL     1       1.305   8.651  21.363  0.00  0.00    +0.000 A 
ENDBRANCH  24  25
ENDBRANCH  23  24
ENDBRANCH  20  23
ENDBRANCH  18  19
BRANCH  18  31
ATOM     31  C   UNL     1       2.075   2.547  19.847  0.00  0.00    +0.000 C 
ATOM     32  C   UNL     1       1.721   2.577  21.340  0.00  0.00    +0.000 C 
ATOM     33  C   UNL     1       0.771   2.456  19.050  0.00  0.00    +0.000 C 
ENDBRANCH  18  31
ENDBRANCH   2  18
TORSDOF 11
ENDMDL
MODEL 2
REMARK VINA RESULT:      -8.0      0.895      1.374
REMARK  Name = 
REMARK  14 active torsions:
REMARK  status: ('A' for Active; 'I' for Inactive)
REMARK    1  A    between atoms: C_1  and  C_2
REMARK    2  A    between atoms: C_2  and  C_4
REMARK    3  A    between atoms: C_4  and  C_6
REMARK    4  A    between atoms: C_6  and  C_7
REMARK    5  A    between atoms: C_6  and  N_14
REMARK    6  A    between atoms: C_7  and  C_8
REMARK    7  A    between atoms: C_15  and  C_17
REMARK    8  A    between atoms: C_17  and  N_18
REMARK    9  A    between atoms: C_17  and  C_29
REMARK   10  A    between atoms: C_19  and  O_21
REMARK   11  A    between atoms: O_21  and  C_22
REMARK   12  A    between atoms: C_22  and  C_23
REMARK   13  A    between atoms: C_29  and  C_30
REMARK   14  A    between atoms: C_29  and  C_31
REMARK                            x       y       z     vdW  Elec       q    Type
REMARK                         _______ _______ _______ _____ _____    ______ ____
ROOT
ATOM      1  N   UNL     1       5.048   4.222  18.268  0.00  0.00    +0.000 N 
ATOM      2  C   UNL     1       3.760   3.739  18.182  0.00  0.00    +0.000 C 
ATOM      3  O   UNL     1       3.302   3.287  17.136  0.00  0.00    +0.000 OA
ATOM      4  H   UNL     1       5.357   4.709  19.102  0.00  0.00    +0.000 HD
ENDROOT
BRANCH   1   5
ATOM      5  C   UNL     1       5.977   4.197  17.127  0.00  0.00    +0.000 C 
BRANCH   5   6
ATOM      6  C   UNL     1       7.361   4.579  17.641  0.00  0.00    +0.000 C 
ATOM      7  O   UNL     1       8.410   4.081  17.240  0.00  0.00    +0.000 OA
BRANCH   6   9
ATOM      8  C   UNL     1       7.806   7.039  18.221  0.00  0.00    +0.000 C 
ATOM      9  C   UNL     1       7.424   5.672  18.698  0.00  0.00    +0.000 C 
ATOM     10  O   UNL     1       7.164   5.416  19.866  0.00  0.00    +0.000 OA
ENDBRANCH   6   9
ENDBRANCH   5   6
BRANCH   5  11
ATOM     11  C   UNL     1       5.494   5.084  15.959  0.00  0.00    +0.000 C 
BRANCH  11  12
ATOM     12  C   UNL     1       6.068   4.716  14.606  0.00  0.00    +0.000 A 
ATOM     13  C   UNL     1       7.255   5.281  14.124  0.00  0.00    +0.000 A 
ATOM     14  C   UNL     1       7.725   4.955  12.848  0.00  0.00    +0.000 A 
ATOM     15  C   UNL     1       7.023   4.052  12.048  0.00  0.00    +0.000 A 
ATOM     16  C   UNL     1       5.865   3.459  12.532  0.00  0.00    +0.000 A 
ATOM     17  C   UNL     1       5.402   3.784  13.804  0.00  0.00    +0.000 A 
ENDBRANCH  11  12
ENDBRANCH   5  11
ENDBRANCH   1   5
BRANCH   2  18
ATOM     18  C   UNL     1       2.902   3.894  19.462  0.00  0.00    +0.000 C 
BRANCH  18  19
ATOM     19  N   UNL     1       2.195   5.174  19.383  0.00  0.00    +0.000 N 
ATOM     20  C   UNL     1       2.870   6.363  19.431  0.00  0.00    +0.000 C 
ATOM     21  O   UNL     1       4.066   6.468  19.672  0.00  0.00    +0.000 OA
ATOM     22  H   UNL     1       1.238   5.224  19.065  0.00  0.00    +0.000 HD
BRANCH  20  23
ATOM     23  O   UNL     1       2.022   7.394  19.199  0.00  0.00    +0.000 OA
BRANCH  23  24
ATOM     24  C   UNL     1       1.542   8.072  20.371  0.00  0.00    +0.000 C 
BRANCH  24  25
ATOM     25  C   UNL     1       0.898   9.381  19.985  0.00  0.00    +0.000 A 
ATOM     26  C   UNL     1       0.811  10.450  20.888  0.00  0.00    +0.000 A 
ATOM     27  C   UNL     1       0.214  11.654  20.503  0.00  0.00    +0.000 A 
ATOM     28  C   UNL     1      -0.303  11.799  19.217  0.00  0.00    +0.000 A 
ATOM     29  C   UNL     1      -0.222  10.743  18.312  0.00  0.00    +0.000 A 
ATOM     30  C   UNL     1       0.372   9.540  18.695  0.00  0.00    +0.000 A 
ENDBRANCH  24  25
ENDBRANCH  23  24
ENDBRANCH  20  23
ENDBRANCH  18  19
BRANCH  18  31
ATOM     31  C   UNL     1       1.936   2.700  19.642  0.00  0.00    +0.000 C 
ATOM     32  C   UNL     1       1.598   2.485  21.123  0.00  0.00    +0.000 C 
ATOM     33  C   UNL     1       0.624   2.894  18.877  0.00  0.00    +0.000 C 
ENDBRANCH  18  31
ENDBRANCH   2  18
TORSDOF 11
ENDMDL
MODEL 3
REMARK VINA RESULT:      -7.8      1.227      1.545
REMARK  Name = 
REMARK  14 active torsions:
REMARK  status: ('A' for Active; 'I' for Inactive)
REMARK    1  A    between atoms: C_1  and  C_2
REMARK    2  A    between atoms: C_2  and  C_4
REMARK    3  A    between atoms: C_4  and  C_6
REMARK    4  A    between atoms: C_6  and  C_7
REMARK    5  A    between atoms: C_6  and  N_14
REMARK    6  A    between atoms: C_7  and  C_8
REMARK    7  A    between atoms: C_15  and  C_17
REMARK    8  A    between atoms: C_17  and  N_18
REMARK    9  A    between atoms: C_17  and  C_29
REMARK   10  A    between atoms: C_19  and  O_21
REMARK   11  A    between atoms: O_21  and  C_22
REMARK   12  A    between atoms: C_22  and  C_23
REMARK   13  A    between atoms: C_29  and  C_30
REMARK   14  A    between atoms: C_29  and  C_31
REMARK                            x       y       z     vdW  Elec       q    Type
REMARK                         _______ _______ _______ _____ _____    ______ ____
ROOT
ATOM      1  N   UNL     1       5.082   4.938  17.604  0.00  0.00    +0.000 N 
ATOM      2  C   UNL     1       4.585   4.056  18.540  0.00  0.00    +0.000 C 
ATOM      3  O   UNL     1       5.115   2.970  18.757  0.00  0.00    +0.000 OA
ATOM      4  H   UNL     1       4.555   5.765  17.349  0.00  0.00    +0.000 HD
ENDROOT
BRANCH   1   5
ATOM      5  C   UNL     1       6.301   4.658  16.827  0.00  0.00    +0.000 C 
BRANCH   5   6
ATOM      6  C   UNL     1       7.489   4.724  17.781  0.00  0.00    +0.000 C 
ATOM      7  O   UNL     1       8.453   3.963  17.739  0.00  0.00    +0.000 OA
BRANCH   6   9
ATOM      8  C   UNL     1       7.901   7.189  18.363  0.00  0.00    +0.000 C 
ATOM      9  C   UNL     1       7.472   5.831  18.824  0.00  0.00    +0.000 C 
ATOM     10  O   UNL     1       7.114   5.593  19.970  0.00  0.00    +0.000 OA
ENDBRANCH   6   9
ENDBRANCH   5   6
BRANCH   5  11
ATOM     11  C   UNL     1       6.445   5.592  15.607  0.00  0.00    +0.000 C 
BRANCH  11  12
ATOM     12  C   UNL     1       6.527   4.881  14.272  0.00  0.00    +0.000 A 
ATOM     13  C   UNL     1       7.522   5.176  13.332  0.00  0.00    +0.000 A 
ATOM     14  C   UNL     1       7.532   4.534  12.090  0.00  0.00    +0.000 A 
ATOM     15  C   UNL     1       6.559   3.583  11.780  0.00  0.00    +0.000 A 
ATOM     16  C   UNL     1       5.591   3.256  12.719  0.00  0.00    +0.000 A 
ATOM     17  C   UNL     1       5.585   3.896  13.956  0.00  0.00    +0.000 A 
ENDBRANCH  11  12
ENDBRANCH   5  11
ENDBRANCH   1   5
BRANCH   2  18
ATOM     18  C   UNL     1       3.264   4.485  19.224  0.00  0.00    +0.000 C 
BRANCH  18  19
ATOM     19  N   UNL     1       3.136   5.939  19.094  0.00  0.00    +0.000 N 
ATOM     20  C   UNL     1       2.320   6.658  19.923  0.00  0.00    +0.000 C 
ATOM     21  O   UNL     1       1.546   6.159  20.731  0.00  0.00    +0.000 OA
ATOM     22  H   UNL     1       3.802   6.476  18.558  0.00  0.00    +0.000 HD
BRANCH  20  23
ATOM     23  O   UNL     1       2.477   7.985  19.702  0.00  0.00    +0.000 OA
BRANCH  23  24
ATOM     24  C   UNL     1       1.675   8.532  18.642  0.00  0.00    +0.000 C 
BRANCH  24  25
ATOM     25  C   UNL     1       0.707   9.548  19.197  0.00  0.00    +0.000 A 
ATOM     26  C   UNL     1      -0.153  10.274  18.361  0.00  0.00    +0.000 A 
ATOM     27  C   UNL     1      -1.044  11.206  18.900  0.00  0.00    +0.000 A 
ATOM     28  C   UNL     1      -1.081  11.423  20.277  0.00  0.00    +0.000 A 
ATOM     29  C   UNL     1      -0.231  10.707  21.117  0.00  0.00    +0.000 A 
ATOM     30  C   UNL     1       0.660   9.777  20.580  0.00  0.00    +0.000 A 
ENDBRANCH  24  25
ENDBRANCH  23  24
ENDBRANCH  20  23
ENDBRANCH  18  19
BRANCH  18  31
ATOM     31  C   UNL     1       2.050   3.734  18.631  0.00  0.00    +0.000 C 
ATOM     32  C   UNL     1       2.489   2.773  17.518  0.00  0.00    +0.000 C 
ATOM     33  C   UNL     1       1.294   2.926  19.688  0.00  0.00    +0.000 C 
ENDBRANCH  18  31
ENDBRANCH   2  18
TORSDOF 11
ENDMDL
MODEL 4
REMARK VINA RESULT:      -7.7      1.583      1.971
REMARK  Name = 
REMARK  14 active torsions:
REMARK  status: ('A' for Active; 'I' for Inactive)
REMARK    1  A    between atoms: C_1  and  C_2
REMARK    2  A    between atoms: C_2  and  C_4
REMARK    3  A    between atoms: C_4  and  C_6
REMARK    4  A    between atoms: C_6  and  C_7
REMARK    5  A    between atoms: C_6  and  N_14
REMARK    6  A    between atoms: C_7  and  C_8
REMARK    7  A    between atoms: C_15  and  C_17
REMARK    8  A    between atoms: C_17  and  N_18
REMARK    9  A    between atoms: C_17  and  C_29
REMARK   10  A    between atoms: C_19  and  O_21
REMARK   11  A    between atoms: O_21  and  C_22
REMARK   12  A    between atoms: C_22  and  C_23
REMARK   13  A    between atoms: C_29  and  C_30
REMARK   14  A    between atoms: C_29  and  C_31
REMARK                            x       y       z     vdW  Elec       q    Type
REMARK                         _______ _______ _______ _____ _____    ______ ____
ROOT
ATOM      1  N   UNL     1       4.675   5.085  17.287  0.00  0.00    +0.000 N 
ATOM      2  C   UNL     1       4.263   4.271  18.321  0.00  0.00    +0.000 C 
ATOM      3  O   UNL     1       4.754   3.163  18.513  0.00  0.00    +0.000 OA
ATOM      4  H   UNL     1       4.167   5.934  17.069  0.00  0.00    +0.000 HD
ENDROOT
BRANCH   1   5
ATOM      5  C   UNL     1       5.755   4.699  16.364  0.00  0.00    +0.000 C 
BRANCH   5   6
ATOM      6  C   UNL     1       7.082   4.881  17.094  0.00  0.00    +0.000 C 
ATOM      7  O   UNL     1       8.048   4.132  16.970  0.00  0.00    +0.000 OA
BRANCH   6   9
ATOM      8  C   UNL     1       7.838   5.860  19.341  0.00  0.00    +0.000 C 
ATOM      9  C   UNL     1       7.204   6.093  18.005  0.00  0.00    +0.000 C 
ATOM     10  O   UNL     1       6.802   7.187  17.633  0.00  0.00    +0.000 OA
ENDBRANCH   6   9
ENDBRANCH   5   6
BRANCH   5  11
ATOM     11  C   UNL     1       5.684   5.467  15.027  0.00  0.00    +0.000 C 
BRANCH  11  12
ATOM     12  C   UNL     1       6.008   4.635  13.802  0.00  0.00    +0.000 A 
ATOM     13  C   UNL     1       5.130   3.662  13.312  0.00  0.00    +0.000 A 
ATOM     14  C   UNL     1       5.488   2.878  12.209  0.00  0.00    +0.000 A 
ATOM     15  C   UNL     1       6.718   3.069  11.580  0.00  0.00    +0.000 A 
ATOM     16  C   UNL     1       7.580   4.057  12.036  0.00  0.00    +0.000 A 
ATOM     17  C   UNL     1       7.219   4.836  13.132  0.00  0.00    +0.000 A 
ENDBRANCH  11  12
ENDBRANCH   5  11
ENDBRANCH   1   5
BRANCH   2  18
ATOM     18  C   UNL     1       3.078   4.809  19.160  0.00  0.00    +0.000 C 
BRANCH  18  19
ATOM     19  N   UNL     1       2.406   5.852  18.382  0.00  0.00    +0.000 N 
ATOM     20  C   UNL     1       2.150   7.084  18.916  0.00  0.00    +0.000 C 
ATOM     21  O   UNL     1       2.328   7.377  20.092  0.00  0.00    +0.000 OA
ATOM     22  H   UNL     1       2.319   5.780  17.378  0.00  0.00    +0.000 HD
BRANCH  20  23
ATOM     23  O   UNL     1       1.654   7.914  17.967  0.00  0.00    +0.000 OA
BRANCH  23  24
ATOM     24  C   UNL     1       2.318   9.183  17.851  0.00  0.00    +0.000 C 
BRANCH  24  25
ATOM     25  C   UNL     1       1.356  10.302  18.167  0.00  0.00    +0.000 A 
ATOM     26  C   UNL     1      -0.026  10.081  18.242  0.00  0.00    +0.000 A 
ATOM     27  C   UNL     1      -0.896  11.134  18.542  0.00  0.00    +0.000 A 
ATOM     28  C   UNL     1      -0.393  12.414  18.767  0.00  0.00    +0.000 A 
ATOM     29  C   UNL     1       0.980  12.645  18.696  0.00  0.00    +0.000 A 
ATOM     30  C   UNL     1       1.849  11.595  18.394  0.00  0.00    +0.000 A 
ENDBRANCH  24  25
ENDBRANCH  23  24
ENDBRANCH  20  23
ENDBRANCH  18  19
BRANCH  18  31
ATOM     31  C   UNL     1       2.115   3.670  19.572  0.00  0.00    +0.000 C 
ATOM     32  C   UNL     1       1.283   4.071  20.797  0.00  0.00    +0.000 C 
ATOM     33  C   UNL     1       1.152   3.290  18.445  0.00  0.00    +0.000 C 
ENDBRANCH  18  31
ENDBRANCH   2  18
TORSDOF 11
ENDMDL
MODEL 5
REMARK VINA RESULT:      -7.7      2.106      8.191
REMARK  Name = 
REMARK  14 active torsions:
REMARK  status: ('A' for Active; 'I' for Inactive)
REMARK    1  A    between atoms: C_1  and  C_2
REMARK    2  A    between atoms: C_2  and  C_4
REMARK    3  A    between atoms: C_4  and  C_6
REMARK    4  A    between atoms: C_6  and  C_7
REMARK    5  A    between atoms: C_6  and  N_14
REMARK    6  A    between atoms: C_7  and  C_8
REMARK    7  A    between atoms: C_15  and  C_17
REMARK    8  A    between atoms: C_17  and  N_18
REMARK    9  A    between atoms: C_17  and  C_29
REMARK   10  A    between atoms: C_19  and  O_21
REMARK   11  A    between atoms: O_21  and  C_22
REMARK   12  A    between atoms: C_22  and  C_23
REMARK   13  A    between atoms: C_29  and  C_30
REMARK   14  A    between atoms: C_29  and  C_31
REMARK                            x       y       z     vdW  Elec       q    Type
REMARK                         _______ _______ _______ _____ _____    ______ ____
ROOT
ATOM      1  N   UNL     1       1.768   7.474  20.583  0.00  0.00    +0.000 N 
ATOM      2  C   UNL     1       2.332   6.890  19.469  0.00  0.00    +0.000 C 
ATOM      3  O   UNL     1       2.563   7.527  18.446  0.00  0.00    +0.000 OA
ATOM      4  H   UNL     1       1.466   6.903  21.364  0.00  0.00    +0.000 HD
ENDROOT
BRANCH   1   5
ATOM      5  C   UNL     1       1.437   8.908  20.639  0.00  0.00    +0.000 C 
BRANCH   5   6
ATOM      6  C   UNL     1       1.136   9.262  22.091  0.00  0.00    +0.000 C 
ATOM      7  O   UNL     1       1.988   9.594  22.913  0.00  0.00    +0.000 OA
BRANCH   6   9
ATOM      8  C   UNL     1      -0.884  10.494  23.085  0.00  0.00    +0.000 C 
ATOM      9  C   UNL     1      -0.323   9.226  22.520  0.00  0.00    +0.000 C 
ATOM     10  O   UNL     1      -0.978   8.201  22.389  0.00  0.00    +0.000 OA
ENDBRANCH   6   9
ENDBRANCH   5   6
BRANCH   5  11
ATOM     11  C   UNL     1       0.296   9.284  19.670  0.00  0.00    +0.000 C 
BRANCH  11  12
ATOM     12  C   UNL     1       0.266  10.743  19.265  0.00  0.00    +0.000 A 
ATOM     13  C   UNL     1      -0.933  11.458  19.154  0.00  0.00    +0.000 A 
ATOM     14  C   UNL     1      -0.923  12.790  18.727  0.00  0.00    +0.000 A 
ATOM     15  C   UNL     1       0.283  13.423  18.421  0.00  0.00    +0.000 A 
ATOM     16  C   UNL     1       1.479  12.734  18.565  0.00  0.00    +0.000 A 
ATOM     17  C   UNL     1       1.465  11.409  18.992  0.00  0.00    +0.000 A 
ENDBRANCH  11  12
ENDBRANCH   5  11
ENDBRANCH   1   5
BRANCH   2  18
ATOM     18  C   UNL     1       2.563   5.361  19.563  0.00  0.00    +0.000 C 
BRANCH  18  19
ATOM     19  N   UNL     1       3.984   5.132  19.835  0.00  0.00    +0.000 N 
ATOM     20  C   UNL     1       4.686   4.161  19.175  0.00  0.00    +0.000 C 
ATOM     21  O   UNL     1       4.182   3.334  18.426  0.00  0.00    +0.000 OA
ATOM     22  H   UNL     1       4.538   5.815  20.332  0.00  0.00    +0.000 HD
BRANCH  20  23
ATOM     23  O   UNL     1       6.001   4.236  19.490  0.00  0.00    +0.000 OA
BRANCH  23  24
ATOM     24  C   UNL     1       6.721   5.318  18.877  0.00  0.00    +0.000 C 
BRANCH  24  25
ATOM     25  C   UNL     1       6.453   5.343  17.392  0.00  0.00    +0.000 A 
ATOM     26  C   UNL     1       5.553   6.255  16.824  0.00  0.00    +0.000 A 
ATOM     27  C   UNL     1       5.327   6.261  15.445  0.00  0.00    +0.000 A 
ATOM     28  C   UNL     1       5.994   5.354  14.623  0.00  0.00    +0.000 A 
ATOM     29  C   UNL     1       6.891   4.443  15.177  0.00  0.00    +0.000 A 
ATOM     30  C   UNL     1       7.117   4.435  16.554  0.00  0.00    +0.000 A 
ENDBRANCH  24  25
ENDBRANCH  23  24
ENDBRANCH  20  23
ENDBRANCH  18  19
BRANCH  18  31
ATOM     31  C   UNL     1       1.650   4.717  20.633  0.00  0.00    +0.000 C 
ATOM     32  C   UNL     1       0.678   3.716  19.994  0.00  0.00    +0.000 C 
ATOM     33  C   UNL     1       2.449   3.984  21.712  0.00  0.00    +0.000 C 
ENDBRANCH  18  31
ENDBRANCH   2  18
TORSDOF 11
ENDMDL
MODEL 6
REMARK VINA RESULT:      -7.7      0.937      1.621
REMARK  Name = 
REMARK  14 active torsions:
REMARK  status: ('A' for Active; 'I' for Inactive)
REMARK    1  A    between atoms: C_1  and  C_2
REMARK    2  A    between atoms: C_2  and  C_4
REMARK    3  A    between atoms: C_4  and  C_6
REMARK    4  A    between atoms: C_6  and  C_7
REMARK    5  A    between atoms: C_6  and  N_14
REMARK    6  A    between atoms: C_7  and  C_8
REMARK    7  A    between atoms: C_15  and  C_17
REMARK    8  A    between atoms: C_17  and  N_18
REMARK    9  A    between atoms: C_17  and  C_29
REMARK   10  A    between atoms: C_19  and  O_21
REMARK   11  A    between atoms: O_21  and  C_22
REMARK   12  A    between atoms: C_22  and  C_23
REMARK   13  A    between atoms: C_29  and  C_30
REMARK   14  A    between atoms: C_29  and  C_31
REMARK                            x       y       z     vdW  Elec       q    Type
REMARK                         _______ _______ _______ _____ _____    ______ ____
ROOT
ATOM      1  N   UNL     1       4.911   4.336  17.839  0.00  0.00    +0.000 N 
ATOM      2  C   UNL     1       4.093   3.294  18.224  0.00  0.00    +0.000 C 
ATOM      3  O   UNL     1       4.051   2.236  17.603  0.00  0.00    +0.000 OA
ATOM      4  H   UNL     1       4.831   5.242  18.287  0.00  0.00    +0.000 HD
ENDROOT
BRANCH   1   5
ATOM      5  C   UNL     1       5.815   4.241  16.681  0.00  0.00    +0.000 C 
BRANCH   5   6
ATOM      6  C   UNL     1       7.190   4.733  17.121  0.00  0.00    +0.000 C 
ATOM      7  O   UNL     1       8.222   4.071  17.036  0.00  0.00    +0.000 OA
BRANCH   6   9
ATOM      8  C   UNL     1       7.835   6.301  19.047  0.00  0.00    +0.000 C 
ATOM      9  C   UNL     1       7.270   6.150  17.669  0.00  0.00    +0.000 C 
ATOM     10  O   UNL     1       6.892   7.096  16.990  0.00  0.00    +0.000 OA
ENDBRANCH   6   9
ENDBRANCH   5   6
BRANCH   5  11
ATOM     11  C   UNL     1       5.266   4.987  15.447  0.00  0.00    +0.000 C 
BRANCH  11  12
ATOM     12  C   UNL     1       5.855   4.540  14.124  0.00  0.00    +0.000 A 
ATOM     13  C   UNL     1       5.199   3.626  13.291  0.00  0.00    +0.000 A 
ATOM     14  C   UNL     1       5.800   3.198  12.102  0.00  0.00    +0.000 A 
ATOM     15  C   UNL     1       7.052   3.688  11.730  0.00  0.00    +0.000 A 
ATOM     16  C   UNL     1       7.694   4.622  12.531  0.00  0.00    +0.000 A 
ATOM     17  C   UNL     1       7.091   5.048  13.712  0.00  0.00    +0.000 A 
ENDBRANCH  11  12
ENDBRANCH   5  11
ENDBRANCH   1   5
BRANCH   2  18
ATOM     18  C   UNL     1       3.167   3.584  19.429  0.00  0.00    +0.000 C 
BRANCH  18  19
ATOM     19  N   UNL     1       2.656   4.951  19.292  0.00  0.00    +0.000 N 
ATOM     20  C   UNL     1       2.371   5.717  20.389  0.00  0.00    +0.000 C 
ATOM     21  O   UNL     1       2.383   5.303  21.541  0.00  0.00    +0.000 OA
ATOM     22  H   UNL     1       2.716   5.445  18.414  0.00  0.00    +0.000 HD
BRANCH  20  23
ATOM     23  O   UNL     1       2.052   6.978  20.011  0.00  0.00    +0.000 OA
BRANCH  23  24
ATOM     24  C   UNL     1       1.178   7.686  20.905  0.00  0.00    +0.000 C 
BRANCH  24  25
ATOM     25  C   UNL     1       1.030   9.120  20.457  0.00  0.00    +0.000 A 
ATOM     26  C   UNL     1       0.818  10.157  21.376  0.00  0.00    +0.000 A 
ATOM     27  C   UNL     1       0.689  11.477  20.935  0.00  0.00    +0.000 A 
ATOM     28  C   UNL     1       0.767  11.772  19.575  0.00  0.00    +0.000 A 
ATOM     29  C   UNL     1       0.978  10.748  18.653  0.00  0.00    +0.000 A 
ATOM     30  C   UNL     1       1.105   9.429  19.091  0.00  0.00    +0.000 A 
ENDBRANCH  24  25
ENDBRANCH  23  24
ENDBRANCH  20  23
ENDBRANCH  18  19
BRANCH  18  31
ATOM     31  C   UNL     1       2.029   2.541  19.532  0.00  0.00    +0.000 C 
ATOM     32  C   UNL     1       1.569   2.372  20.985  0.00  0.00    +0.000 C 
ATOM     33  C   UNL     1       0.812   2.925  18.687  0.00  0.00    +0.000 C 
ENDBRANCH  18  31
ENDBRANCH   2  18
TORSDOF 11
ENDMDL
MODEL 7
REMARK VINA RESULT:      -7.6      1.775      8.423
REMARK  Name = 
REMARK  14 active torsions:
REMARK  status: ('A' for Active; 'I' for Inactive)
REMARK    1  A    between atoms: C_1  and  C_2
REMARK    2  A    between atoms: C_2  and  C_4
REMARK    3  A    between atoms: C_4  and  C_6
REMARK    4  A    between atoms: C_6  and  C_7
REMARK    5  A    between atoms: C_6  and  N_14
REMARK    6  A    between atoms: C_7  and  C_8
REMARK    7  A    between atoms: C_15  and  C_17
REMARK    8  A    between atoms: C_17  and  N_18
REMARK    9  A    between atoms: C_17  and  C_29
REMARK   10  A    between atoms: C_19  and  O_21
REMARK   11  A    between atoms: O_21  and  C_22
REMARK   12  A    between atoms: C_22  and  C_23
REMARK   13  A    between atoms: C_29  and  C_30
REMARK   14  A    between atoms: C_29  and  C_31
REMARK                            x       y       z     vdW  Elec       q    Type
REMARK                         _______ _______ _______ _____ _____    ______ ____
ROOT
ATOM      1  N   UNL     1       4.050   5.118  18.946  0.00  0.00    +0.000 N 
ATOM      2  C   UNL     1       5.140   4.278  18.867  0.00  0.00    +0.000 C 
ATOM      3  O   UNL     1       5.182   3.206  19.463  0.00  0.00    +0.000 OA
ATOM      4  H   UNL     1       4.092   6.051  18.555  0.00  0.00    +0.000 HD
ENDROOT
BRANCH   1   5
ATOM      5  C   UNL     1       2.845   4.773  19.719  0.00  0.00    +0.000 C 
BRANCH   5   6
ATOM      6  C   UNL     1       1.841   4.139  18.762  0.00  0.00    +0.000 C 
ATOM      7  O   UNL     1       1.686   4.485  17.593  0.00  0.00    +0.000 OA
BRANCH   6   9
ATOM      8  C   UNL     1       1.125   2.711  20.770  0.00  0.00    +0.000 C 
ATOM      9  C   UNL     1       1.009   2.986  19.303  0.00  0.00    +0.000 C 
ATOM     10  O   UNL     1       0.287   2.342  18.554  0.00  0.00    +0.000 OA
ENDBRANCH   6   9
ENDBRANCH   5   6
BRANCH   5  11
ATOM     11  C   UNL     1       2.275   5.984  20.487  0.00  0.00    +0.000 C 
BRANCH  11  12
ATOM     12  C   UNL     1       2.126   7.244  19.660  0.00  0.00    +0.000 A 
ATOM     13  C   UNL     1       1.362   8.333  20.095  0.00  0.00    +0.000 A 
ATOM     14  C   UNL     1       1.206   9.458  19.277  0.00  0.00    +0.000 A 
ATOM     15  C   UNL     1       1.823   9.511  18.027  0.00  0.00    +0.000 A 
ATOM     16  C   UNL     1       2.613   8.452  17.603  0.00  0.00    +0.000 A 
ATOM     17  C   UNL     1       2.768   7.335  18.420  0.00  0.00    +0.000 A 
ENDBRANCH  11  12
ENDBRANCH   5  11
ENDBRANCH   1   5
BRANCH   2  18
ATOM     18  C   UNL     1       6.342   4.823  18.057  0.00  0.00    +0.000 C 
BRANCH  18  19
ATOM     19  N   UNL     1       5.899   5.040  16.677  0.00  0.00    +0.000 N 
ATOM     20  C   UNL     1       6.699   4.719  15.615  0.00  0.00    +0.000 C 
ATOM     21  O   UNL     1       7.866   4.362  15.714  0.00  0.00    +0.000 OA
ATOM     22  H   UNL     1       4.928   5.211  16.461  0.00  0.00    +0.000 HD
BRANCH  20  23
ATOM     23  O   UNL     1       6.022   4.877  14.453  0.00  0.00    +0.000 OA
BRANCH  23  24
ATOM     24  C   UNL     1       6.831   4.887  13.265  0.00  0.00    +0.000 C 
BRANCH  24  25
ATOM     25  C   UNL     1       6.526   3.675  12.420  0.00  0.00    +0.000 A 
ATOM     26  C   UNL     1       7.548   2.875  11.889  0.00  0.00    +0.000 A 
ATOM     27  C   UNL     1       7.239   1.754  11.114  0.00  0.00    +0.000 A 
ATOM     28  C   UNL     1       5.908   1.424  10.859  0.00  0.00    +0.000 A 
ATOM     29  C   UNL     1       4.885   2.212  11.382  0.00  0.00    +0.000 A 
ATOM     30  C   UNL     1       5.192   3.333  12.155  0.00  0.00    +0.000 A 
ENDBRANCH  24  25
ENDBRANCH  23  24
ENDBRANCH  20  23
ENDBRANCH  18  19
BRANCH  18  31
ATOM     31  C   UNL     1       6.920   6.107  18.697  0.00  0.00    +0.000 C 
ATOM     32  C   UNL     1       8.138   5.784  19.573  0.00  0.00    +0.000 C 
ATOM     33  C   UNL     1       7.346   7.137  17.648  0.00  0.00    +0.000 C 
ENDBRANCH  18  31
ENDBRANCH   2  18
TORSDOF 11
ENDMDL
MODEL 8
REMARK VINA RESULT:      -7.6      2.850      5.293
REMARK  Name = 
REMARK  14 active torsions:
REMARK  status: ('A' for Active; 'I' for Inactive)
REMARK    1  A    between atoms: C_1  and  C_2
REMARK    2  A    between atoms: C_2  and  C_4
REMARK    3  A    between atoms: C_4  and  C_6
REMARK    4  A    between atoms: C_6  and  C_7
REMARK    5  A    between atoms: C_6  and  N_14
REMARK    6  A    between atoms: C_7  and  C_8
REMARK    7  A    between atoms: C_15  and  C_17
REMARK    8  A    between atoms: C_17  and  N_18
REMARK    9  A    between atoms: C_17  and  C_29
REMARK   10  A    between atoms: C_19  and  O_21
REMARK   11  A    between atoms: O_21  and  C_22
REMARK   12  A    between atoms: C_22  and  C_23
REMARK   13  A    between atoms: C_29  and  C_30
REMARK   14  A    between atoms: C_29  and  C_31
REMARK                            x       y       z     vdW  Elec       q    Type
REMARK                         _______ _______ _______ _____ _____    ______ ____
ROOT
ATOM      1  N   UNL     1       2.723   6.546  19.860  0.00  0.00    +0.000 N 
ATOM      2  C   UNL     1       2.203   7.621  19.172  0.00  0.00    +0.000 C 
ATOM      3  O   UNL     1       2.251   7.696  17.947  0.00  0.00    +0.000 OA
ATOM      4  H   UNL     1       2.790   6.568  20.871  0.00  0.00    +0.000 HD
ENDROOT
BRANCH   1   5
ATOM      5  C   UNL     1       3.340   5.397  19.176  0.00  0.00    +0.000 C 
BRANCH   5   6
ATOM      6  C   UNL     1       2.837   4.125  19.852  0.00  0.00    +0.000 C 
ATOM      7  O   UNL     1       3.566   3.286  20.377  0.00  0.00    +0.000 OA
BRANCH   6   9
ATOM      8  C   UNL     1       0.796   2.749  19.128  0.00  0.00    +0.000 C 
ATOM      9  C   UNL     1       1.331   3.919  19.895  0.00  0.00    +0.000 C 
ATOM     10  O   UNL     1       0.622   4.682  20.537  0.00  0.00    +0.000 OA
ENDBRANCH   6   9
ENDBRANCH   5   6
BRANCH   5  11
ATOM     11  C   UNL     1       4.879   5.498  19.134  0.00  0.00    +0.000 C 
BRANCH  11  12
ATOM     12  C   UNL     1       5.489   5.292  17.763  0.00  0.00    +0.000 A 
ATOM     13  C   UNL     1       6.704   4.619  17.583  0.00  0.00    +0.000 A 
ATOM     14  C   UNL     1       7.260   4.496  16.305  0.00  0.00    +0.000 A 
ATOM     15  C   UNL     1       6.602   5.029  15.196  0.00  0.00    +0.000 A 
ATOM     16  C   UNL     1       5.380   5.666  15.360  0.00  0.00    +0.000 A 
ATOM     17  C   UNL     1       4.828   5.785  16.633  0.00  0.00    +0.000 A 
ENDBRANCH  11  12
ENDBRANCH   5  11
ENDBRANCH   1   5
BRANCH   2  18
ATOM     18  C   UNL     1       1.642   8.766  20.050  0.00  0.00    +0.000 C 
BRANCH  18  19
ATOM     19  N   UNL     1       0.631   9.484  19.270  0.00  0.00    +0.000 N 
ATOM     20  C   UNL     1       0.564  10.850  19.280  0.00  0.00    +0.000 C 
ATOM     21  O   UNL     1       1.227  11.568  20.017  0.00  0.00    +0.000 OA
ATOM     22  H   UNL     1       0.112   9.023  18.537  0.00  0.00    +0.000 HD
BRANCH  20  23
ATOM     23  O   UNL     1      -0.352  11.281  18.380  0.00  0.00    +0.000 OA
BRANCH  23  24
ATOM     24  C   UNL     1      -1.294  12.248  18.874  0.00  0.00    +0.000 C 
BRANCH  24  25
ATOM     25  C   UNL     1      -2.689  11.889  18.425  0.00  0.00    +0.000 A 
ATOM     26  C   UNL     1      -3.804  12.112  19.245  0.00  0.00    +0.000 A 
ATOM     27  C   UNL     1      -5.086  11.776  18.803  0.00  0.00    +0.000 A 
ATOM     28  C   UNL     1      -5.265  11.210  17.541  0.00  0.00    +0.000 A 
ATOM     29  C   UNL     1      -4.164  10.983  16.718  0.00  0.00    +0.000 A 
ATOM     30  C   UNL     1      -2.883  11.317  17.159  0.00  0.00    +0.000 A 
ENDBRANCH  24  25
ENDBRANCH  23  24
ENDBRANCH  20  23
ENDBRANCH  18  19
BRANCH  18  31
ATOM     31  C   UNL     1       1.080   8.229  21.387  0.00  0.00    +0.000 C 
ATOM     32  C   UNL     1       1.493   9.130  22.558  0.00  0.00    +0.000 C 
ATOM     33  C   UNL     1      -0.447   8.131  21.376  0.00  0.00    +0.000 C 
ENDBRANCH  18  31
ENDBRANCH   2  18
TORSDOF 11
ENDMDL
MODEL 9
REMARK VINA RESULT:      -7.5      1.573      2.524
REMARK  Name = 
REMARK  14 active torsions:
REMARK  status: ('A' for Active; 'I' for Inactive)
REMARK    1  A    between atoms: C_1  and  C_2
REMARK    2  A    between atoms: C_2  and  C_4
REMARK    3  A    between atoms: C_4  and  C_6
REMARK    4  A    between atoms: C_6  and  C_7
REMARK    5  A    between atoms: C_6  and  N_14
REMARK    6  A    between atoms: C_7  and  C_8
REMARK    7  A    between atoms: C_15  and  C_17
REMARK    8  A    between atoms: C_17  and  N_18
REMARK    9  A    between atoms: C_17  and  C_29
REMARK   10  A    between atoms: C_19  and  O_21
REMARK   11  A    between atoms: O_21  and  C_22
REMARK   12  A    between atoms: C_22  and  C_23
REMARK   13  A    between atoms: C_29  and  C_30
REMARK   14  A    between atoms: C_29  and  C_31
REMARK                            x       y       z     vdW  Elec       q    Type
REMARK                         _______ _______ _______ _____ _____    ______ ____
ROOT
ATOM      1  N   UNL     1       4.459   5.882  17.587  0.00  0.00    +0.000 N 
ATOM      2  C   UNL     1       4.114   5.058  18.638  0.00  0.00    +0.000 C 
ATOM      3  O   UNL     1       4.675   3.984  18.835  0.00  0.00    +0.000 OA
ATOM      4  H   UNL     1       3.896   6.696  17.368  0.00  0.00    +0.000 HD
ENDROOT
BRANCH   1   5
ATOM      5  C   UNL     1       5.546   5.551  16.651  0.00  0.00    +0.000 C 
BRANCH   5   6
ATOM      6  C   UNL     1       6.838   6.141  17.207  0.00  0.00    +0.000 C 
ATOM      7  O   UNL     1       7.193   7.306  17.044  0.00  0.00    +0.000 OA
BRANCH   6   9
ATOM      8  C   UNL     1       7.941   5.618  19.464  0.00  0.00    +0.000 C 
ATOM      9  C   UNL     1       7.713   5.216  18.040  0.00  0.00    +0.000 C 
ATOM     10  O   UNL     1       8.184   4.201  17.543  0.00  0.00    +0.000 OA
ENDBRANCH   6   9
ENDBRANCH   5   6
BRANCH   5  11
ATOM     11  C   UNL     1       5.237   6.010  15.210  0.00  0.00    +0.000 C 
BRANCH  11  12
ATOM     12  C   UNL     1       5.817   5.124  14.126  0.00  0.00    +0.000 A 
ATOM     13  C   UNL     1       5.073   4.103  13.524  0.00  0.00    +0.000 A 
ATOM     14  C   UNL     1       5.662   3.272  12.564  0.00  0.00    +0.000 A 
ATOM     15  C   UNL     1       6.992   3.463  12.188  0.00  0.00    +0.000 A 
ATOM     16  C   UNL     1       7.727   4.496  12.753  0.00  0.00    +0.000 A 
ATOM     17  C   UNL     1       7.137   5.322  13.706  0.00  0.00    +0.000 A 
ENDBRANCH  11  12
ENDBRANCH   5  11
ENDBRANCH   1   5
BRANCH   2  18
ATOM     18  C   UNL     1       2.912   5.533  19.490  0.00  0.00    +0.000 C 
BRANCH  18  19
ATOM     19  N   UNL     1       2.483   6.840  18.984  0.00  0.00    +0.000 N 
ATOM     20  C   UNL     1       1.873   7.752  19.799  0.00  0.00    +0.000 C 
ATOM     21  O   UNL     1       1.517   7.522  20.948  0.00  0.00    +0.000 OA
ATOM     22  H   UNL     1       2.822   7.195  18.102  0.00  0.00    +0.000 HD
BRANCH  20  23
ATOM     23  O   UNL     1       1.701   8.925  19.145  0.00  0.00    +0.000 OA
BRANCH  23  24
ATOM     24  C   UNL     1       0.994   9.941  19.876  0.00  0.00    +0.000 C 
BRANCH  24  25
ATOM     25  C   UNL     1      -0.266  10.326  19.140  0.00  0.00    +0.000 A 
ATOM     26  C   UNL     1      -1.155  11.280  19.656  0.00  0.00    +0.000 A 
ATOM     27  C   UNL     1      -2.312  11.623  18.953  0.00  0.00    +0.000 A 
ATOM     28  C   UNL     1      -2.594  11.015  17.730  0.00  0.00    +0.000 A 
ATOM     29  C   UNL     1      -1.718  10.065  17.208  0.00  0.00    +0.000 A 
ATOM     30  C   UNL     1      -0.563   9.721  17.910  0.00  0.00    +0.000 A 
ENDBRANCH  24  25
ENDBRANCH  23  24
ENDBRANCH  20  23
ENDBRANCH  18  19
BRANCH  18  31
ATOM     31  C   UNL     1       1.766   4.495  19.478  0.00  0.00    +0.000 C 
ATOM     32  C   UNL     1       1.558   3.923  18.070  0.00  0.00    +0.000 C 
ATOM     33  C   UNL     1       2.030   3.328  20.433  0.00  0.00    +0.000 C 
ENDBRANCH  18  31
ENDBRANCH   2  18
TORSDOF 11
ENDMDL
