MODEL 1
REMARK VINA RESULT:      -6.9      0.000      0.000
REMARK  Name = 
REMARK  12 active torsions:
REMARK  status: ('A' for Active; 'I' for Inactive)
REMARK    1  A    between atoms: C_1  and  O_2
REMARK    2  A    between atoms: O_2  and  C_3
REMARK    3  A    between atoms: C_3  and  C_4
REMARK    4  A    between atoms: C_4  and  C_5
REMARK    5  A    between atoms: C_5  and  N_6
REMARK    6  A    between atoms: C_13  and  C_14
REMARK    7  A    between atoms: C_18  and  O_19
REMARK    8  A    between atoms: O_19  and  C_20
REMARK    9  A    between atoms: N_22  and  C_23
REMARK   10  A    between atoms: C_23  and  C_24
REMARK   11  A    between atoms: C_24  and  O_25
REMARK   12  A    between atoms: O_25  and  C_26
REMARK                            x       y       z     vdW  Elec       q    Type
REMARK                         _______ _______ _______ _____ _____    ______ ____
ROOT
ATOM      1  N   UNL     1       8.273   9.057  17.575  0.00  0.00    +0.000 N 
ATOM      2  C   UNL     1       7.799   7.774  17.781  0.00  0.00    +0.000 C 
ATOM      3  O   UNL     1       8.004   7.142  18.808  0.00  0.00    +0.000 OA
ATOM      4  N   UNL     1       7.003   7.367  16.730  0.00  0.00    +0.000 N 
ATOM      5  C   UNL     1       6.389   6.139  16.836  0.00  0.00    +0.000 A 
ATOM      6  N   UNL     1       6.699   5.166  16.010  0.00  0.00    +0.000 NA
ATOM      7  C   UNL     1       5.947   4.101  16.407  0.00  0.00    +0.000 A 
ATOM      8  C   UNL     1       5.035   4.441  17.391  0.00  0.00    +0.000 A 
ATOM      9  N   UNL     1       5.351   5.779  17.680  0.00  0.00    +0.000 N 
ATOM     10  H   UNL     1       7.864   9.587  16.820  0.00  0.00    +0.000 HD
ATOM     11  H   UNL     1       7.511   7.443  15.856  0.00  0.00    +0.000 HD
ENDROOT
BRANCH   8  12
ATOM     12  C   UNL     1       3.989   3.594  17.998  0.00  0.00    +0.000 A 
ATOM     13  C   UNL     1       3.058   2.879  17.227  0.00  0.00    +0.000 A 
ATOM     14  C   UNL     1       2.057   2.116  17.819  0.00  0.00    +0.000 A 
ATOM     15  C   UNL     1       2.006   1.989  19.200  0.00  0.00    +0.000 A 
ATOM     16  C   UNL     1       2.957   2.623  19.997  0.00  0.00    +0.000 A 
ATOM     17  C   UNL     1       3.936   3.428  19.397  0.00  0.00    +0.000 A 
BRANCH  16  18
ATOM     18  O   UNL     1       2.817   2.375  21.335  0.00  0.00    +0.000 OA
ATOM     19  C   UNL     1       1.538   2.613  21.905  0.00  0.00    +0.000 C 
ENDBRANCH  16  18
ENDBRANCH   8  12
BRANCH   1  20
ATOM     20  C   UNL     1       8.920   9.780  18.656  0.00  0.00    +0.000 C 
BRANCH  20  21
ATOM     21  C   UNL     1       9.121  11.251  18.305  0.00  0.00    +0.000 C 
BRANCH  21  22
ATOM     22  C   UNL     1      10.514  11.512  17.748  0.00  0.00    +0.000 C 
BRANCH  22  24
ATOM     23  C   UNL     1      11.831  11.873  19.673  0.00  0.00    +0.000 C 
ATOM     24  O   UNL     1      11.173  12.473  18.567  0.00  0.00    +0.000 OA
ENDBRANCH  22  24
ENDBRANCH  21  22
ENDBRANCH  20  21
ENDBRANCH   1  20
BRANCH   9  25
ATOM     25  C   UNL     1       4.596   6.609  18.610  0.00  0.00    +0.000 C 
BRANCH  25  26
ATOM     26  C   UNL     1       3.144   6.948  18.315  0.00  0.00    +0.000 C 
BRANCH  26  27
ATOM     27  O   UNL     1       3.030   8.053  17.411  0.00  0.00    +0.000 OA
ATOM     28  C   UNL     1       2.120   9.008  17.958  0.00  0.00    +0.000 C 
ENDBRANCH  26  27
ENDBRANCH  25  26
ENDBRANCH   9  25
TORSDOF 9
ENDMDL
MODEL 2
REMARK VINA RESULT:      -6.6      0.886      1.066
REMARK  Name = 
REMARK  12 active torsions:
REMARK  status: ('A' for Active; 'I' for Inactive)
REMARK    1  A    between atoms: C_1  and  O_2
REMARK    2  A    between atoms: O_2  and  C_3
REMARK    3  A    between atoms: C_3  and  C_4
REMARK    4  A    between atoms: C_4  and  C_5
REMARK    5  A    between atoms: C_5  and  N_6
REMARK    6  A    between atoms: C_13  and  C_14
REMARK    7  A    between atoms: C_18  and  O_19
REMARK    8  A    between atoms: O_19  and  C_20
REMARK    9  A    between atoms: N_22  and  C_23
REMARK   10  A    between atoms: C_23  and  C_24
REMARK   11  A    between atoms: C_24  and  O_25
REMARK   12  A    between atoms: O_25  and  C_26
REMARK                            x       y       z     vdW  Elec       q    Type
REMARK                         _______ _______ _______ _____ _____    ______ ____
ROOT
ATOM      1  N   UNL     1       8.288   9.046  17.566  0.00  0.00    +0.000 N 
ATOM      2  C   UNL     1       7.815   7.768  17.796  0.00  0.00    +0.000 C 
ATOM      3  O   UNL     1       7.993   7.168  18.846  0.00  0.00    +0.000 OA
ATOM      4  N   UNL     1       7.054   7.325  16.734  0.00  0.00    +0.000 N 
ATOM      5  C   UNL     1       6.443   6.097  16.857  0.00  0.00    +0.000 A 
ATOM      6  N   UNL     1       6.784   5.102  16.070  0.00  0.00    +0.000 NA
ATOM      7  C   UNL     1       6.026   4.044  16.475  0.00  0.00    +0.000 A 
ATOM      8  C   UNL     1       5.082   4.407  17.421  0.00  0.00    +0.000 A 
ATOM      9  N   UNL     1       5.382   5.755  17.680  0.00  0.00    +0.000 N 
ATOM     10  H   UNL     1       7.900   9.552  16.784  0.00  0.00    +0.000 HD
ATOM     11  H   UNL     1       7.588   7.378  15.874  0.00  0.00    +0.000 HD
ENDROOT
BRANCH   8  12
ATOM     12  C   UNL     1       4.023   3.572  18.020  0.00  0.00    +0.000 A 
ATOM     13  C   UNL     1       3.085   2.874  17.243  0.00  0.00    +0.000 A 
ATOM     14  C   UNL     1       2.071   2.121  17.829  0.00  0.00    +0.000 A 
ATOM     15  C   UNL     1       2.015   1.989  19.209  0.00  0.00    +0.000 A 
ATOM     16  C   UNL     1       2.971   2.605  20.011  0.00  0.00    +0.000 A 
ATOM     17  C   UNL     1       3.963   3.401  19.419  0.00  0.00    +0.000 A 
BRANCH  16  18
ATOM     18  O   UNL     1       2.824   2.354  21.348  0.00  0.00    +0.000 OA
ATOM     19  C   UNL     1       1.526   2.529  21.898  0.00  0.00    +0.000 C 
ENDBRANCH  16  18
ENDBRANCH   8  12
BRANCH   1  20
ATOM     20  C   UNL     1       8.898   9.805  18.645  0.00  0.00    +0.000 C 
BRANCH  20  21
ATOM     21  C   UNL     1       9.098  11.268  18.258  0.00  0.00    +0.000 C 
BRANCH  21  22
ATOM     22  C   UNL     1       9.647  12.088  19.417  0.00  0.00    +0.000 C 
BRANCH  22  24
ATOM     23  C   UNL     1      11.005  13.391  17.993  0.00  0.00    +0.000 C 
ATOM     24  O   UNL     1       9.962  13.398  18.956  0.00  0.00    +0.000 OA
ENDBRANCH  22  24
ENDBRANCH  21  22
ENDBRANCH  20  21
ENDBRANCH   1  20
BRANCH   9  25
ATOM     25  C   UNL     1       4.595   6.608  18.561  0.00  0.00    +0.000 C 
BRANCH  25  26
ATOM     26  C   UNL     1       3.120   6.839  18.272  0.00  0.00    +0.000 C 
BRANCH  26  27
ATOM     27  O   UNL     1       2.434   7.366  19.413  0.00  0.00    +0.000 OA
ATOM     28  C   UNL     1       1.942   6.280  20.200  0.00  0.00    +0.000 C 
ENDBRANCH  26  27
ENDBRANCH  25  26
ENDBRANCH   9  25
TORSDOF 9
ENDMDL
MODEL 3
REMARK VINA RESULT:      -6.5      4.070      6.790
REMARK  Name = 
REMARK  12 active torsions:
REMARK  status: ('A' for Active; 'I' for Inactive)
REMARK    1  A    between atoms: C_1  and  O_2
REMARK    2  A    between atoms: O_2  and  C_3
REMARK    3  A    between atoms: C_3  and  C_4
REMARK    4  A    between atoms: C_4  and  C_5
REMARK    5  A    between atoms: C_5  and  N_6
REMARK    6  A    between atoms: C_13  and  C_14
REMARK    7  A    between atoms: C_18  and  O_19
REMARK    8  A    between atoms: O_19  and  C_20
REMARK    9  A    between atoms: N_22  and  C_23
REMARK   10  A    between atoms: C_23  and  C_24
REMARK   11  A    between atoms: C_24  and  O_25
REMARK   12  A    between atoms: O_25  and  C_26
REMARK                            x       y       z     vdW  Elec       q    Type
REMARK                         _______ _______ _______ _____ _____    ______ ____
ROOT
ATOM      1  N   UNL     1       6.974   3.602  13.827  0.00  0.00    +0.000 N 
ATOM      2  C   UNL     1       6.478   4.393  14.846  0.00  0.00    +0.000 C 
ATOM      3  O   UNL     1       5.942   5.475  14.652  0.00  0.00    +0.000 OA
ATOM      4  N   UNL     1       6.584   3.754  16.064  0.00  0.00    +0.000 N 
ATOM      5  C   UNL     1       6.051   4.388  17.164  0.00  0.00    +0.000 A 
ATOM      6  N   UNL     1       6.828   4.791  18.143  0.00  0.00    +0.000 NA
ATOM      7  C   UNL     1       5.999   5.397  19.039  0.00  0.00    +0.000 A 
ATOM      8  C   UNL     1       4.664   5.239  18.706  0.00  0.00    +0.000 A 
ATOM      9  N   UNL     1       4.713   4.593  17.459  0.00  0.00    +0.000 N 
ATOM     10  H   UNL     1       7.177   2.637  14.044  0.00  0.00    +0.000 HD
ATOM     11  H   UNL     1       7.547   3.484  16.235  0.00  0.00    +0.000 HD
ENDROOT
BRANCH   8  12
ATOM     12  C   UNL     1       3.476   5.660  19.475  0.00  0.00    +0.000 A 
ATOM     13  C   UNL     1       2.828   4.810  20.384  0.00  0.00    +0.000 A 
ATOM     14  C   UNL     1       1.687   5.214  21.071  0.00  0.00    +0.000 A 
ATOM     15  C   UNL     1       1.209   6.508  20.921  0.00  0.00    +0.000 A 
ATOM     16  C   UNL     1       1.868   7.406  20.085  0.00  0.00    +0.000 A 
ATOM     17  C   UNL     1       2.989   6.979  19.359  0.00  0.00    +0.000 A 
BRANCH  16  18
ATOM     18  O   UNL     1       1.317   8.658  20.067  0.00  0.00    +0.000 OA
ATOM     19  C   UNL     1       0.374   8.963  21.084  0.00  0.00    +0.000 C 
ENDBRANCH  16  18
ENDBRANCH   8  12
BRANCH   1  20
ATOM     20  C   UNL     1       6.738   3.962  12.440  0.00  0.00    +0.000 C 
BRANCH  20  21
ATOM     21  C   UNL     1       6.748   2.736  11.532  0.00  0.00    +0.000 C 
BRANCH  21  22
ATOM     22  C   UNL     1       5.343   2.202  11.290  0.00  0.00    +0.000 C 
BRANCH  22  24
ATOM     23  C   UNL     1       3.380   3.348  10.656  0.00  0.00    +0.000 C 
ATOM     24  O   UNL     1       4.394   3.205  11.639  0.00  0.00    +0.000 OA
ENDBRANCH  22  24
ENDBRANCH  21  22
ENDBRANCH  20  21
ENDBRANCH   1  20
BRANCH   9  25
ATOM     25  C   UNL     1       3.534   4.134  16.736  0.00  0.00    +0.000 C 
BRANCH  25  26
ATOM     26  C   UNL     1       2.555   3.185  17.407  0.00  0.00    +0.000 C 
BRANCH  26  27
ATOM     27  O   UNL     1       3.044   1.839  17.418  0.00  0.00    +0.000 OA
ATOM     28  C   UNL     1       3.618   1.565  18.697  0.00  0.00    +0.000 C 
ENDBRANCH  26  27
ENDBRANCH  25  26
ENDBRANCH   9  25
TORSDOF 9
ENDMDL
MODEL 4
REMARK VINA RESULT:      -6.4      5.317      9.072
REMARK  Name = 
REMARK  12 active torsions:
REMARK  status: ('A' for Active; 'I' for Inactive)
REMARK    1  A    between atoms: C_1  and  O_2
REMARK    2  A    between atoms: O_2  and  C_3
REMARK    3  A    between atoms: C_3  and  C_4
REMARK    4  A    between atoms: C_4  and  C_5
REMARK    5  A    between atoms: C_5  and  N_6
REMARK    6  A    between atoms: C_13  and  C_14
REMARK    7  A    between atoms: C_18  and  O_19
REMARK    8  A    between atoms: O_19  and  C_20
REMARK    9  A    between atoms: N_22  and  C_23
REMARK   10  A    between atoms: C_23  and  C_24
REMARK   11  A    between atoms: C_24  and  O_25
REMARK   12  A    between atoms: O_25  and  C_26
REMARK                            x       y       z     vdW  Elec       q    Type
REMARK                         _______ _______ _______ _____ _____    ______ ____
ROOT
ATOM      1  N   UNL     1       2.751   4.562  21.049  0.00  0.00    +0.000 N 
ATOM      2  C   UNL     1       1.999   5.518  20.393  0.00  0.00    +0.000 C 
ATOM      3  O   UNL     1       0.807   5.385  20.156  0.00  0.00    +0.000 OA
ATOM      4  N   UNL     1       2.747   6.650  20.142  0.00  0.00    +0.000 N 
ATOM      5  C   UNL     1       2.105   7.724  19.568  0.00  0.00    +0.000 A 
ATOM      6  N   UNL     1       2.440   8.136  18.366  0.00  0.00    +0.000 NA
ATOM      7  C   UNL     1       1.601   9.174  18.093  0.00  0.00    +0.000 A 
ATOM      8  C   UNL     1       0.833   9.530  19.188  0.00  0.00    +0.000 A 
ATOM      9  N   UNL     1       1.158   8.554  20.146  0.00  0.00    +0.000 N 
ATOM     10  H   UNL     1       3.649   4.846  21.412  0.00  0.00    +0.000 HD
ATOM     11  H   UNL     1       3.583   6.408  19.622  0.00  0.00    +0.000 HD
ENDROOT
BRANCH   8  12
ATOM     12  C   UNL     1      -0.109  10.660  19.314  0.00  0.00    +0.000 A 
ATOM     13  C   UNL     1       0.225  11.848  19.982  0.00  0.00    +0.000 A 
ATOM     14  C   UNL     1      -0.691  12.887  20.122  0.00  0.00    +0.000 A 
ATOM     15  C   UNL     1      -1.943  12.791  19.531  0.00  0.00    +0.000 A 
ATOM     16  C   UNL     1      -2.286  11.659  18.797  0.00  0.00    +0.000 A 
ATOM     17  C   UNL     1      -1.377  10.596  18.699  0.00  0.00    +0.000 A 
BRANCH  16  18
ATOM     18  O   UNL     1      -3.531  11.717  18.232  0.00  0.00    +0.000 OA
ATOM     19  C   UNL     1      -4.606  12.097  19.078  0.00  0.00    +0.000 C 
ENDBRANCH  16  18
ENDBRANCH   8  12
BRANCH   1  20
ATOM     20  C   UNL     1       2.107   3.398  21.633  0.00  0.00    +0.000 C 
BRANCH  20  21
ATOM     21  C   UNL     1       1.237   2.668  20.613  0.00  0.00    +0.000 C 
BRANCH  21  22
ATOM     22  C   UNL     1       2.077   1.900  19.602  0.00  0.00    +0.000 C 
BRANCH  22  24
ATOM     23  C   UNL     1       3.678   2.695  18.061  0.00  0.00    +0.000 C 
ATOM     24  O   UNL     1       2.319   2.729  18.469  0.00  0.00    +0.000 OA
ENDBRANCH  22  24
ENDBRANCH  21  22
ENDBRANCH  20  21
ENDBRANCH   1  20
BRANCH   9  25
ATOM     25  C   UNL     1       0.656   8.559  21.514  0.00  0.00    +0.000 C 
BRANCH  25  26
ATOM     26  C   UNL     1       1.406   9.322  22.593  0.00  0.00    +0.000 C 
BRANCH  26  27
ATOM     27  O   UNL     1       0.529   9.764  23.636  0.00  0.00    +0.000 OA
ATOM     28  C   UNL     1      -0.738  10.097  23.066  0.00  0.00    +0.000 C 
ENDBRANCH  26  27
ENDBRANCH  25  26
ENDBRANCH   9  25
TORSDOF 9
ENDMDL
MODEL 5
REMARK VINA RESULT:      -6.2      1.082      1.110
REMARK  Name = 
REMARK  12 active torsions:
REMARK  status: ('A' for Active; 'I' for Inactive)
REMARK    1  A    between atoms: C_1  and  O_2
REMARK    2  A    between atoms: O_2  and  C_3
REMARK    3  A    between atoms: C_3  and  C_4
REMARK    4  A    between atoms: C_4  and  C_5
REMARK    5  A    between atoms: C_5  and  N_6
REMARK    6  A    between atoms: C_13  and  C_14
REMARK    7  A    between atoms: C_18  and  O_19
REMARK    8  A    between atoms: O_19  and  C_20
REMARK    9  A    between atoms: N_22  and  C_23
REMARK   10  A    between atoms: C_23  and  C_24
REMARK   11  A    between atoms: C_24  and  O_25
REMARK   12  A    between atoms: O_25  and  C_26
REMARK                            x       y       z     vdW  Elec       q    Type
REMARK                         _______ _______ _______ _____ _____    ______ ____
ROOT
ATOM      1  N   UNL     1       8.065   8.655  17.638  0.00  0.00    +0.000 N 
ATOM      2  C   UNL     1       7.535   7.387  17.791  0.00  0.00    +0.000 C 
ATOM      3  O   UNL     1       7.738   6.692  18.776  0.00  0.00    +0.000 OA
ATOM      4  N   UNL     1       6.690   7.075  16.745  0.00  0.00    +0.000 N 
ATOM      5  C   UNL     1       6.020   5.874  16.805  0.00  0.00    +0.000 A 
ATOM      6  N   UNL     1       6.258   4.933  15.920  0.00  0.00    +0.000 NA
ATOM      7  C   UNL     1       5.467   3.885  16.283  0.00  0.00    +0.000 A 
ATOM      8  C   UNL     1       4.600   4.214  17.312  0.00  0.00    +0.000 A 
ATOM      9  N   UNL     1       4.990   5.519  17.661  0.00  0.00    +0.000 N 
ATOM     10  H   UNL     1       7.661   9.244  16.925  0.00  0.00    +0.000 HD
ATOM     11  H   UNL     1       7.176   7.174  15.861  0.00  0.00    +0.000 HD
ENDROOT
BRANCH   8  12
ATOM     12  C   UNL     1       3.532   3.387  17.905  0.00  0.00    +0.000 A 
ATOM     13  C   UNL     1       2.699   2.564  17.131  0.00  0.00    +0.000 A 
ATOM     14  C   UNL     1       1.673   1.820  17.705  0.00  0.00    +0.000 A 
ATOM     15  C   UNL     1       1.502   1.823  19.083  0.00  0.00    +0.000 A 
ATOM     16  C   UNL     1       2.356   2.567  19.893  0.00  0.00    +0.000 A 
ATOM     17  C   UNL     1       3.358   3.352  19.304  0.00  0.00    +0.000 A 
BRANCH  16  18
ATOM     18  O   UNL     1       2.103   2.442  21.232  0.00  0.00    +0.000 OA
ATOM     19  C   UNL     1       2.300   3.597  22.035  0.00  0.00    +0.000 C 
ENDBRANCH  16  18
ENDBRANCH   8  12
BRANCH   1  20
ATOM     20  C   UNL     1       8.777   9.287  18.735  0.00  0.00    +0.000 C 
BRANCH  20  21
ATOM     21  C   UNL     1       9.278  10.676  18.352  0.00  0.00    +0.000 C 
BRANCH  21  22
ATOM     22  C   UNL     1       9.994  11.357  19.509  0.00  0.00    +0.000 C 
BRANCH  22  24
ATOM     23  C   UNL     1       9.007  11.943  21.572  0.00  0.00    +0.000 C 
ATOM     24  O   UNL     1       9.452  10.884  20.739  0.00  0.00    +0.000 OA
ENDBRANCH  22  24
ENDBRANCH  21  22
ENDBRANCH  20  21
ENDBRANCH   1  20
BRANCH   9  25
ATOM     25  C   UNL     1       4.303   6.332  18.656  0.00  0.00    +0.000 C 
BRANCH  25  26
ATOM     26  C   UNL     1       2.923   6.892  18.355  0.00  0.00    +0.000 C 
BRANCH  26  27
ATOM     27  O   UNL     1       2.994   8.075  17.551  0.00  0.00    +0.000 OA
ATOM     28  C   UNL     1       1.941   8.960  17.935  0.00  0.00    +0.000 C 
ENDBRANCH  26  27
ENDBRANCH  25  26
ENDBRANCH   9  25
TORSDOF 9
ENDMDL
MODEL 6
REMARK VINA RESULT:      -6.2      5.116      8.842
REMARK  Name = 
REMARK  12 active torsions:
REMARK  status: ('A' for Active; 'I' for Inactive)
REMARK    1  A    between atoms: C_1  and  O_2
REMARK    2  A    between atoms: O_2  and  C_3
REMARK    3  A    between atoms: C_3  and  C_4
REMARK    4  A    between atoms: C_4  and  C_5
REMARK    5  A    between atoms: C_5  and  N_6
REMARK    6  A    between atoms: C_13  and  C_14
REMARK    7  A    between atoms: C_18  and  O_19
REMARK    8  A    between atoms: O_19  and  C_20
REMARK    9  A    between atoms: N_22  and  C_23
REMARK   10  A    between atoms: C_23  and  C_24
REMARK   11  A    between atoms: C_24  and  O_25
REMARK   12  A    between atoms: O_25  and  C_26
REMARK                            x       y       z     vdW  Elec       q    Type
REMARK                         _______ _______ _______ _____ _____    ______ ____
ROOT
ATOM      1  N   UNL     1       3.007   4.410  20.632  0.00  0.00    +0.000 N 
ATOM      2  C   UNL     1       2.260   5.393  20.007  0.00  0.00    +0.000 C 
ATOM      3  O   UNL     1       1.075   5.261  19.736  0.00  0.00    +0.000 OA
ATOM      4  N   UNL     1       3.004   6.541  19.832  0.00  0.00    +0.000 N 
ATOM      5  C   UNL     1       2.365   7.638  19.298  0.00  0.00    +0.000 A 
ATOM      6  N   UNL     1       2.723   8.113  18.127  0.00  0.00    +0.000 NA
ATOM      7  C   UNL     1       1.882   9.157  17.886  0.00  0.00    +0.000 A 
ATOM      8  C   UNL     1       1.085   9.451  18.980  0.00  0.00    +0.000 A 
ATOM      9  N   UNL     1       1.398   8.430  19.894  0.00  0.00    +0.000 N 
ATOM     10  H   UNL     1       3.893   4.683  21.031  0.00  0.00    +0.000 HD
ATOM     11  H   UNL     1       3.854   6.333  19.320  0.00  0.00    +0.000 HD
ENDROOT
BRANCH   8  12
ATOM     12  C   UNL     1       0.130  10.564  19.141  0.00  0.00    +0.000 A 
ATOM     13  C   UNL     1      -1.240  10.425  18.870  0.00  0.00    +0.000 A 
ATOM     14  C   UNL     1      -2.119  11.497  18.993  0.00  0.00    +0.000 A 
ATOM     15  C   UNL     1      -1.660  12.720  19.461  0.00  0.00    +0.000 A 
ATOM     16  C   UNL     1      -0.322  12.878  19.812  0.00  0.00    +0.000 A 
ATOM     17  C   UNL     1       0.569  11.807  19.642  0.00  0.00    +0.000 A 
BRANCH  16  18
ATOM     18  O   UNL     1      -0.016  14.118  20.302  0.00  0.00    +0.000 OA
ATOM     19  C   UNL     1       1.161  14.736  19.803  0.00  0.00    +0.000 C 
ENDBRANCH  16  18
ENDBRANCH   8  12
BRANCH   1  20
ATOM     20  C   UNL     1       2.360   3.213  21.141  0.00  0.00    +0.000 C 
BRANCH  20  21
ATOM     21  C   UNL     1       2.373   2.088  20.111  0.00  0.00    +0.000 C 
BRANCH  21  22
ATOM     22  C   UNL     1       3.723   1.973  19.418  0.00  0.00    +0.000 C 
BRANCH  22  24
ATOM     23  C   UNL     1       2.561   2.587  17.459  0.00  0.00    +0.000 C 
ATOM     24  O   UNL     1       3.722   2.787  18.250  0.00  0.00    +0.000 OA
ENDBRANCH  22  24
ENDBRANCH  21  22
ENDBRANCH  20  21
ENDBRANCH   1  20
BRANCH   9  25
ATOM     25  C   UNL     1       0.864   8.361  21.249  0.00  0.00    +0.000 C 
BRANCH  25  26
ATOM     26  C   UNL     1       1.521   9.157  22.364  0.00  0.00    +0.000 C 
BRANCH  26  27
ATOM     27  O   UNL     1       0.690  10.236  22.807  0.00  0.00    +0.000 OA
ATOM     28  C   UNL     1      -0.668   9.794  22.831  0.00  0.00    +0.000 C 
ENDBRANCH  26  27
ENDBRANCH  25  26
ENDBRANCH   9  25
TORSDOF 9
ENDMDL
MODEL 7
REMARK VINA RESULT:      -6.2      3.320      7.093
REMARK  Name = 
REMARK  12 active torsions:
REMARK  status: ('A' for Active; 'I' for Inactive)
REMARK    1  A    between atoms: C_1  and  O_2
REMARK    2  A    between atoms: O_2  and  C_3
REMARK    3  A    between atoms: C_3  and  C_4
REMARK    4  A    between atoms: C_4  and  C_5
REMARK    5  A    between atoms: C_5  and  N_6
REMARK    6  A    between atoms: C_13  and  C_14
REMARK    7  A    between atoms: C_18  and  O_19
REMARK    8  A    between atoms: O_19  and  C_20
REMARK    9  A    between atoms: N_22  and  C_23
REMARK   10  A    between atoms: C_23  and  C_24
REMARK   11  A    between atoms: C_24  and  O_25
REMARK   12  A    between atoms: O_25  and  C_26
REMARK                            x       y       z     vdW  Elec       q    Type
REMARK                         _______ _______ _______ _____ _____    ______ ____
ROOT
ATOM      1  N   UNL     1       2.411   7.181  20.343  0.00  0.00    +0.000 N 
ATOM      2  C   UNL     1       2.649   6.531  19.146  0.00  0.00    +0.000 C 
ATOM      3  O   UNL     1       2.098   6.837  18.098  0.00  0.00    +0.000 OA
ATOM      4  N   UNL     1       3.640   5.581  19.288  0.00  0.00    +0.000 N 
ATOM      5  C   UNL     1       4.044   4.910  18.157  0.00  0.00    +0.000 A 
ATOM      6  N   UNL     1       3.848   3.616  18.044  0.00  0.00    +0.000 NA
ATOM      7  C   UNL     1       4.327   3.283  16.812  0.00  0.00    +0.000 A 
ATOM      8  C   UNL     1       4.977   4.341  16.199  0.00  0.00    +0.000 A 
ATOM      9  N   UNL     1       4.765   5.411  17.084  0.00  0.00    +0.000 N 
ATOM     10  H   UNL     1       3.071   7.031  21.093  0.00  0.00    +0.000 HD
ATOM     11  H   UNL     1       3.398   4.931  20.028  0.00  0.00    +0.000 HD
ENDROOT
BRANCH   8  12
ATOM     12  C   UNL     1       5.708   4.343  14.916  0.00  0.00    +0.000 A 
ATOM     13  C   UNL     1       7.037   4.780  14.808  0.00  0.00    +0.000 A 
ATOM     14  C   UNL     1       7.697   4.809  13.583  0.00  0.00    +0.000 A 
ATOM     15  C   UNL     1       7.064   4.330  12.444  0.00  0.00    +0.000 A 
ATOM     16  C   UNL     1       5.772   3.819  12.523  0.00  0.00    +0.000 A 
ATOM     17  C   UNL     1       5.095   3.835  13.752  0.00  0.00    +0.000 A 
BRANCH  16  18
ATOM     18  O   UNL     1       5.288   3.339  11.337  0.00  0.00    +0.000 OA
ATOM     19  C   UNL     1       3.901   3.043  11.278  0.00  0.00    +0.000 C 
ENDBRANCH  16  18
ENDBRANCH   8  12
BRANCH   1  20
ATOM     20  C   UNL     1       1.594   8.382  20.373  0.00  0.00    +0.000 C 
BRANCH  20  21
ATOM     21  C   UNL     1       0.926   8.571  21.732  0.00  0.00    +0.000 C 
BRANCH  21  22
ATOM     22  C   UNL     1      -0.267   9.513  21.647  0.00  0.00    +0.000 C 
BRANCH  22  24
ATOM     23  C   UNL     1      -0.637  11.367  20.235  0.00  0.00    +0.000 C 
ATOM     24  O   UNL     1      -0.412   9.968  20.305  0.00  0.00    +0.000 OA
ENDBRANCH  22  24
ENDBRANCH  21  22
ENDBRANCH  20  21
ENDBRANCH   1  20
BRANCH   9  25
ATOM     25  C   UNL     1       5.341   6.738  16.907  0.00  0.00    +0.000 C 
BRANCH  25  26
ATOM     26  C   UNL     1       6.695   7.063  17.515  0.00  0.00    +0.000 C 
BRANCH  26  27
ATOM     27  O   UNL     1       7.089   8.412  17.241  0.00  0.00    +0.000 OA
ATOM     28  C   UNL     1       8.252   8.721  18.010  0.00  0.00    +0.000 C 
ENDBRANCH  26  27
ENDBRANCH  25  26
ENDBRANCH   9  25
TORSDOF 9
ENDMDL
MODEL 8
REMARK VINA RESULT:      -6.1      4.137      7.255
REMARK  Name = 
REMARK  12 active torsions:
REMARK  status: ('A' for Active; 'I' for Inactive)
REMARK    1  A    between atoms: C_1  and  O_2
REMARK    2  A    between atoms: O_2  and  C_3
REMARK    3  A    between atoms: C_3  and  C_4
REMARK    4  A    between atoms: C_4  and  C_5
REMARK    5  A    between atoms: C_5  and  N_6
REMARK    6  A    between atoms: C_13  and  C_14
REMARK    7  A    between atoms: C_18  and  O_19
REMARK    8  A    between atoms: O_19  and  C_20
REMARK    9  A    between atoms: N_22  and  C_23
REMARK   10  A    between atoms: C_23  and  C_24
REMARK   11  A    between atoms: C_24  and  O_25
REMARK   12  A    between atoms: O_25  and  C_26
REMARK                            x       y       z     vdW  Elec       q    Type
REMARK                         _______ _______ _______ _____ _____    ______ ____
ROOT
ATOM      1  N   UNL     1       6.493   3.247  13.847  0.00  0.00    +0.000 N 
ATOM      2  C   UNL     1       6.098   4.132  14.833  0.00  0.00    +0.000 C 
ATOM      3  O   UNL     1       5.666   5.251  14.594  0.00  0.00    +0.000 OA
ATOM      4  N   UNL     1       6.168   3.545  16.080  0.00  0.00    +0.000 N 
ATOM      5  C   UNL     1       5.723   4.281  17.155  0.00  0.00    +0.000 A 
ATOM      6  N   UNL     1       6.558   4.654  18.099  0.00  0.00    +0.000 NA
ATOM      7  C   UNL     1       5.810   5.380  18.977  0.00  0.00    +0.000 A 
ATOM      8  C   UNL     1       4.460   5.338  18.676  0.00  0.00    +0.000 A 
ATOM      9  N   UNL     1       4.418   4.630  17.463  0.00  0.00    +0.000 N 
ATOM     10  H   UNL     1       6.605   2.279  14.109  0.00  0.00    +0.000 HD
ATOM     11  H   UNL     1       7.103   3.191  16.247  0.00  0.00    +0.000 HD
ENDROOT
BRANCH   8  12
ATOM     12  C   UNL     1       3.336   5.910  19.442  0.00  0.00    +0.000 A 
ATOM     13  C   UNL     1       2.721   5.225  20.502  0.00  0.00    +0.000 A 
ATOM     14  C   UNL     1       1.638   5.767  21.188  0.00  0.00    +0.000 A 
ATOM     15  C   UNL     1       1.189   7.043  20.878  0.00  0.00    +0.000 A 
ATOM     16  C   UNL     1       1.821   7.786  19.884  0.00  0.00    +0.000 A 
ATOM     17  C   UNL     1       2.881   7.216  19.164  0.00  0.00    +0.000 A 
BRANCH  16  18
ATOM     18  O   UNL     1       1.307   9.042  19.715  0.00  0.00    +0.000 OA
ATOM     19  C   UNL     1       1.233   9.535  18.385  0.00  0.00    +0.000 C 
ENDBRANCH  16  18
ENDBRANCH   8  12
BRANCH   1  20
ATOM     20  C   UNL     1       6.262   3.561  12.447  0.00  0.00    +0.000 C 
BRANCH  20  21
ATOM     21  C   UNL     1       5.626   2.389  11.707  0.00  0.00    +0.000 C 
BRANCH  21  22
ATOM     22  C   UNL     1       6.673   1.411  11.193  0.00  0.00    +0.000 C 
BRANCH  22  24
ATOM     23  C   UNL     1       6.073  -0.863  11.389  0.00  0.00    +0.000 C 
ATOM     24  O   UNL     1       6.020   0.303  10.581  0.00  0.00    +0.000 OA
ENDBRANCH  22  24
ENDBRANCH  21  22
ENDBRANCH  20  21
ENDBRANCH   1  20
BRANCH   9  25
ATOM     25  C   UNL     1       3.185   4.254  16.784  0.00  0.00    +0.000 C 
BRANCH  25  26
ATOM     26  C   UNL     1       2.209   3.304  17.457  0.00  0.00    +0.000 C 
BRANCH  26  27
ATOM     27  O   UNL     1       2.838   2.547  18.497  0.00  0.00    +0.000 OA
ATOM     28  C   UNL     1       3.579   1.477  17.909  0.00  0.00    +0.000 C 
ENDBRANCH  26  27
ENDBRANCH  25  26
ENDBRANCH   9  25
TORSDOF 9
ENDMDL
MODEL 9
REMARK VINA RESULT:      -6.1      1.330      1.480
REMARK  Name = 
REMARK  12 active torsions:
REMARK  status: ('A' for Active; 'I' for Inactive)
REMARK    1  A    between atoms: C_1  and  O_2
REMARK    2  A    between atoms: O_2  and  C_3
REMARK    3  A    between atoms: C_3  and  C_4
REMARK    4  A    between atoms: C_4  and  C_5
REMARK    5  A    between atoms: C_5  and  N_6
REMARK    6  A    between atoms: C_13  and  C_14
REMARK    7  A    between atoms: C_18  and  O_19
REMARK    8  A    between atoms: O_19  and  C_20
REMARK    9  A    between atoms: N_22  and  C_23
REMARK   10  A    between atoms: C_23  and  C_24
REMARK   11  A    between atoms: C_24  and  O_25
REMARK   12  A    between atoms: O_25  and  C_26
REMARK                            x       y       z     vdW  Elec       q    Type
REMARK                         _______ _______ _______ _____ _____    ______ ____
ROOT
ATOM      1  N   UNL     1       8.386   9.114  17.605  0.00  0.00    +0.000 N 
ATOM      2  C   UNL     1       7.926   7.825  17.801  0.00  0.00    +0.000 C 
ATOM      3  O   UNL     1       8.028   7.234  18.866  0.00  0.00    +0.000 OA
ATOM      4  N   UNL     1       7.269   7.360  16.681  0.00  0.00    +0.000 N 
ATOM      5  C   UNL     1       6.680   6.118  16.759  0.00  0.00    +0.000 A 
ATOM      6  N   UNL     1       7.110   5.129  16.009  0.00  0.00    +0.000 NA
ATOM      7  C   UNL     1       6.346   4.054  16.354  0.00  0.00    +0.000 A 
ATOM      8  C   UNL     1       5.317   4.397  17.214  0.00  0.00    +0.000 A 
ATOM      9  N   UNL     1       5.561   5.753  17.490  0.00  0.00    +0.000 N 
ATOM     10  H   UNL     1       8.053   9.608  16.790  0.00  0.00    +0.000 HD
ATOM     11  H   UNL     1       7.873   7.423  15.869  0.00  0.00    +0.000 HD
ENDROOT
BRANCH   8  12
ATOM     12  C   UNL     1       4.231   3.539  17.726  0.00  0.00    +0.000 A 
ATOM     13  C   UNL     1       4.321   2.138  17.741  0.00  0.00    +0.000 A 
ATOM     14  C   UNL     1       3.271   1.345  18.194  0.00  0.00    +0.000 A 
ATOM     15  C   UNL     1       2.129   1.938  18.714  0.00  0.00    +0.000 A 
ATOM     16  C   UNL     1       2.031   3.325  18.786  0.00  0.00    +0.000 A 
ATOM     17  C   UNL     1       3.073   4.120  18.285  0.00  0.00    +0.000 A 
BRANCH  16  18
ATOM     18  O   UNL     1       0.874   3.773  19.363  0.00  0.00    +0.000 OA
ATOM     19  C   UNL     1       1.001   4.546  20.548  0.00  0.00    +0.000 C 
ENDBRANCH  16  18
ENDBRANCH   8  12
BRANCH   1  20
ATOM     20  C   UNL     1       8.884   9.892  18.727  0.00  0.00    +0.000 C 
BRANCH  20  21
ATOM     21  C   UNL     1       9.717  11.081  18.260  0.00  0.00    +0.000 C 
BRANCH  21  22
ATOM     22  C   UNL     1       8.841  12.238  17.799  0.00  0.00    +0.000 C 
BRANCH  22  24
ATOM     23  C   UNL     1       8.883  14.534  18.343  0.00  0.00    +0.000 C 
ATOM     24  O   UNL     1       8.762  13.209  18.838  0.00  0.00    +0.000 OA
ENDBRANCH  22  24
ENDBRANCH  21  22
ENDBRANCH  20  21
ENDBRANCH   1  20
BRANCH   9  25
ATOM     25  C   UNL     1       4.681   6.589  18.297  0.00  0.00    +0.000 C 
BRANCH  25  26
ATOM     26  C   UNL     1       3.727   7.559  17.619  0.00  0.00    +0.000 C 
BRANCH  26  27
ATOM     27  O   UNL     1       2.444   7.572  18.255  0.00  0.00    +0.000 OA
ATOM     28  C   UNL     1       1.826   8.839  18.027  0.00  0.00    +0.000 C 
ENDBRANCH  26  27
ENDBRANCH  25  26
ENDBRANCH   9  25
TORSDOF 9
ENDMDL
