MODEL 1
REMARK VINA RESULT:      -7.2      0.000      0.000
REMARK  Name = 
REMARK  5 active torsions:
REMARK  status: ('A' for Active; 'I' for Inactive)
REMARK    1  A    between atoms: C_1  and  S_2
REMARK    2  A    between atoms: S_2  and  C_3
REMARK    3  A    between atoms: C_5  and  C_6
REMARK    4  A    between atoms: C_12  and  C_13
REMARK    5  A    between atoms: C_13  and  C_15
REMARK                            x       y       z     vdW  Elec       q    Type
REMARK                         _______ _______ _______ _____ _____    ______ ____
ROOT
ATOM      1  C   UNL     1       3.868   4.302  19.061  0.00  0.00    +0.000 A 
ATOM      2  C   UNL     1       2.780   5.185  19.269  0.00  0.00    +0.000 A 
ATOM      3  C   UNL     1       3.140   6.406  18.731  0.00  0.00    +0.000 A 
ATOM      4  O   UNL     1       4.386   6.290  18.181  0.00  0.00    +0.000 OA
ATOM      5  C   UNL     1       4.849   5.016  18.401  0.00  0.00    +0.000 A 
ENDROOT
BRANCH   3   6
ATOM      6  C   UNL     1       2.410   7.635  18.725  0.00  0.00    +0.000 A 
ATOM      7  C   UNL     1       2.276   8.548  17.691  0.00  0.00    +0.000 A 
ATOM      8  C   UNL     1       1.508   9.630  18.185  0.00  0.00    +0.000 A 
ATOM      9  C   UNL     1       1.205   9.314  19.486  0.00  0.00    +0.000 A 
ATOM     10  O   UNL     1       1.735   8.111  19.820  0.00  0.00    +0.000 OA
ENDBRANCH   3   6
BRANCH   1  12
ATOM     11  C   UNL     1       2.110   2.355  19.853  0.00  0.00    +0.000 C 
ATOM     12  S   UNL     1       3.875   2.635  19.583  0.00  0.00    +0.000 S 
ENDBRANCH   1  12
BRANCH   5  13
ATOM     13  C   UNL     1       6.157   4.656  17.890  0.00  0.00    +0.000 C 
ATOM     14  O   UNL     1       7.130   4.423  18.608  0.00  0.00    +0.000 OA
BRANCH  13  15
ATOM     15  C   UNL     1       6.236   4.583  16.439  0.00  0.00    +0.000 A 
ATOM     16  C   UNL     1       5.334   4.098  15.508  0.00  0.00    +0.000 A 
ATOM     17  C   UNL     1       5.939   4.243  14.236  0.00  0.00    +0.000 A 
ATOM     18  C   UNL     1       7.183   4.779  14.463  0.00  0.00    +0.000 A 
ATOM     19  O   UNL     1       7.376   4.983  15.789  0.00  0.00    +0.000 OA
ENDBRANCH  13  15
ENDBRANCH   5  13
TORSDOF 4
ENDMDL
MODEL 2
REMARK VINA RESULT:      -6.9      3.106      3.989
REMARK  Name = 
REMARK  5 active torsions:
REMARK  status: ('A' for Active; 'I' for Inactive)
REMARK    1  A    between atoms: C_1  and  S_2
REMARK    2  A    between atoms: S_2  and  C_3
REMARK    3  A    between atoms: C_5  and  C_6
REMARK    4  A    between atoms: C_12  and  C_13
REMARK    5  A    between atoms: C_13  and  C_15
REMARK                            x       y       z     vdW  Elec       q    Type
REMARK                         _______ _______ _______ _____ _____    ______ ____
ROOT
ATOM      1  C   UNL     1       5.951   4.727  17.947  0.00  0.00    +0.000 A 
ATOM      2  C   UNL     1       5.174   4.026  18.903  0.00  0.00    +0.000 A 
ATOM      3  C   UNL     1       3.859   4.091  18.484  0.00  0.00    +0.000 A 
ATOM      4  O   UNL     1       3.811   4.774  17.300  0.00  0.00    +0.000 OA
ATOM      5  C   UNL     1       5.080   5.188  16.979  0.00  0.00    +0.000 A 
ENDROOT
BRANCH   3   6
ATOM      6  C   UNL     1       2.686   3.580  19.123  0.00  0.00    +0.000 A 
ATOM      7  C   UNL     1       1.393   3.534  18.629  0.00  0.00    +0.000 A 
ATOM      8  C   UNL     1       0.574   2.994  19.651  0.00  0.00    +0.000 A 
ATOM      9  C   UNL     1       1.413   2.730  20.706  0.00  0.00    +0.000 A 
ATOM     10  O   UNL     1       2.690   3.070  20.396  0.00  0.00    +0.000 OA
ENDBRANCH   3   6
BRANCH   1  12
ATOM     11  C   UNL     1       7.809   6.697  18.369  0.00  0.00    +0.000 C 
ATOM     12  S   UNL     1       7.682   4.920  18.061  0.00  0.00    +0.000 S 
ENDBRANCH   1  12
BRANCH   5  13
ATOM     13  C   UNL     1       5.276   5.928  15.747  0.00  0.00    +0.000 C 
ATOM     14  O   UNL     1       5.009   7.123  15.619  0.00  0.00    +0.000 OA
BRANCH  13  15
ATOM     15  C   UNL     1       5.828   5.141  14.656  0.00  0.00    +0.000 A 
ATOM     16  C   UNL     1       5.325   4.034  13.994  0.00  0.00    +0.000 A 
ATOM     17  C   UNL     1       6.296   3.652  13.037  0.00  0.00    +0.000 A 
ATOM     18  C   UNL     1       7.346   4.525  13.186  0.00  0.00    +0.000 A 
ATOM     19  O   UNL     1       7.077   5.424  14.165  0.00  0.00    +0.000 OA
ENDBRANCH  13  15
ENDBRANCH   5  13
TORSDOF 4
ENDMDL
MODEL 3
REMARK VINA RESULT:      -6.9      2.558      4.419
REMARK  Name = 
REMARK  5 active torsions:
REMARK  status: ('A' for Active; 'I' for Inactive)
REMARK    1  A    between atoms: C_1  and  S_2
REMARK    2  A    between atoms: S_2  and  C_3
REMARK    3  A    between atoms: C_5  and  C_6
REMARK    4  A    between atoms: C_12  and  C_13
REMARK    5  A    between atoms: C_13  and  C_15
REMARK                            x       y       z     vdW  Elec       q    Type
REMARK                         _______ _______ _______ _____ _____    ______ ____
ROOT
ATOM      1  C   UNL     1       3.966   5.703  17.376  0.00  0.00    +0.000 A 
ATOM      2  C   UNL     1       3.820   7.100  17.572  0.00  0.00    +0.000 A 
ATOM      3  C   UNL     1       2.610   7.295  18.209  0.00  0.00    +0.000 A 
ATOM      4  O   UNL     1       2.033   6.076  18.434  0.00  0.00    +0.000 OA
ATOM      5  C   UNL     1       2.842   5.101  17.905  0.00  0.00    +0.000 A 
ENDROOT
BRANCH   3   6
ATOM      6  C   UNL     1       1.981   8.523  18.586  0.00  0.00    +0.000 A 
ATOM      7  C   UNL     1       1.884   9.696  17.855  0.00  0.00    +0.000 A 
ATOM      8  C   UNL     1       1.223  10.645  18.672  0.00  0.00    +0.000 A 
ATOM      9  C   UNL     1       0.944   9.998  19.850  0.00  0.00    +0.000 A 
ATOM     10  O   UNL     1       1.387   8.716  19.807  0.00  0.00    +0.000 OA
ENDBRANCH   3   6
BRANCH   1  12
ATOM     11  C   UNL     1       6.377   4.576  18.028  0.00  0.00    +0.000 C 
ATOM     12  S   UNL     1       5.349   4.975  16.596  0.00  0.00    +0.000 S 
ENDBRANCH   1  12
BRANCH   5  13
ATOM     13  C   UNL     1       2.433   3.716  18.037  0.00  0.00    +0.000 C 
ATOM     14  O   UNL     1       2.310   2.947  17.084  0.00  0.00    +0.000 OA
BRANCH  13  15
ATOM     15  C   UNL     1       2.183   3.292  19.406  0.00  0.00    +0.000 A 
ATOM     16  C   UNL     1       0.999   3.165  20.111  0.00  0.00    +0.000 A 
ATOM     17  C   UNL     1       1.343   2.746  21.419  0.00  0.00    +0.000 A 
ATOM     18  C   UNL     1       2.714   2.669  21.448  0.00  0.00    +0.000 A 
ATOM     19  O   UNL     1       3.232   3.002  20.240  0.00  0.00    +0.000 OA
ENDBRANCH  13  15
ENDBRANCH   5  13
TORSDOF 4
ENDMDL
MODEL 4
REMARK VINA RESULT:      -6.9      2.980      6.248
REMARK  Name = 
REMARK  5 active torsions:
REMARK  status: ('A' for Active; 'I' for Inactive)
REMARK    1  A    between atoms: C_1  and  S_2
REMARK    2  A    between atoms: S_2  and  C_3
REMARK    3  A    between atoms: C_5  and  C_6
REMARK    4  A    between atoms: C_12  and  C_13
REMARK    5  A    between atoms: C_13  and  C_15
REMARK                            x       y       z     vdW  Elec       q    Type
REMARK                         _______ _______ _______ _____ _____    ______ ____
ROOT
ATOM      1  C   UNL     1       6.802   5.339  17.287  0.00  0.00    +0.000 A 
ATOM      2  C   UNL     1       7.126   5.393  15.909  0.00  0.00    +0.000 A 
ATOM      3  C   UNL     1       6.313   4.480  15.265  0.00  0.00    +0.000 A 
ATOM      4  O   UNL     1       5.490   3.900  16.189  0.00  0.00    +0.000 OA
ATOM      5  C   UNL     1       5.799   4.400  17.431  0.00  0.00    +0.000 A 
ENDROOT
BRANCH   3   6
ATOM      6  C   UNL     1       6.283   4.124  13.881  0.00  0.00    +0.000 A 
ATOM      7  C   UNL     1       5.315   3.402  13.201  0.00  0.00    +0.000 A 
ATOM      8  C   UNL     1       5.759   3.260  11.864  0.00  0.00    +0.000 A 
ATOM      9  C   UNL     1       6.966   3.912  11.797  0.00  0.00    +0.000 A 
ATOM     10  O   UNL     1       7.287   4.445  13.003  0.00  0.00    +0.000 OA
ENDBRANCH   3   6
BRANCH   1  12
ATOM     11  C   UNL     1       7.724   7.896  17.634  0.00  0.00    +0.000 C 
ATOM     12  S   UNL     1       7.582   6.318  18.504  0.00  0.00    +0.000 S 
ENDBRANCH   1  12
BRANCH   5  13
ATOM     13  C   UNL     1       5.039   3.933  18.574  0.00  0.00    +0.000 C 
ATOM     14  O   UNL     1       5.545   3.652  19.660  0.00  0.00    +0.000 OA
BRANCH  13  15
ATOM     15  C   UNL     1       3.607   3.828  18.340  0.00  0.00    +0.000 A 
ATOM     16  C   UNL     1       2.671   4.792  18.011  0.00  0.00    +0.000 A 
ATOM     17  C   UNL     1       1.417   4.139  17.937  0.00  0.00    +0.000 A 
ATOM     18  C   UNL     1       1.652   2.823  18.253  0.00  0.00    +0.000 A 
ATOM     19  O   UNL     1       2.969   2.624  18.504  0.00  0.00    +0.000 OA
ENDBRANCH  13  15
ENDBRANCH   5  13
TORSDOF 4
ENDMDL
MODEL 5
REMARK VINA RESULT:      -6.8      2.131      5.954
REMARK  Name = 
REMARK  5 active torsions:
REMARK  status: ('A' for Active; 'I' for Inactive)
REMARK    1  A    between atoms: C_1  and  S_2
REMARK    2  A    between atoms: S_2  and  C_3
REMARK    3  A    between atoms: C_5  and  C_6
REMARK    4  A    between atoms: C_12  and  C_13
REMARK    5  A    between atoms: C_13  and  C_15
REMARK                            x       y       z     vdW  Elec       q    Type
REMARK                         _______ _______ _______ _____ _____    ______ ____
ROOT
ATOM      1  C   UNL     1       3.986   5.533  18.013  0.00  0.00    +0.000 A 
ATOM      2  C   UNL     1       4.473   5.908  16.736  0.00  0.00    +0.000 A 
ATOM      3  C   UNL     1       5.251   4.863  16.276  0.00  0.00    +0.000 A 
ATOM      4  O   UNL     1       5.229   3.860  17.205  0.00  0.00    +0.000 OA
ATOM      5  C   UNL     1       4.480   4.272  18.280  0.00  0.00    +0.000 A 
ENDROOT
BRANCH   3   6
ATOM      6  C   UNL     1       6.001   4.768  15.063  0.00  0.00    +0.000 A 
ATOM      7  C   UNL     1       5.718   4.012  13.936  0.00  0.00    +0.000 A 
ATOM      8  C   UNL     1       6.784   4.206  13.024  0.00  0.00    +0.000 A 
ATOM      9  C   UNL     1       7.651   5.076  13.636  0.00  0.00    +0.000 A 
ATOM     10  O   UNL     1       7.186   5.429  14.861  0.00  0.00    +0.000 OA
ENDBRANCH   3   6
BRANCH   1  12
ATOM     11  C   UNL     1       2.795   8.000  17.926  0.00  0.00    +0.000 C 
ATOM     12  S   UNL     1       2.956   6.549  18.992  0.00  0.00    +0.000 S 
ENDBRANCH   1  12
BRANCH   5  13
ATOM     13  C   UNL     1       4.306   3.359  19.393  0.00  0.00    +0.000 C 
ATOM     14  O   UNL     1       5.234   2.755  19.932  0.00  0.00    +0.000 OA
BRANCH  13  15
ATOM     15  C   UNL     1       2.929   3.211  19.839  0.00  0.00    +0.000 A 
ATOM     16  C   UNL     1       2.379   3.265  21.107  0.00  0.00    +0.000 A 
ATOM     17  C   UNL     1       0.991   3.021  20.963  0.00  0.00    +0.000 A 
ATOM     18  C   UNL     1       0.778   2.803  19.624  0.00  0.00    +0.000 A 
ATOM     19  O   UNL     1       1.941   2.910  18.936  0.00  0.00    +0.000 OA
ENDBRANCH  13  15
ENDBRANCH   5  13
TORSDOF 4
ENDMDL
MODEL 6
REMARK VINA RESULT:      -6.8      2.963      4.456
REMARK  Name = 
REMARK  5 active torsions:
REMARK  status: ('A' for Active; 'I' for Inactive)
REMARK    1  A    between atoms: C_1  and  S_2
REMARK    2  A    between atoms: S_2  and  C_3
REMARK    3  A    between atoms: C_5  and  C_6
REMARK    4  A    between atoms: C_12  and  C_13
REMARK    5  A    between atoms: C_13  and  C_15
REMARK                            x       y       z     vdW  Elec       q    Type
REMARK                         _______ _______ _______ _____ _____    ______ ____
ROOT
ATOM      1  C   UNL     1       5.046   4.899  16.893  0.00  0.00    +0.000 A 
ATOM      2  C   UNL     1       3.778   4.530  17.406  0.00  0.00    +0.000 A 
ATOM      3  C   UNL     1       3.937   4.308  18.760  0.00  0.00    +0.000 A 
ATOM      4  O   UNL     1       5.239   4.558  19.093  0.00  0.00    +0.000 OA
ATOM      5  C   UNL     1       5.929   4.895  17.954  0.00  0.00    +0.000 A 
ENDROOT
BRANCH   3   6
ATOM      6  C   UNL     1       2.970   3.872  19.719  0.00  0.00    +0.000 A 
ATOM      7  C   UNL     1       1.815   4.519  20.127  0.00  0.00    +0.000 A 
ATOM      8  C   UNL     1       1.220   3.718  21.133  0.00  0.00    +0.000 A 
ATOM      9  C   UNL     1       2.036   2.623  21.274  0.00  0.00    +0.000 A 
ATOM     10  O   UNL     1       3.089   2.699  20.421  0.00  0.00    +0.000 OA
ENDBRANCH   3   6
BRANCH   1  12
ATOM     11  C   UNL     1       6.377   3.874  14.728  0.00  0.00    +0.000 C 
ATOM     12  S   UNL     1       5.339   5.272  15.212  0.00  0.00    +0.000 S 
ENDBRANCH   1  12
BRANCH   5  13
ATOM     13  C   UNL     1       7.339   5.216  18.068  0.00  0.00    +0.000 C 
ATOM     14  O   UNL     1       8.228   4.369  18.148  0.00  0.00    +0.000 OA
BRANCH  13  15
ATOM     15  C   UNL     1       7.630   6.641  18.074  0.00  0.00    +0.000 A 
ATOM     16  C   UNL     1       7.198   7.656  17.238  0.00  0.00    +0.000 A 
ATOM     17  C   UNL     1       7.820   8.848  17.683  0.00  0.00    +0.000 A 
ATOM     18  C   UNL     1       8.617   8.490  18.743  0.00  0.00    +0.000 A 
ATOM     19  O   UNL     1       8.515   7.160  18.984  0.00  0.00    +0.000 OA
ENDBRANCH  13  15
ENDBRANCH   5  13
TORSDOF 4
ENDMDL
MODEL 7
REMARK VINA RESULT:      -6.8      2.070      2.686
REMARK  Name = 
REMARK  5 active torsions:
REMARK  status: ('A' for Active; 'I' for Inactive)
REMARK    1  A    between atoms: C_1  and  S_2
REMARK    2  A    between atoms: S_2  and  C_3
REMARK    3  A    between atoms: C_5  and  C_6
REMARK    4  A    between atoms: C_12  and  C_13
REMARK    5  A    between atoms: C_13  and  C_15
REMARK                            x       y       z     vdW  Elec       q    Type
REMARK                         _______ _______ _______ _____ _____    ______ ____
ROOT
ATOM      1  C   UNL     1       2.835   4.511  19.953  0.00  0.00    +0.000 A 
ATOM      2  C   UNL     1       1.949   5.443  20.549  0.00  0.00    +0.000 A 
ATOM      3  C   UNL     1       2.212   6.674  19.978  0.00  0.00    +0.000 A 
ATOM      4  O   UNL     1       3.195   6.520  19.041  0.00  0.00    +0.000 OA
ATOM      5  C   UNL     1       3.600   5.207  19.038  0.00  0.00    +0.000 A 
ENDROOT
BRANCH   3   6
ATOM      6  C   UNL     1       1.622   7.943  20.269  0.00  0.00    +0.000 A 
ATOM      7  C   UNL     1       1.124   8.400  21.478  0.00  0.00    +0.000 A 
ATOM      8  C   UNL     1       0.594   9.694  21.251  0.00  0.00    +0.000 A 
ATOM      9  C   UNL     1       0.808   9.960  19.922  0.00  0.00    +0.000 A 
ATOM     10  O   UNL     1       1.435   8.917  19.321  0.00  0.00    +0.000 OA
ENDBRANCH   3   6
BRANCH   1  12
ATOM     11  C   UNL     1       1.543   2.727  21.584  0.00  0.00    +0.000 C 
ATOM     12  S   UNL     1       2.877   2.815  20.368  0.00  0.00    +0.000 S 
ENDBRANCH   1  12
BRANCH   5  13
ATOM     13  C   UNL     1       4.636   4.804  18.107  0.00  0.00    +0.000 C 
ATOM     14  O   UNL     1       4.463   3.979  17.210  0.00  0.00    +0.000 OA
BRANCH  13  15
ATOM     15  C   UNL     1       5.915   5.465  18.310  0.00  0.00    +0.000 A 
ATOM     16  C   UNL     1       6.538   6.471  17.593  0.00  0.00    +0.000 A 
ATOM     17  C   UNL     1       7.786   6.709  18.217  0.00  0.00    +0.000 A 
ATOM     18  C   UNL     1       7.870   5.818  19.259  0.00  0.00    +0.000 A 
ATOM     19  O   UNL     1       6.748   5.057  19.321  0.00  0.00    +0.000 OA
ENDBRANCH  13  15
ENDBRANCH   5  13
TORSDOF 4
ENDMDL
MODEL 8
REMARK VINA RESULT:      -6.8      2.148      3.936
REMARK  Name = 
REMARK  5 active torsions:
REMARK  status: ('A' for Active; 'I' for Inactive)
REMARK    1  A    between atoms: C_1  and  S_2
REMARK    2  A    between atoms: S_2  and  C_3
REMARK    3  A    between atoms: C_5  and  C_6
REMARK    4  A    between atoms: C_12  and  C_13
REMARK    5  A    between atoms: C_13  and  C_15
REMARK                            x       y       z     vdW  Elec       q    Type
REMARK                         _______ _______ _______ _____ _____    ______ ____
ROOT
ATOM      1  C   UNL     1       4.482   5.894  17.968  0.00  0.00    +0.000 A 
ATOM      2  C   UNL     1       3.398   5.579  18.825  0.00  0.00    +0.000 A 
ATOM      3  C   UNL     1       3.679   4.353  19.399  0.00  0.00    +0.000 A 
ATOM      4  O   UNL     1       4.898   3.930  18.950  0.00  0.00    +0.000 OA
ATOM      5  C   UNL     1       5.384   4.852  18.056  0.00  0.00    +0.000 A 
ENDROOT
BRANCH   3   6
ATOM      6  C   UNL     1       2.881   3.580  20.298  0.00  0.00    +0.000 A 
ATOM      7  C   UNL     1       1.546   3.753  20.627  0.00  0.00    +0.000 A 
ATOM      8  C   UNL     1       1.224   2.776  21.600  0.00  0.00    +0.000 A 
ATOM      9  C   UNL     1       2.373   2.053  21.803  0.00  0.00    +0.000 A 
ATOM     10  O   UNL     1       3.376   2.522  21.017  0.00  0.00    +0.000 OA
ENDBRANCH   3   6
BRANCH   1  12
ATOM     11  C   UNL     1       3.073   8.210  17.563  0.00  0.00    +0.000 C 
ATOM     12  S   UNL     1       4.569   7.355  17.016  0.00  0.00    +0.000 S 
ENDBRANCH   1  12
BRANCH   5  13
ATOM     13  C   UNL     1       6.683   4.616  17.455  0.00  0.00    +0.000 C 
ATOM     14  O   UNL     1       7.722   4.494  18.103  0.00  0.00    +0.000 OA
BRANCH  13  15
ATOM     15  C   UNL     1       6.664   4.525  16.004  0.00  0.00    +0.000 A 
ATOM     16  C   UNL     1       5.911   3.730  15.157  0.00  0.00    +0.000 A 
ATOM     17  C   UNL     1       6.325   4.030  13.836  0.00  0.00    +0.000 A 
ATOM     18  C   UNL     1       7.324   4.966  13.951  0.00  0.00    +0.000 A 
ATOM     19  O   UNL     1       7.541   5.268  15.255  0.00  0.00    +0.000 OA
ENDBRANCH  13  15
ENDBRANCH   5  13
TORSDOF 4
ENDMDL
MODEL 9
REMARK VINA RESULT:      -6.7      0.944      1.134
REMARK  Name = 
REMARK  5 active torsions:
REMARK  status: ('A' for Active; 'I' for Inactive)
REMARK    1  A    between atoms: C_1  and  S_2
REMARK    2  A    between atoms: S_2  and  C_3
REMARK    3  A    between atoms: C_5  and  C_6
REMARK    4  A    between atoms: C_12  and  C_13
REMARK    5  A    between atoms: C_13  and  C_15
REMARK                            x       y       z     vdW  Elec       q    Type
REMARK                         _______ _______ _______ _____ _____    ______ ____
ROOT
ATOM      1  C   UNL     1       3.399   4.529  19.426  0.00  0.00    +0.000 A 
ATOM      2  C   UNL     1       2.317   5.441  19.510  0.00  0.00    +0.000 A 
ATOM      3  C   UNL     1       2.764   6.646  19.001  0.00  0.00    +0.000 A 
ATOM      4  O   UNL     1       4.057   6.493  18.586  0.00  0.00    +0.000 OA
ATOM      5  C   UNL     1       4.461   5.210  18.866  0.00  0.00    +0.000 A 
ENDROOT
BRANCH   3   6
ATOM      6  C   UNL     1       2.070   7.892  18.907  0.00  0.00    +0.000 A 
ATOM      7  C   UNL     1       1.899   8.696  17.791  0.00  0.00    +0.000 A 
ATOM      8  C   UNL     1       1.193   9.850  18.211  0.00  0.00    +0.000 A 
ATOM      9  C   UNL     1       0.962   9.683  19.554  0.00  0.00    +0.000 A 
ATOM     10  O   UNL     1       1.477   8.503  19.983  0.00  0.00    +0.000 OA
ENDBRANCH   3   6
BRANCH   1  12
ATOM     11  C   UNL     1       3.340   1.997  18.379  0.00  0.00    +0.000 C 
ATOM     12  S   UNL     1       3.308   2.869  19.962  0.00  0.00    +0.000 S 
ENDBRANCH   1  12
BRANCH   5  13
ATOM     13  C   UNL     1       5.807   4.813  18.498  0.00  0.00    +0.000 C 
ATOM     14  O   UNL     1       6.711   4.631  19.314  0.00  0.00    +0.000 OA
BRANCH  13  15
ATOM     15  C   UNL     1       6.010   4.634  17.069  0.00  0.00    +0.000 A 
ATOM     16  C   UNL     1       7.162   4.699  16.305  0.00  0.00    +0.000 A 
ATOM     17  C   UNL     1       6.776   4.477  14.961  0.00  0.00    +0.000 A 
ATOM     18  C   UNL     1       5.411   4.319  14.975  0.00  0.00    +0.000 A 
ATOM     19  O   UNL     1       4.938   4.418  16.242  0.00  0.00    +0.000 OA
ENDBRANCH  13  15
ENDBRANCH   5  13
TORSDOF 4
ENDMDL
