MODEL 1
REMARK VINA RESULT:      -8.1      0.000      0.000
REMARK  Name = 
REMARK  2 active torsions:
REMARK  status: ('A' for Active; 'I' for Inactive)
REMARK    1  A    between atoms: C_1  and  C_2
REMARK    2  A    between atoms: N_10  and  C_11
REMARK                            x       y       z     vdW  Elec       q    Type
REMARK                         _______ _______ _______ _____ _____    ______ ____
ROOT
ATOM      1  C   UNL     1       1.876   9.482  18.049  0.00  0.00    +0.000 C 
ATOM      2  C   UNL     1       2.126   7.984  18.197  0.00  0.00    +0.000 C 
ATOM      3  C   UNL     1       2.152   7.579  19.673  0.00  0.00    +0.000 C 
ATOM      4  C   UNL     1       2.352   6.087  19.808  0.00  0.00    +0.000 C 
ATOM      5  O   UNL     1       1.820   5.422  20.690  0.00  0.00    +0.000 OA
ATOM      6  C   UNL     1       3.293   5.456  18.873  0.00  0.00    +0.000 A 
ATOM      7  C   UNL     1       3.741   4.167  19.038  0.00  0.00    +0.000 A 
ATOM      8  N   UNL     1       4.661   3.589  18.230  0.00  0.00    +0.000 NA
ATOM      9  C   UNL     1       5.106   4.322  17.200  0.00  0.00    +0.000 A 
ATOM     10  N   UNL     1       6.085   3.761  16.386  0.00  0.00    +0.000 N 
ATOM     11  N   UNL     1       4.695   5.582  16.953  0.00  0.00    +0.000 NA
ATOM     12  C   UNL     1       3.801   6.142  17.792  0.00  0.00    +0.000 A 
ATOM     13  C   UNL     1       3.442   7.580  17.522  0.00  0.00    +0.000 C 
ATOM     14  H   UNL     1       6.383   2.859  16.733  0.00  0.00    +0.000 HD
ENDROOT
BRANCH  10  15
ATOM     15  C   UNL     1       6.343   4.036  15.036  0.00  0.00    +0.000 A 
ATOM     16  C   UNL     1       7.415   4.849  14.638  0.00  0.00    +0.000 A 
ATOM     17  C   UNL     1       7.701   5.060  13.289  0.00  0.00    +0.000 A 
ATOM     18  C   UNL     1       6.924   4.443  12.315  0.00  0.00    +0.000 A 
ATOM     19  C   UNL     1       5.854   3.636  12.697  0.00  0.00    +0.000 A 
ATOM     20 CL   UNL     1       4.915   2.846  11.489  0.00  0.00    +0.000 Cl
ATOM     21  C   UNL     1       5.551   3.442  14.048  0.00  0.00    +0.000 A 
ENDBRANCH  10  15
TORSDOF 1
ENDMDL
MODEL 2
REMARK VINA RESULT:      -7.9      3.758      6.941
REMARK  Name = 
REMARK  2 active torsions:
REMARK  status: ('A' for Active; 'I' for Inactive)
REMARK    1  A    between atoms: C_1  and  C_2
REMARK    2  A    between atoms: N_10  and  C_11
REMARK                            x       y       z     vdW  Elec       q    Type
REMARK                         _______ _______ _______ _____ _____    ______ ____
ROOT
ATOM      1  C   UNL     1       4.554   3.210  11.483  0.00  0.00    +0.000 C 
ATOM      2  C   UNL     1       5.273   4.012  12.566  0.00  0.00    +0.000 C 
ATOM      3  C   UNL     1       6.772   4.102  12.272  0.00  0.00    +0.000 C 
ATOM      4  C   UNL     1       7.467   4.937  13.322  0.00  0.00    +0.000 C 
ATOM      5  O   UNL     1       8.411   5.677  13.067  0.00  0.00    +0.000 OA
ATOM      6  C   UNL     1       7.015   4.769  14.710  0.00  0.00    +0.000 A 
ATOM      7  C   UNL     1       7.711   5.283  15.778  0.00  0.00    +0.000 A 
ATOM      8  N   UNL     1       7.353   5.081  17.067  0.00  0.00    +0.000 NA
ATOM      9  C   UNL     1       6.233   4.376  17.280  0.00  0.00    +0.000 A 
ATOM     10  N   UNL     1       5.875   4.120  18.600  0.00  0.00    +0.000 N 
ATOM     11  N   UNL     1       5.479   3.863  16.287  0.00  0.00    +0.000 NA
ATOM     12  C   UNL     1       5.877   4.055  15.014  0.00  0.00    +0.000 A 
ATOM     13  C   UNL     1       5.049   3.387  13.948  0.00  0.00    +0.000 C 
ATOM     14  H   UNL     1       6.571   4.466  19.247  0.00  0.00    +0.000 HD
ENDROOT
BRANCH  10  15
ATOM     15  C   UNL     1       4.590   3.894  19.113  0.00  0.00    +0.000 A 
ATOM     16  C   UNL     1       4.087   2.598  19.302  0.00  0.00    +0.000 A 
ATOM     17  C   UNL     1       2.833   2.386  19.877  0.00  0.00    +0.000 A 
ATOM     18  C   UNL     1       2.071   3.474  20.289  0.00  0.00    +0.000 A 
ATOM     19  C   UNL     1       2.558   4.766  20.104  0.00  0.00    +0.000 A 
ATOM     20 CL   UNL     1       1.627   6.109  20.647  0.00  0.00    +0.000 Cl
ATOM     21  C   UNL     1       3.803   4.982  19.506  0.00  0.00    +0.000 A 
ENDBRANCH  10  15
TORSDOF 1
ENDMDL
MODEL 3
REMARK VINA RESULT:      -7.7      2.697      3.635
REMARK  Name = 
REMARK  2 active torsions:
REMARK  status: ('A' for Active; 'I' for Inactive)
REMARK    1  A    between atoms: C_1  and  C_2
REMARK    2  A    between atoms: N_10  and  C_11
REMARK                            x       y       z     vdW  Elec       q    Type
REMARK                         _______ _______ _______ _____ _____    ______ ____
ROOT
ATOM      1  C   UNL     1       2.303   3.031  19.040  0.00  0.00    +0.000 C 
ATOM      2  C   UNL     1       3.732   3.355  18.612  0.00  0.00    +0.000 C 
ATOM      3  C   UNL     1       4.288   4.534  19.414  0.00  0.00    +0.000 C 
ATOM      4  C   UNL     1       5.718   4.816  19.018  0.00  0.00    +0.000 C 
ATOM      5  O   UNL     1       6.568   5.192  19.817  0.00  0.00    +0.000 OA
ATOM      6  C   UNL     1       6.046   4.700  17.590  0.00  0.00    +0.000 A 
ATOM      7  C   UNL     1       7.234   5.154  17.069  0.00  0.00    +0.000 A 
ATOM      8  N   UNL     1       7.529   5.121  15.749  0.00  0.00    +0.000 NA
ATOM      9  C   UNL     1       6.613   4.573  14.938  0.00  0.00    +0.000 A 
ATOM     10  N   UNL     1       6.880   4.573  13.573  0.00  0.00    +0.000 N 
ATOM     11  N   UNL     1       5.437   4.080  15.375  0.00  0.00    +0.000 NA
ATOM     12  C   UNL     1       5.158   4.153  16.690  0.00  0.00    +0.000 A 
ATOM     13  C   UNL     1       3.796   3.668  17.113  0.00  0.00    +0.000 C 
ATOM     14  H   UNL     1       7.740   5.061  13.363  0.00  0.00    +0.000 HD
ENDROOT
BRANCH  10  15
ATOM     15  C   UNL     1       6.410   3.674  12.605  0.00  0.00    +0.000 A 
ATOM     16  C   UNL     1       7.215   2.642  12.101  0.00  0.00    +0.000 A 
ATOM     17  C   UNL     1       6.713   1.713  11.188  0.00  0.00    +0.000 A 
ATOM     18  C   UNL     1       5.387   1.794  10.781  0.00  0.00    +0.000 A 
ATOM     19  C   UNL     1       4.577   2.816  11.273  0.00  0.00    +0.000 A 
ATOM     20 CL   UNL     1       2.925   2.893  10.794  0.00  0.00    +0.000 Cl
ATOM     21  C   UNL     1       5.084   3.762  12.168  0.00  0.00    +0.000 A 
ENDBRANCH  10  15
TORSDOF 1
ENDMDL
MODEL 4
REMARK VINA RESULT:      -7.6      3.858      6.972
REMARK  Name = 
REMARK  2 active torsions:
REMARK  status: ('A' for Active; 'I' for Inactive)
REMARK    1  A    between atoms: C_1  and  C_2
REMARK    2  A    between atoms: N_10  and  C_11
REMARK                            x       y       z     vdW  Elec       q    Type
REMARK                         _______ _______ _______ _____ _____    ______ ____
ROOT
ATOM      1  C   UNL     1       5.200   2.742  11.449  0.00  0.00    +0.000 C 
ATOM      2  C   UNL     1       5.597   3.739  12.534  0.00  0.00    +0.000 C 
ATOM      3  C   UNL     1       7.107   3.989  12.518  0.00  0.00    +0.000 C 
ATOM      4  C   UNL     1       7.485   5.013  13.563  0.00  0.00    +0.000 C 
ATOM      5  O   UNL     1       8.378   5.836  13.396  0.00  0.00    +0.000 OA
ATOM      6  C   UNL     1       6.783   4.937  14.851  0.00  0.00    +0.000 A 
ATOM      7  C   UNL     1       7.192   5.646  15.955  0.00  0.00    +0.000 A 
ATOM      8  N   UNL     1       6.604   5.538  17.169  0.00  0.00    +0.000 NA
ATOM      9  C   UNL     1       5.544   4.722  17.258  0.00  0.00    +0.000 A 
ATOM     10  N   UNL     1       4.956   4.564  18.508  0.00  0.00    +0.000 N 
ATOM     11  N   UNL     1       5.064   4.015  16.215  0.00  0.00    +0.000 NA
ATOM     12  C   UNL     1       5.688   4.119  15.026  0.00  0.00    +0.000 A 
ATOM     13  C   UNL     1       5.166   3.242  13.919  0.00  0.00    +0.000 C 
ATOM     14  H   UNL     1       5.467   5.063  19.224  0.00  0.00    +0.000 HD
ENDROOT
BRANCH  10  15
ATOM     15  C   UNL     1       3.625   4.231  18.797  0.00  0.00    +0.000 A 
ATOM     16  C   UNL     1       2.601   4.393  17.852  0.00  0.00    +0.000 A 
ATOM     17  C   UNL     1       1.292   3.994  18.128  0.00  0.00    +0.000 A 
ATOM     18  C   UNL     1       0.995   3.409  19.353  0.00  0.00    +0.000 A 
ATOM     19  C   UNL     1       2.002   3.245  20.302  0.00  0.00    +0.000 A 
ATOM     20 CL   UNL     1       1.638   2.489  21.805  0.00  0.00    +0.000 Cl
ATOM     21  C   UNL     1       3.309   3.666  20.036  0.00  0.00    +0.000 A 
ENDBRANCH  10  15
TORSDOF 1
ENDMDL
MODEL 5
REMARK VINA RESULT:      -7.5      2.562      3.502
REMARK  Name = 
REMARK  2 active torsions:
REMARK  status: ('A' for Active; 'I' for Inactive)
REMARK    1  A    between atoms: C_1  and  C_2
REMARK    2  A    between atoms: N_10  and  C_11
REMARK                            x       y       z     vdW  Elec       q    Type
REMARK                         _______ _______ _______ _____ _____    ______ ____
ROOT
ATOM      1  C   UNL     1       2.075   4.184  19.373  0.00  0.00    +0.000 C 
ATOM      2  C   UNL     1       3.517   4.144  18.873  0.00  0.00    +0.000 C 
ATOM      3  C   UNL     1       4.375   5.181  19.602  0.00  0.00    +0.000 C 
ATOM      4  C   UNL     1       5.810   5.102  19.135  0.00  0.00    +0.000 C 
ATOM      5  O   UNL     1       6.764   5.289  19.882  0.00  0.00    +0.000 OA
ATOM      6  C   UNL     1       6.029   4.867  17.702  0.00  0.00    +0.000 A 
ATOM      7  C   UNL     1       7.263   5.009  17.113  0.00  0.00    +0.000 A 
ATOM      8  N   UNL     1       7.476   4.867  15.784  0.00  0.00    +0.000 NA
ATOM      9  C   UNL     1       6.417   4.528  15.036  0.00  0.00    +0.000 A 
ATOM     10  N   UNL     1       6.607   4.422  13.662  0.00  0.00    +0.000 N 
ATOM     11  N   UNL     1       5.181   4.343  15.541  0.00  0.00    +0.000 NA
ATOM     12  C   UNL     1       4.993   4.520  16.863  0.00  0.00    +0.000 A 
ATOM     13  C   UNL     1       3.578   4.387  17.360  0.00  0.00    +0.000 C 
ATOM     14  H   UNL     1       7.547   4.685  13.396  0.00  0.00    +0.000 HD
ENDROOT
BRANCH  10  15
ATOM     15  C   UNL     1       5.890   3.632  12.753  0.00  0.00    +0.000 A 
ATOM     16  C   UNL     1       4.730   4.101  12.119  0.00  0.00    +0.000 A 
ATOM     17  C   UNL     1       4.064   3.330  11.166  0.00  0.00    +0.000 A 
ATOM     18  C   UNL     1       4.564   2.080  10.819  0.00  0.00    +0.000 A 
ATOM     19  C   UNL     1       5.714   1.601  11.443  0.00  0.00    +0.000 A 
ATOM     20 CL   UNL     1       6.350   0.067  10.987  0.00  0.00    +0.000 Cl
ATOM     21  C   UNL     1       6.369   2.362  12.416  0.00  0.00    +0.000 A 
ENDBRANCH  10  15
TORSDOF 1
ENDMDL
MODEL 6
REMARK VINA RESULT:      -7.5      4.392      7.416
REMARK  Name = 
REMARK  2 active torsions:
REMARK  status: ('A' for Active; 'I' for Inactive)
REMARK    1  A    between atoms: C_1  and  C_2
REMARK    2  A    between atoms: N_10  and  C_11
REMARK                            x       y       z     vdW  Elec       q    Type
REMARK                         _______ _______ _______ _____ _____    ______ ____
ROOT
ATOM      1  C   UNL     1       1.479   2.622  21.594  0.00  0.00    +0.000 C 
ATOM      2  C   UNL     1       1.954   3.403  20.372  0.00  0.00    +0.000 C 
ATOM      3  C   UNL     1       3.410   3.066  20.042  0.00  0.00    +0.000 C 
ATOM      4  C   UNL     1       3.857   3.806  18.804  0.00  0.00    +0.000 C 
ATOM      5  O   UNL     1       4.629   3.325  17.982  0.00  0.00    +0.000 OA
ATOM      6  C   UNL     1       3.387   5.190  18.652  0.00  0.00    +0.000 A 
ATOM      7  C   UNL     1       3.904   6.043  17.707  0.00  0.00    +0.000 A 
ATOM      8  N   UNL     1       3.538   7.342  17.594  0.00  0.00    +0.000 NA
ATOM      9  C   UNL     1       2.588   7.776  18.435  0.00  0.00    +0.000 A 
ATOM     10  N   UNL     1       2.232   9.119  18.364  0.00  0.00    +0.000 N 
ATOM     11  N   UNL     1       2.012   6.995  19.370  0.00  0.00    +0.000 NA
ATOM     12  C   UNL     1       2.418   5.716  19.478  0.00  0.00    +0.000 A 
ATOM     13  C   UNL     1       1.805   4.912  20.596  0.00  0.00    +0.000 C 
ATOM     14  H   UNL     1       2.805   9.620  17.699  0.00  0.00    +0.000 HD
ENDROOT
BRANCH  10  15
ATOM     15  C   UNL     1       1.004   9.702  18.708  0.00  0.00    +0.000 A 
ATOM     16  C   UNL     1       0.811  10.350  19.937  0.00  0.00    +0.000 A 
ATOM     17  C   UNL     1      -0.395  10.985  20.238  0.00  0.00    +0.000 A 
ATOM     18  C   UNL     1      -1.421  10.995  19.301  0.00  0.00    +0.000 A 
ATOM     19  C   UNL     1      -1.243  10.352  18.078  0.00  0.00    +0.000 A 
ATOM     20 CL   UNL     1      -2.504  10.395  16.906  0.00  0.00    +0.000 Cl
ATOM     21  C   UNL     1      -0.045   9.695  17.783  0.00  0.00    +0.000 A 
ENDBRANCH  10  15
TORSDOF 1
ENDMDL
MODEL 7
REMARK VINA RESULT:      -7.5      1.186      1.602
REMARK  Name = 
REMARK  2 active torsions:
REMARK  status: ('A' for Active; 'I' for Inactive)
REMARK    1  A    between atoms: C_1  and  C_2
REMARK    2  A    between atoms: N_10  and  C_11
REMARK                            x       y       z     vdW  Elec       q    Type
REMARK                         _______ _______ _______ _____ _____    ______ ____
ROOT
ATOM      1  C   UNL     1       1.692   9.456  17.834  0.00  0.00    +0.000 C 
ATOM      2  C   UNL     1       2.014   7.989  18.106  0.00  0.00    +0.000 C 
ATOM      3  C   UNL     1       2.093   7.719  19.611  0.00  0.00    +0.000 C 
ATOM      4  C   UNL     1       2.364   6.256  19.872  0.00  0.00    +0.000 C 
ATOM      5  O   UNL     1       1.884   5.650  20.824  0.00  0.00    +0.000 OA
ATOM      6  C   UNL     1       3.310   5.585  18.971  0.00  0.00    +0.000 A 
ATOM      7  C   UNL     1       3.821   4.337  19.236  0.00  0.00    +0.000 A 
ATOM      8  N   UNL     1       4.746   3.729  18.458  0.00  0.00    +0.000 NA
ATOM      9  C   UNL     1       5.133   4.386  17.355  0.00  0.00    +0.000 A 
ATOM     10  N   UNL     1       6.117   3.796  16.568  0.00  0.00    +0.000 N 
ATOM     11  N   UNL     1       4.659   5.599  17.009  0.00  0.00    +0.000 NA
ATOM     12  C   UNL     1       3.761   6.192  17.819  0.00  0.00    +0.000 A 
ATOM     13  C   UNL     1       3.330   7.583  17.434  0.00  0.00    +0.000 C 
ATOM     14  H   UNL     1       6.464   2.943  16.984  0.00  0.00    +0.000 HD
ENDROOT
BRANCH  10  15
ATOM     15  C   UNL     1       6.330   3.961  15.192  0.00  0.00    +0.000 A 
ATOM     16  C   UNL     1       5.471   3.395  14.238  0.00  0.00    +0.000 A 
ATOM     17  C   UNL     1       5.656   3.623  12.873  0.00  0.00    +0.000 A 
ATOM     18  C   UNL     1       6.696   4.439  12.445  0.00  0.00    +0.000 A 
ATOM     19  C   UNL     1       7.559   5.004  13.383  0.00  0.00    +0.000 A 
ATOM     20 CL   UNL     1       8.826   6.042  12.852  0.00  0.00    +0.000 Cl
ATOM     21  C   UNL     1       7.390   4.758  14.748  0.00  0.00    +0.000 A 
ENDBRANCH  10  15
TORSDOF 1
ENDMDL
MODEL 8
REMARK VINA RESULT:      -7.4      4.794      7.726
REMARK  Name = 
REMARK  2 active torsions:
REMARK  status: ('A' for Active; 'I' for Inactive)
REMARK    1  A    between atoms: C_1  and  C_2
REMARK    2  A    between atoms: N_10  and  C_11
REMARK                            x       y       z     vdW  Elec       q    Type
REMARK                         _______ _______ _______ _____ _____    ______ ____
ROOT
ATOM      1  C   UNL     1       1.479   2.748  21.613  0.00  0.00    +0.000 C 
ATOM      2  C   UNL     1       1.930   3.513  20.371  0.00  0.00    +0.000 C 
ATOM      3  C   UNL     1       3.370   3.148  20.000  0.00  0.00    +0.000 C 
ATOM      4  C   UNL     1       3.792   3.873  18.743  0.00  0.00    +0.000 C 
ATOM      5  O   UNL     1       4.529   3.372  17.902  0.00  0.00    +0.000 OA
ATOM      6  C   UNL     1       3.341   5.264  18.597  0.00  0.00    +0.000 A 
ATOM      7  C   UNL     1       3.844   6.102  17.630  0.00  0.00    +0.000 A 
ATOM      8  N   UNL     1       3.498   7.405  17.520  0.00  0.00    +0.000 NA
ATOM      9  C   UNL     1       2.582   7.862  18.387  0.00  0.00    +0.000 A 
ATOM     10  N   UNL     1       2.248   9.211  18.318  0.00  0.00    +0.000 N 
ATOM     11  N   UNL     1       2.021   7.097  19.345  0.00  0.00    +0.000 NA
ATOM     12  C   UNL     1       2.408   5.811  19.449  0.00  0.00    +0.000 A 
ATOM     13  C   UNL     1       1.816   5.026  20.589  0.00  0.00    +0.000 C 
ATOM     14  H   UNL     1       2.809   9.698  17.632  0.00  0.00    +0.000 HD
ENDROOT
BRANCH  10  15
ATOM     15  C   UNL     1       1.041   9.817  18.695  0.00  0.00    +0.000 A 
ATOM     16  C   UNL     1      -0.081   9.816  17.855  0.00  0.00    +0.000 A 
ATOM     17  C   UNL     1      -1.296  10.364  18.269  0.00  0.00    +0.000 A 
ATOM     18  C   UNL     1      -1.408  10.907  19.544  0.00  0.00    +0.000 A 
ATOM     19  C   UNL     1      -0.299  10.917  20.388  0.00  0.00    +0.000 A 
ATOM     20 CL   UNL     1      -0.449  11.559  21.978  0.00  0.00    +0.000 Cl
ATOM     21  C   UNL     1       0.925  10.391  19.966  0.00  0.00    +0.000 A 
ENDBRANCH  10  15
TORSDOF 1
ENDMDL
MODEL 9
REMARK VINA RESULT:      -7.3      3.379      6.674
REMARK  Name = 
REMARK  2 active torsions:
REMARK  status: ('A' for Active; 'I' for Inactive)
REMARK    1  A    between atoms: C_1  and  C_2
REMARK    2  A    between atoms: N_10  and  C_11
REMARK                            x       y       z     vdW  Elec       q    Type
REMARK                         _______ _______ _______ _____ _____    ______ ____
ROOT
ATOM      1  C   UNL     1       4.678   3.199  11.924  0.00  0.00    +0.000 C 
ATOM      2  C   UNL     1       5.279   4.078  13.017  0.00  0.00    +0.000 C 
ATOM      3  C   UNL     1       6.805   4.125  12.901  0.00  0.00    +0.000 C 
ATOM      4  C   UNL     1       7.388   5.035  13.956  0.00  0.00    +0.000 C 
ATOM      5  O   UNL     1       8.372   5.739  13.758  0.00  0.00    +0.000 OA
ATOM      6  C   UNL     1       6.770   4.989  15.288  0.00  0.00    +0.000 A 
ATOM      7  C   UNL     1       7.345   5.580  16.387  0.00  0.00    +0.000 A 
ATOM      8  N   UNL     1       6.831   5.491  17.636  0.00  0.00    +0.000 NA
ATOM      9  C   UNL     1       5.677   4.821  17.768  0.00  0.00    +0.000 A 
ATOM     10  N   UNL     1       5.158   4.680  19.051  0.00  0.00    +0.000 N 
ATOM     11  N   UNL     1       5.036   4.237  16.736  0.00  0.00    +0.000 NA
ATOM     12  C   UNL     1       5.587   4.317  15.509  0.00  0.00    +0.000 A 
ATOM     13  C   UNL     1       4.877   3.574  14.408  0.00  0.00    +0.000 C 
ATOM     14  H   UNL     1       5.779   5.070  19.747  0.00  0.00    +0.000 HD
ENDROOT
BRANCH  10  15
ATOM     15  C   UNL     1       3.816   4.514  19.422  0.00  0.00    +0.000 A 
ATOM     16  C   UNL     1       3.118   5.500  20.135  0.00  0.00    +0.000 A 
ATOM     17  C   UNL     1       1.764   5.351  20.439  0.00  0.00    +0.000 A 
ATOM     18  C   UNL     1       1.084   4.216  20.014  0.00  0.00    +0.000 A 
ATOM     19  C   UNL     1       1.766   3.228  19.308  0.00  0.00    +0.000 A 
ATOM     20 CL   UNL     1       0.912   1.839  18.753  0.00  0.00    +0.000 Cl
ATOM     21  C   UNL     1       3.128   3.364  19.023  0.00  0.00    +0.000 A 
ENDBRANCH  10  15
TORSDOF 1
ENDMDL
