MODEL 1
REMARK VINA RESULT:      -7.5      0.000      0.000
REMARK  Name = 
REMARK  4 active torsions:
REMARK  status: ('A' for Active; 'I' for Inactive)
REMARK    1  A    between atoms: C_1  and  C_2
REMARK    2  A    between atoms: C_2  and  C_3
REMARK    3  A    between atoms: N_12  and  C_13
REMARK    4  A    between atoms: C_13  and  C_14
REMARK                            x       y       z     vdW  Elec       q    Type
REMARK                         _______ _______ _______ _____ _____    ______ ____
ROOT
ATOM      1  C   UNL     1       4.373   7.232  17.864  0.00  0.00    +0.000 C 
ATOM      2  C   UNL     1       4.345   5.789  18.392  0.00  0.00    +0.000 C 
ATOM      3  C   UNL     1       4.481   4.761  17.224  0.00  0.00    +0.000 C 
ATOM      4  N   UNL     1       5.819   4.741  16.579  0.00  0.00    +0.000 NA
ATOM      5  C   UNL     1       6.840   4.546  17.628  0.00  0.00    +0.000 C 
ATOM      6  C   UNL     1       6.706   5.575  18.756  0.00  0.00    +0.000 C 
ATOM      7  O   UNL     1       5.400   5.549  19.341  0.00  0.00    +0.000 OA
ENDROOT
BRANCH   2   8
ATOM      8  C   UNL     1       2.936   5.526  19.019  0.00  0.00    +0.000 C 
ATOM      9  O   UNL     1       2.067   6.405  18.954  0.00  0.00    +0.000 OA
ATOM     10  N   UNL     1       2.657   4.343  19.687  0.00  0.00    +0.000 N 
ATOM     11  C   UNL     1       1.259   4.028  19.994  0.00  0.00    +0.000 C 
ATOM     12  C   UNL     1       0.803   2.824  19.158  0.00  0.00    +0.000 C 
ATOM     13  O   UNL     1       1.666   1.689  19.364  0.00  0.00    +0.000 OA
ATOM     14  C   UNL     1       3.028   2.008  19.020  0.00  0.00    +0.000 C 
ATOM     15  C   UNL     1       3.540   3.186  19.863  0.00  0.00    +0.000 C 
ENDBRANCH   2   8
BRANCH   4  16
ATOM     16  C   UNL     1       5.910   3.646  15.594  0.00  0.00    +0.000 C 
BRANCH  16  17
ATOM     17  C   UNL     1       6.459   4.059  14.253  0.00  0.00    +0.000 A 
ATOM     18  C   UNL     1       6.086   3.397  13.078  0.00  0.00    +0.000 A 
ATOM     19  C   UNL     1       6.633   3.790  11.861  0.00  0.00    +0.000 A 
ATOM     20  C   UNL     1       7.542   4.834  11.857  0.00  0.00    +0.000 A 
ATOM     21  N   UNL     1       7.924   5.503  12.966  0.00  0.00    +0.000 NA
ATOM     22  C   UNL     1       7.370   5.103  14.135  0.00  0.00    +0.000 A 
ENDBRANCH  16  17
ENDBRANCH   4  16
TORSDOF 3
ENDMDL
MODEL 2
REMARK VINA RESULT:      -7.1      2.913      6.900
REMARK  Name = 
REMARK  4 active torsions:
REMARK  status: ('A' for Active; 'I' for Inactive)
REMARK    1  A    between atoms: C_1  and  C_2
REMARK    2  A    between atoms: C_2  and  C_3
REMARK    3  A    between atoms: N_12  and  C_13
REMARK    4  A    between atoms: C_13  and  C_14
REMARK                            x       y       z     vdW  Elec       q    Type
REMARK                         _______ _______ _______ _____ _____    ______ ____
ROOT
ATOM      1  C   UNL     1       2.797   4.330  17.500  0.00  0.00    +0.000 C 
ATOM      2  C   UNL     1       3.435   4.323  18.899  0.00  0.00    +0.000 C 
ATOM      3  C   UNL     1       3.238   5.698  19.613  0.00  0.00    +0.000 C 
ATOM      4  N   UNL     1       1.835   5.989  20.004  0.00  0.00    +0.000 NA
ATOM      5  C   UNL     1       1.329   4.857  20.806  0.00  0.00    +0.000 C 
ATOM      6  C   UNL     1       1.510   3.517  20.083  0.00  0.00    +0.000 C 
ATOM      7  O   UNL     1       2.879   3.289  19.732  0.00  0.00    +0.000 OA
ENDROOT
BRANCH   2   8
ATOM      8  C   UNL     1       4.980   4.157  18.730  0.00  0.00    +0.000 C 
ATOM      9  O   UNL     1       5.554   3.205  19.278  0.00  0.00    +0.000 OA
ATOM     10  N   UNL     1       5.728   5.080  18.015  0.00  0.00    +0.000 N 
ATOM     11  C   UNL     1       7.102   4.728  17.642  0.00  0.00    +0.000 C 
ATOM     12  C   UNL     1       7.196   4.548  16.121  0.00  0.00    +0.000 C 
ATOM     13  O   UNL     1       6.737   5.724  15.426  0.00  0.00    +0.000 OA
ATOM     14  C   UNL     1       5.374   6.030  15.776  0.00  0.00    +0.000 C 
ATOM     15  C   UNL     1       5.239   6.257  17.290  0.00  0.00    +0.000 C 
ENDBRANCH   2   8
BRANCH   4  16
ATOM     16  C   UNL     1       1.760   7.229  20.802  0.00  0.00    +0.000 C 
BRANCH  16  17
ATOM     17  C   UNL     1       1.464   8.468  19.999  0.00  0.00    +0.000 A 
ATOM     18  C   UNL     1       1.861   8.582  18.661  0.00  0.00    +0.000 A 
ATOM     19  C   UNL     1       1.593   9.751  17.958  0.00  0.00    +0.000 A 
ATOM     20  C   UNL     1       0.934  10.776  18.616  0.00  0.00    +0.000 A 
ATOM     21  N   UNL     1       0.528  10.705  19.902  0.00  0.00    +0.000 NA
ATOM     22  C   UNL     1       0.797   9.553  20.560  0.00  0.00    +0.000 A 
ENDBRANCH  16  17
ENDBRANCH   4  16
TORSDOF 3
ENDMDL
MODEL 3
REMARK VINA RESULT:      -7.0      0.611      1.029
REMARK  Name = 
REMARK  4 active torsions:
REMARK  status: ('A' for Active; 'I' for Inactive)
REMARK    1  A    between atoms: C_1  and  C_2
REMARK    2  A    between atoms: C_2  and  C_3
REMARK    3  A    between atoms: N_12  and  C_13
REMARK    4  A    between atoms: C_13  and  C_14
REMARK                            x       y       z     vdW  Elec       q    Type
REMARK                         _______ _______ _______ _____ _____    ______ ____
ROOT
ATOM      1  C   UNL     1       4.359   7.247  17.923  0.00  0.00    +0.000 C 
ATOM      2  C   UNL     1       4.372   5.809  18.464  0.00  0.00    +0.000 C 
ATOM      3  C   UNL     1       4.462   4.771  17.300  0.00  0.00    +0.000 C 
ATOM      4  N   UNL     1       5.767   4.759  16.591  0.00  0.00    +0.000 NA
ATOM      5  C   UNL     1       6.839   4.584  17.590  0.00  0.00    +0.000 C 
ATOM      6  C   UNL     1       6.750   5.622  18.714  0.00  0.00    +0.000 C 
ATOM      7  O   UNL     1       5.474   5.588  19.362  0.00  0.00    +0.000 OA
ENDROOT
BRANCH   2   8
ATOM      8  C   UNL     1       2.999   5.538  19.162  0.00  0.00    +0.000 C 
ATOM      9  O   UNL     1       2.147   6.436  19.199  0.00  0.00    +0.000 OA
ATOM     10  N   UNL     1       2.734   4.325  19.779  0.00  0.00    +0.000 N 
ATOM     11  C   UNL     1       1.350   4.020  20.154  0.00  0.00    +0.000 C 
ATOM     12  C   UNL     1       0.817   2.875  19.282  0.00  0.00    +0.000 C 
ATOM     13  O   UNL     1       1.665   1.713  19.371  0.00  0.00    +0.000 OA
ATOM     14  C   UNL     1       3.010   2.024  18.961  0.00  0.00    +0.000 C 
ATOM     15  C   UNL     1       3.599   3.142  19.835  0.00  0.00    +0.000 C 
ENDBRANCH   2   8
BRANCH   4  16
ATOM     16  C   UNL     1       5.821   3.654  15.613  0.00  0.00    +0.000 C 
BRANCH  16  17
ATOM     17  C   UNL     1       6.425   4.029  14.285  0.00  0.00    +0.000 A 
ATOM     18  C   UNL     1       7.378   5.050  14.180  0.00  0.00    +0.000 A 
ATOM     19  C   UNL     1       7.895   5.385  12.933  0.00  0.00    +0.000 A 
ATOM     20  C   UNL     1       7.442   4.689  11.825  0.00  0.00    +0.000 A 
ATOM     21  N   UNL     1       6.531   3.695  11.884  0.00  0.00    +0.000 NA
ATOM     22  C   UNL     1       6.049   3.385  13.111  0.00  0.00    +0.000 A 
ENDBRANCH  16  17
ENDBRANCH   4  16
TORSDOF 3
ENDMDL
MODEL 4
REMARK VINA RESULT:      -7.0      3.634      7.095
REMARK  Name = 
REMARK  4 active torsions:
REMARK  status: ('A' for Active; 'I' for Inactive)
REMARK    1  A    between atoms: C_1  and  C_2
REMARK    2  A    between atoms: C_2  and  C_3
REMARK    3  A    between atoms: N_12  and  C_13
REMARK    4  A    between atoms: C_13  and  C_14
REMARK                            x       y       z     vdW  Elec       q    Type
REMARK                         _______ _______ _______ _____ _____    ______ ____
ROOT
ATOM      1  C   UNL     1       1.607   4.381  17.789  0.00  0.00    +0.000 C 
ATOM      2  C   UNL     1       2.933   5.052  18.183  0.00  0.00    +0.000 C 
ATOM      3  C   UNL     1       3.005   6.515  17.641  0.00  0.00    +0.000 C 
ATOM      4  N   UNL     1       2.068   7.459  18.301  0.00  0.00    +0.000 NA
ATOM      5  C   UNL     1       2.280   7.384  19.760  0.00  0.00    +0.000 C 
ATOM      6  C   UNL     1       2.185   5.945  20.280  0.00  0.00    +0.000 C 
ATOM      7  O   UNL     1       3.110   5.081  19.611  0.00  0.00    +0.000 OA
ENDROOT
BRANCH   2   8
ATOM      8  C   UNL     1       4.098   4.285  17.475  0.00  0.00    +0.000 C 
ATOM      9  O   UNL     1       3.846   3.258  16.829  0.00  0.00    +0.000 OA
ATOM     10  N   UNL     1       5.413   4.707  17.594  0.00  0.00    +0.000 N 
ATOM     11  C   UNL     1       6.414   4.138  16.687  0.00  0.00    +0.000 C 
ATOM     12  C   UNL     1       6.909   5.220  15.717  0.00  0.00    +0.000 C 
ATOM     13  O   UNL     1       7.419   6.364  16.428  0.00  0.00    +0.000 OA
ATOM     14  C   UNL     1       6.409   6.932  17.284  0.00  0.00    +0.000 C 
ATOM     15  C   UNL     1       5.911   5.892  18.300  0.00  0.00    +0.000 C 
ENDBRANCH   2   8
BRANCH   4  16
ATOM     16  C   UNL     1       2.305   8.841  17.840  0.00  0.00    +0.000 C 
BRANCH  16  17
ATOM     17  C   UNL     1       1.195   9.805  18.168  0.00  0.00    +0.000 A 
ATOM     18  C   UNL     1      -0.139   9.512  17.863  0.00  0.00    +0.000 A 
ATOM     19  C   UNL     1      -1.134  10.438  18.158  0.00  0.00    +0.000 A 
ATOM     20  C   UNL     1      -0.764  11.633  18.751  0.00  0.00    +0.000 A 
ATOM     21  N   UNL     1       0.509  11.951  19.068  0.00  0.00    +0.000 NA
ATOM     22  C   UNL     1       1.456  11.029  18.775  0.00  0.00    +0.000 A 
ENDBRANCH  16  17
ENDBRANCH   4  16
TORSDOF 3
ENDMDL
MODEL 5
REMARK VINA RESULT:      -6.9      2.984      6.971
REMARK  Name = 
REMARK  4 active torsions:
REMARK  status: ('A' for Active; 'I' for Inactive)
REMARK    1  A    between atoms: C_1  and  C_2
REMARK    2  A    between atoms: C_2  and  C_3
REMARK    3  A    between atoms: N_12  and  C_13
REMARK    4  A    between atoms: C_13  and  C_14
REMARK                            x       y       z     vdW  Elec       q    Type
REMARK                         _______ _______ _______ _____ _____    ______ ____
ROOT
ATOM      1  C   UNL     1       2.806   4.392  17.494  0.00  0.00    +0.000 C 
ATOM      2  C   UNL     1       3.441   4.360  18.893  0.00  0.00    +0.000 C 
ATOM      3  C   UNL     1       3.249   5.724  19.629  0.00  0.00    +0.000 C 
ATOM      4  N   UNL     1       1.846   6.014  20.023  0.00  0.00    +0.000 NA
ATOM      5  C   UNL     1       1.335   4.871  20.805  0.00  0.00    +0.000 C 
ATOM      6  C   UNL     1       1.511   3.543  20.060  0.00  0.00    +0.000 C 
ATOM      7  O   UNL     1       2.880   3.315  19.708  0.00  0.00    +0.000 OA
ENDROOT
BRANCH   2   8
ATOM      8  C   UNL     1       4.986   4.189  18.724  0.00  0.00    +0.000 C 
ATOM      9  O   UNL     1       5.559   3.240  19.277  0.00  0.00    +0.000 OA
ATOM     10  N   UNL     1       5.735   5.107  18.003  0.00  0.00    +0.000 N 
ATOM     11  C   UNL     1       7.108   4.750  17.631  0.00  0.00    +0.000 C 
ATOM     12  C   UNL     1       7.200   4.560  16.111  0.00  0.00    +0.000 C 
ATOM     13  O   UNL     1       6.743   5.733  15.410  0.00  0.00    +0.000 OA
ATOM     14  C   UNL     1       5.381   6.044  15.759  0.00  0.00    +0.000 C 
ATOM     15  C   UNL     1       5.248   6.281  17.271  0.00  0.00    +0.000 C 
ENDBRANCH   2   8
BRANCH   4  16
ATOM     16  C   UNL     1       1.775   7.241  20.841  0.00  0.00    +0.000 C 
BRANCH  16  17
ATOM     17  C   UNL     1       1.402   8.481  20.071  0.00  0.00    +0.000 A 
ATOM     18  C   UNL     1       0.663   9.512  20.664  0.00  0.00    +0.000 A 
ATOM     19  C   UNL     1       0.315  10.630  19.914  0.00  0.00    +0.000 A 
ATOM     20  C   UNL     1       0.715  10.684  18.590  0.00  0.00    +0.000 A 
ATOM     21  N   UNL     1       1.433   9.715  17.982  0.00  0.00    +0.000 NA
ATOM     22  C   UNL     1       1.764   8.642  18.737  0.00  0.00    +0.000 A 
ENDBRANCH  16  17
ENDBRANCH   4  16
TORSDOF 3
ENDMDL
MODEL 6
REMARK VINA RESULT:      -6.7      1.413      1.609
REMARK  Name = 
REMARK  4 active torsions:
REMARK  status: ('A' for Active; 'I' for Inactive)
REMARK    1  A    between atoms: C_1  and  C_2
REMARK    2  A    between atoms: C_2  and  C_3
REMARK    3  A    between atoms: N_12  and  C_13
REMARK    4  A    between atoms: C_13  and  C_14
REMARK                            x       y       z     vdW  Elec       q    Type
REMARK                         _______ _______ _______ _____ _____    ______ ____
ROOT
ATOM      1  C   UNL     1       3.065   6.305  17.611  0.00  0.00    +0.000 C 
ATOM      2  C   UNL     1       3.389   4.893  18.123  0.00  0.00    +0.000 C 
ATOM      3  C   UNL     1       3.998   4.010  16.987  0.00  0.00    +0.000 C 
ATOM      4  N   UNL     1       5.363   4.417  16.562  0.00  0.00    +0.000 NA
ATOM      5  C   UNL     1       6.226   4.478  17.758  0.00  0.00    +0.000 C 
ATOM      6  C   UNL     1       5.624   5.364  18.854  0.00  0.00    +0.000 C 
ATOM      7  O   UNL     1       4.313   4.925  19.226  0.00  0.00    +0.000 OA
ENDROOT
BRANCH   2   8
ATOM      8  C   UNL     1       2.046   4.197  18.519  0.00  0.00    +0.000 C 
ATOM      9  O   UNL     1       1.371   3.634  17.645  0.00  0.00    +0.000 OA
ATOM     10  N   UNL     1       1.573   4.236  19.821  0.00  0.00    +0.000 N 
ATOM     11  C   UNL     1       0.479   3.335  20.196  0.00  0.00    +0.000 C 
ATOM     12  C   UNL     1       0.996   2.273  21.177  0.00  0.00    +0.000 C 
ATOM     13  O   UNL     1       1.607   2.882  22.331  0.00  0.00    +0.000 OA
ATOM     14  C   UNL     1       2.703   3.733  21.945  0.00  0.00    +0.000 C 
ATOM     15  C   UNL     1       2.223   4.838  20.991  0.00  0.00    +0.000 C 
ENDBRANCH   2   8
BRANCH   4  16
ATOM     16  C   UNL     1       5.922   3.447  15.600  0.00  0.00    +0.000 C 
BRANCH  16  17
ATOM     17  C   UNL     1       6.543   4.071  14.378  0.00  0.00    +0.000 A 
ATOM     18  C   UNL     1       6.200   3.645  13.089  0.00  0.00    +0.000 A 
ATOM     19  C   UNL     1       6.813   4.228  11.984  0.00  0.00    +0.000 A 
ATOM     20  C   UNL     1       7.753   5.220  12.202  0.00  0.00    +0.000 A 
ATOM     21  N   UNL     1       8.106   5.664  13.427  0.00  0.00    +0.000 NA
ATOM     22  C   UNL     1       7.490   5.084  14.484  0.00  0.00    +0.000 A 
ENDBRANCH  16  17
ENDBRANCH   4  16
TORSDOF 3
ENDMDL
MODEL 7
REMARK VINA RESULT:      -6.7      3.567      7.178
REMARK  Name = 
REMARK  4 active torsions:
REMARK  status: ('A' for Active; 'I' for Inactive)
REMARK    1  A    between atoms: C_1  and  C_2
REMARK    2  A    between atoms: C_2  and  C_3
REMARK    3  A    between atoms: N_12  and  C_13
REMARK    4  A    between atoms: C_13  and  C_14
REMARK                            x       y       z     vdW  Elec       q    Type
REMARK                         _______ _______ _______ _____ _____    ______ ____
ROOT
ATOM      1  C   UNL     1       1.603   4.451  17.725  0.00  0.00    +0.000 C 
ATOM      2  C   UNL     1       2.935   5.102  18.134  0.00  0.00    +0.000 C 
ATOM      3  C   UNL     1       3.025   6.571  17.614  0.00  0.00    +0.000 C 
ATOM      4  N   UNL     1       2.096   7.516  18.286  0.00  0.00    +0.000 NA
ATOM      5  C   UNL     1       2.302   7.416  19.744  0.00  0.00    +0.000 C 
ATOM      6  C   UNL     1       2.189   5.971  20.242  0.00  0.00    +0.000 C 
ATOM      7  O   UNL     1       3.107   5.107  19.563  0.00  0.00    +0.000 OA
ENDROOT
BRANCH   2   8
ATOM      8  C   UNL     1       4.093   4.332  17.418  0.00  0.00    +0.000 C 
ATOM      9  O   UNL     1       3.832   3.320  16.753  0.00  0.00    +0.000 OA
ATOM     10  N   UNL     1       5.413   4.735  17.551  0.00  0.00    +0.000 N 
ATOM     11  C   UNL     1       6.412   4.169  16.640  0.00  0.00    +0.000 C 
ATOM     12  C   UNL     1       6.925   5.262  15.691  0.00  0.00    +0.000 C 
ATOM     13  O   UNL     1       7.446   6.387  16.424  0.00  0.00    +0.000 OA
ATOM     14  C   UNL     1       6.439   6.952  17.285  0.00  0.00    +0.000 C 
ATOM     15  C   UNL     1       5.922   5.902  18.280  0.00  0.00    +0.000 C 
ENDBRANCH   2   8
BRANCH   4  16
ATOM     16  C   UNL     1       2.350   8.902  17.846  0.00  0.00    +0.000 C 
BRANCH  16  17
ATOM     17  C   UNL     1       1.239   9.868  18.163  0.00  0.00    +0.000 A 
ATOM     18  C   UNL     1       1.502  11.120  18.732  0.00  0.00    +0.000 A 
ATOM     19  C   UNL     1       0.449  11.976  19.035  0.00  0.00    +0.000 A 
ATOM     20  C   UNL     1      -0.841  11.553  18.761  0.00  0.00    +0.000 A 
ATOM     21  N   UNL     1      -1.137  10.358  18.207  0.00  0.00    +0.000 NA
ATOM     22  C   UNL     1      -0.092   9.548  17.917  0.00  0.00    +0.000 A 
ENDBRANCH  16  17
ENDBRANCH   4  16
TORSDOF 3
ENDMDL
MODEL 8
REMARK VINA RESULT:      -6.6      1.420      2.278
REMARK  Name = 
REMARK  4 active torsions:
REMARK  status: ('A' for Active; 'I' for Inactive)
REMARK    1  A    between atoms: C_1  and  C_2
REMARK    2  A    between atoms: C_2  and  C_3
REMARK    3  A    between atoms: N_12  and  C_13
REMARK    4  A    between atoms: C_13  and  C_14
REMARK                            x       y       z     vdW  Elec       q    Type
REMARK                         _______ _______ _______ _____ _____    ______ ____
ROOT
ATOM      1  C   UNL     1       2.809   4.235  17.219  0.00  0.00    +0.000 C 
ATOM      2  C   UNL     1       4.046   4.589  18.061  0.00  0.00    +0.000 C 
ATOM      3  C   UNL     1       5.357   4.437  17.225  0.00  0.00    +0.000 C 
ATOM      4  N   UNL     1       5.517   5.449  16.150  0.00  0.00    +0.000 NA
ATOM      5  C   UNL     1       5.378   6.792  16.748  0.00  0.00    +0.000 C 
ATOM      6  C   UNL     1       4.077   6.931  17.546  0.00  0.00    +0.000 C 
ATOM      7  O   UNL     1       3.977   5.933  18.568  0.00  0.00    +0.000 OA
ENDROOT
BRANCH   2   8
ATOM      8  C   UNL     1       4.163   3.543  19.218  0.00  0.00    +0.000 C 
ATOM      9  O   UNL     1       5.275   3.294  19.703  0.00  0.00    +0.000 OA
ATOM     10  N   UNL     1       3.051   2.856  19.680  0.00  0.00    +0.000 N 
ATOM     11  C   UNL     1       3.161   2.117  20.942  0.00  0.00    +0.000 C 
ATOM     12  C   UNL     1       2.298   2.794  22.015  0.00  0.00    +0.000 C 
ATOM     13  O   UNL     1       0.929   2.916  21.583  0.00  0.00    +0.000 OA
ATOM     14  C   UNL     1       0.839   3.677  20.364  0.00  0.00    +0.000 C 
ATOM     15  C   UNL     1       1.659   3.013  19.247  0.00  0.00    +0.000 C 
ENDBRANCH   2   8
BRANCH   4  16
ATOM     16  C   UNL     1       6.843   5.329  15.512  0.00  0.00    +0.000 C 
BRANCH  16  17
ATOM     17  C   UNL     1       6.812   4.770  14.114  0.00  0.00    +0.000 A 
ATOM     18  C   UNL     1       5.862   3.815  13.732  0.00  0.00    +0.000 A 
ATOM     19  C   UNL     1       5.880   3.302  12.439  0.00  0.00    +0.000 A 
ATOM     20  C   UNL     1       6.851   3.760  11.565  0.00  0.00    +0.000 A 
ATOM     21  N   UNL     1       7.780   4.684  11.890  0.00  0.00    +0.000 NA
ATOM     22  C   UNL     1       7.735   5.170  13.153  0.00  0.00    +0.000 A 
ENDBRANCH  16  17
ENDBRANCH   4  16
TORSDOF 3
ENDMDL
MODEL 9
REMARK VINA RESULT:      -6.6      3.626      7.240
REMARK  Name = 
REMARK  4 active torsions:
REMARK  status: ('A' for Active; 'I' for Inactive)
REMARK    1  A    between atoms: C_1  and  C_2
REMARK    2  A    between atoms: C_2  and  C_3
REMARK    3  A    between atoms: N_12  and  C_13
REMARK    4  A    between atoms: C_13  and  C_14
REMARK                            x       y       z     vdW  Elec       q    Type
REMARK                         _______ _______ _______ _____ _____    ______ ____
ROOT
ATOM      1  C   UNL     1       2.709   4.472  17.858  0.00  0.00    +0.000 C 
ATOM      2  C   UNL     1       3.604   5.357  18.740  0.00  0.00    +0.000 C 
ATOM      3  C   UNL     1       3.536   6.851  18.289  0.00  0.00    +0.000 C 
ATOM      4  N   UNL     1       2.231   7.511  18.554  0.00  0.00    +0.000 NA
ATOM      5  C   UNL     1       1.901   7.334  19.982  0.00  0.00    +0.000 C 
ATOM      6  C   UNL     1       1.951   5.862  20.404  0.00  0.00    +0.000 C 
ATOM      7  O   UNL     1       3.229   5.278  20.127  0.00  0.00    +0.000 OA
ENDROOT
BRANCH   2   8
ATOM      8  C   UNL     1       5.090   4.921  18.520  0.00  0.00    +0.000 C 
ATOM      9  O   UNL     1       5.589   4.065  19.263  0.00  0.00    +0.000 OA
ATOM     10  N   UNL     1       5.873   5.507  17.538  0.00  0.00    +0.000 N 
ATOM     11  C   UNL     1       7.144   4.869  17.183  0.00  0.00    +0.000 C 
ATOM     12  C   UNL     1       7.056   4.295  15.762  0.00  0.00    +0.000 C 
ATOM     13  O   UNL     1       6.684   5.311  14.811  0.00  0.00    +0.000 OA
ATOM     14  C   UNL     1       5.415   5.900  15.155  0.00  0.00    +0.000 C 
ATOM     15  C   UNL     1       5.468   6.522  16.559  0.00  0.00    +0.000 C 
ENDBRANCH   2   8
BRANCH   4  16
ATOM     16  C   UNL     1       2.300   8.952  18.239  0.00  0.00    +0.000 C 
BRANCH  16  17
ATOM     17  C   UNL     1       1.036   9.714  18.536  0.00  0.00    +0.000 A 
ATOM     18  C   UNL     1      -0.122   9.533  17.770  0.00  0.00    +0.000 A 
ATOM     19  C   UNL     1      -1.263  10.273  18.058  0.00  0.00    +0.000 A 
ATOM     20  C   UNL     1      -1.213  11.176  19.107  0.00  0.00    +0.000 A 
ATOM     21  N   UNL     1      -0.120  11.375  19.874  0.00  0.00    +0.000 NA
ATOM     22  C   UNL     1       0.974  10.637  19.575  0.00  0.00    +0.000 A 
ENDBRANCH  16  17
ENDBRANCH   4  16
TORSDOF 3
ENDMDL
