MODEL 1
REMARK VINA RESULT:      -8.1      0.000      0.000
REMARK  Name = 
REMARK  3 active torsions:
REMARK  status: ('A' for Active; 'I' for Inactive)
REMARK    1  A    between atoms: C_4  and  N_5
REMARK    2  A    between atoms: C_14  and  C_15
REMARK    3  A    between atoms: C_19  and  O_20
REMARK                            x       y       z     vdW  Elec       q    Type
REMARK                         _______ _______ _______ _____ _____    ______ ____
ROOT
ATOM      1  O   UNL     1       2.735   3.533  20.447  0.00  0.00    +0.000 OA
ATOM      2  C   UNL     1       2.844   4.506  19.715  0.00  0.00    +0.000 A 
ATOM      3  C   UNL     1       2.240   5.796  20.069  0.00  0.00    +0.000 A 
ATOM      4  C   UNL     1       2.330   6.851  19.242  0.00  0.00    +0.000 A 
ATOM      5  O   UNL     1       2.984   6.765  18.011  0.00  0.00    +0.000 OA
ATOM      6  C   UNL     1       3.636   5.605  17.672  0.00  0.00    +0.000 A 
ATOM      7  C   UNL     1       4.363   5.598  16.477  0.00  0.00    +0.000 A 
ATOM      8  C   UNL     1       5.063   4.449  16.052  0.00  0.00    +0.000 A 
ATOM      9  C   UNL     1       4.991   3.308  16.875  0.00  0.00    +0.000 A 
ATOM     10  C   UNL     1       4.258   3.306  18.064  0.00  0.00    +0.000 A 
ATOM     11  C   UNL     1       3.592   4.465  18.457  0.00  0.00    +0.000 A 
ENDROOT
BRANCH   4  12
ATOM     12  N   UNL     1       1.805   8.106  19.543  0.00  0.00    +0.000 N 
ATOM     13  C   UNL     1       1.441   8.505  20.919  0.00  0.00    +0.000 C 
ATOM     14  C   UNL     1       0.118   9.284  20.917  0.00  0.00    +0.000 C 
ATOM     15  O   UNL     1       0.161  10.410  20.023  0.00  0.00    +0.000 OA
ATOM     16  C   UNL     1       0.447   9.969  18.688  0.00  0.00    +0.000 C 
ATOM     17  C   UNL     1       1.803   9.252  18.614  0.00  0.00    +0.000 C 
ENDBRANCH   4  12
BRANCH   8  18
ATOM     18  C   UNL     1       5.844   4.435  14.790  0.00  0.00    +0.000 A 
ATOM     19  C   UNL     1       5.451   3.644  13.693  0.00  0.00    +0.000 A 
ATOM     20  C   UNL     1       6.190   3.613  12.505  0.00  0.00    +0.000 A 
ATOM     21  C   UNL     1       7.337   4.389  12.378  0.00  0.00    +0.000 A 
ATOM     22  C   UNL     1       7.737   5.181  13.446  0.00  0.00    +0.000 A 
ATOM     23  C   UNL     1       7.013   5.203  14.637  0.00  0.00    +0.000 A 
BRANCH  22  24
ATOM     24  O   UNL     1       8.853   5.963  13.368  0.00  0.00    +0.000 OA
ATOM     25  H   UNL     1       8.774   6.680  14.018  0.00  0.00    +0.000 HD
ENDBRANCH  22  24
ENDBRANCH   8  18
TORSDOF 3
ENDMDL
MODEL 2
REMARK VINA RESULT:      -7.8      4.288      6.148
REMARK  Name = 
REMARK  3 active torsions:
REMARK  status: ('A' for Active; 'I' for Inactive)
REMARK    1  A    between atoms: C_4  and  N_5
REMARK    2  A    between atoms: C_14  and  C_15
REMARK    3  A    between atoms: C_19  and  O_20
REMARK                            x       y       z     vdW  Elec       q    Type
REMARK                         _______ _______ _______ _____ _____    ______ ____
ROOT
ATOM      1  O   UNL     1       1.977  10.726  17.349  0.00  0.00    +0.000 OA
ATOM      2  C   UNL     1       1.654  10.307  18.451  0.00  0.00    +0.000 A 
ATOM      3  C   UNL     1       0.979  11.171  19.427  0.00  0.00    +0.000 A 
ATOM      4  C   UNL     1       0.662  10.716  20.650  0.00  0.00    +0.000 A 
ATOM      5  O   UNL     1       0.969   9.413  21.052  0.00  0.00    +0.000 OA
ATOM      6  C   UNL     1       1.524   8.542  20.147  0.00  0.00    +0.000 A 
ATOM      7  C   UNL     1       1.720   7.219  20.561  0.00  0.00    +0.000 A 
ATOM      8  C   UNL     1       2.285   6.257  19.697  0.00  0.00    +0.000 A 
ATOM      9  C   UNL     1       2.650   6.685  18.405  0.00  0.00    +0.000 A 
ATOM     10  C   UNL     1       2.465   8.006  17.990  0.00  0.00    +0.000 A 
ATOM     11  C   UNL     1       1.892   8.924  18.868  0.00  0.00    +0.000 A 
ENDROOT
BRANCH   4  12
ATOM     12  N   UNL     1      -0.007  11.482  21.603  0.00  0.00    +0.000 N 
ATOM     13  C   UNL     1      -0.642  10.886  22.797  0.00  0.00    +0.000 C 
ATOM     14  C   UNL     1      -2.001  11.549  23.066  0.00  0.00    +0.000 C 
ATOM     15  O   UNL     1      -1.887  12.978  23.173  0.00  0.00    +0.000 OA
ATOM     16  C   UNL     1      -1.332  13.521  21.966  0.00  0.00    +0.000 C 
ATOM     17  C   UNL     1       0.068  12.953  21.689  0.00  0.00    +0.000 C 
ENDBRANCH   4  12
BRANCH   8  18
ATOM     18  C   UNL     1       2.488   4.851  20.124  0.00  0.00    +0.000 A 
ATOM     19  C   UNL     1       1.547   4.189  20.938  0.00  0.00    +0.000 A 
ATOM     20  C   UNL     1       1.738   2.867  21.358  0.00  0.00    +0.000 A 
ATOM     21  C   UNL     1       2.871   2.167  20.960  0.00  0.00    +0.000 A 
ATOM     22  C   UNL     1       3.807   2.800  20.152  0.00  0.00    +0.000 A 
ATOM     23  C   UNL     1       3.629   4.121  19.744  0.00  0.00    +0.000 A 
BRANCH  22  24
ATOM     24  O   UNL     1       4.932   2.153  19.731  0.00  0.00    +0.000 OA
ATOM     25  H   UNL     1       4.668   1.393  19.189  0.00  0.00    +0.000 HD
ENDBRANCH  22  24
ENDBRANCH   8  18
TORSDOF 3
ENDMDL
MODEL 3
REMARK VINA RESULT:      -7.8      1.971      7.980
REMARK  Name = 
REMARK  3 active torsions:
REMARK  status: ('A' for Active; 'I' for Inactive)
REMARK    1  A    between atoms: C_4  and  N_5
REMARK    2  A    between atoms: C_14  and  C_15
REMARK    3  A    between atoms: C_19  and  O_20
REMARK                            x       y       z     vdW  Elec       q    Type
REMARK                         _______ _______ _______ _____ _____    ______ ____
ROOT
ATOM      1  O   UNL     1       2.624   2.274  19.754  0.00  0.00    +0.000 OA
ATOM      2  C   UNL     1       3.088   3.308  19.295  0.00  0.00    +0.000 A 
ATOM      3  C   UNL     1       4.179   3.283  18.313  0.00  0.00    +0.000 A 
ATOM      4  C   UNL     1       4.711   4.422  17.842  0.00  0.00    +0.000 A 
ATOM      5  O   UNL     1       4.263   5.674  18.270  0.00  0.00    +0.000 OA
ATOM      6  C   UNL     1       3.189   5.751  19.123  0.00  0.00    +0.000 A 
ATOM      7  C   UNL     1       2.709   7.026  19.444  0.00  0.00    +0.000 A 
ATOM      8  C   UNL     1       1.611   7.197  20.313  0.00  0.00    +0.000 A 
ATOM      9  C   UNL     1       1.023   6.034  20.849  0.00  0.00    +0.000 A 
ATOM     10  C   UNL     1       1.504   4.760  20.538  0.00  0.00    +0.000 A 
ATOM     11  C   UNL     1       2.583   4.631  19.666  0.00  0.00    +0.000 A 
ENDROOT
BRANCH   4  12
ATOM     12  N   UNL     1       5.725   4.456  16.886  0.00  0.00    +0.000 N 
ATOM     13  C   UNL     1       7.053   5.045  17.160  0.00  0.00    +0.000 C 
ATOM     14  C   UNL     1       7.536   5.858  15.950  0.00  0.00    +0.000 C 
ATOM     15  O   UNL     1       7.531   5.076  14.744  0.00  0.00    +0.000 OA
ATOM     16  C   UNL     1       6.209   4.585  14.479  0.00  0.00    +0.000 C 
ATOM     17  C   UNL     1       5.705   3.694  15.623  0.00  0.00    +0.000 C 
ENDBRANCH   4  12
BRANCH   8  18
ATOM     18  C   UNL     1       1.090   8.545  20.652  0.00  0.00    +0.000 A 
ATOM     19  C   UNL     1       1.001   9.562  19.682  0.00  0.00    +0.000 A 
ATOM     20  C   UNL     1       0.525  10.840  19.996  0.00  0.00    +0.000 A 
ATOM     21  C   UNL     1       0.109  11.129  21.291  0.00  0.00    +0.000 A 
ATOM     22  C   UNL     1       0.181  10.137  22.260  0.00  0.00    +0.000 A 
ATOM     23  C   UNL     1       0.669   8.867  21.955  0.00  0.00    +0.000 A 
BRANCH  22  24
ATOM     24  O   UNL     1      -0.220  10.370  23.543  0.00  0.00    +0.000 OA
ATOM     25  H   UNL     1      -1.110  10.000  23.662  0.00  0.00    +0.000 HD
ENDBRANCH  22  24
ENDBRANCH   8  18
TORSDOF 3
ENDMDL
MODEL 4
REMARK VINA RESULT:      -7.8      2.643      4.801
REMARK  Name = 
REMARK  3 active torsions:
REMARK  status: ('A' for Active; 'I' for Inactive)
REMARK    1  A    between atoms: C_4  and  N_5
REMARK    2  A    between atoms: C_14  and  C_15
REMARK    3  A    between atoms: C_19  and  O_20
REMARK                            x       y       z     vdW  Elec       q    Type
REMARK                         _______ _______ _______ _____ _____    ______ ____
ROOT
ATOM      1  O   UNL     1       0.050   9.129  22.330  0.00  0.00    +0.000 OA
ATOM      2  C   UNL     1       0.485   9.478  21.242  0.00  0.00    +0.000 A 
ATOM      3  C   UNL     1       0.304  10.851  20.754  0.00  0.00    +0.000 A 
ATOM      4  C   UNL     1       0.751  11.218  19.542  0.00  0.00    +0.000 A 
ATOM      5  O   UNL     1       1.391  10.314  18.690  0.00  0.00    +0.000 OA
ATOM      6  C   UNL     1       1.658   9.042  19.134  0.00  0.00    +0.000 A 
ATOM      7  C   UNL     1       2.391   8.203  18.287  0.00  0.00    +0.000 A 
ATOM      8  C   UNL     1       2.710   6.881  18.663  0.00  0.00    +0.000 A 
ATOM      9  C   UNL     1       2.253   6.438  19.920  0.00  0.00    +0.000 A 
ATOM     10  C   UNL     1       1.513   7.269  20.765  0.00  0.00    +0.000 A 
ATOM     11  C   UNL     1       1.229   8.572  20.365  0.00  0.00    +0.000 A 
ENDROOT
BRANCH   4  12
ATOM     12  N   UNL     1       0.635  12.514  19.044  0.00  0.00    +0.000 N 
ATOM     13  C   UNL     1       1.747  13.202  18.356  0.00  0.00    +0.000 C 
ATOM     14  C   UNL     1       1.823  14.670  18.799  0.00  0.00    +0.000 C 
ATOM     15  O   UNL     1       0.570  15.350  18.612  0.00  0.00    +0.000 OA
ATOM     16  C   UNL     1      -0.466  14.691  19.353  0.00  0.00    +0.000 C 
ATOM     17  C   UNL     1      -0.643  13.236  18.893  0.00  0.00    +0.000 C 
ENDBRANCH   4  12
BRANCH   8  18
ATOM     18  C   UNL     1       3.495   5.987  17.775  0.00  0.00    +0.000 A 
ATOM     19  C   UNL     1       3.250   4.600  17.730  0.00  0.00    +0.000 A 
ATOM     20  C   UNL     1       3.995   3.748  16.907  0.00  0.00    +0.000 A 
ATOM     21  C   UNL     1       4.997   4.265  16.093  0.00  0.00    +0.000 A 
ATOM     22  C   UNL     1       5.247   5.631  16.118  0.00  0.00    +0.000 A 
ATOM     23  C   UNL     1       4.519   6.482  16.947  0.00  0.00    +0.000 A 
BRANCH  22  24
ATOM     24  O   UNL     1       6.216   6.187  15.333  0.00  0.00    +0.000 OA
ATOM     25  H   UNL     1       6.868   6.620  15.907  0.00  0.00    +0.000 HD
ENDBRANCH  22  24
ENDBRANCH   8  18
TORSDOF 3
ENDMDL
MODEL 5
REMARK VINA RESULT:      -7.7      1.363      1.822
REMARK  Name = 
REMARK  3 active torsions:
REMARK  status: ('A' for Active; 'I' for Inactive)
REMARK    1  A    between atoms: C_4  and  N_5
REMARK    2  A    between atoms: C_14  and  C_15
REMARK    3  A    between atoms: C_19  and  O_20
REMARK                            x       y       z     vdW  Elec       q    Type
REMARK                         _______ _______ _______ _____ _____    ______ ____
ROOT
ATOM      1  O   UNL     1       1.475   3.677  21.020  0.00  0.00    +0.000 OA
ATOM      2  C   UNL     1       1.823   4.695  20.439  0.00  0.00    +0.000 A 
ATOM      3  C   UNL     1       1.359   6.017  20.876  0.00  0.00    +0.000 A 
ATOM      4  C   UNL     1       1.713   7.128  20.210  0.00  0.00    +0.000 A 
ATOM      5  O   UNL     1       2.522   7.076  19.072  0.00  0.00    +0.000 OA
ATOM      6  C   UNL     1       3.049   5.873  18.674  0.00  0.00    +0.000 A 
ATOM      7  C   UNL     1       3.935   5.883  17.590  0.00  0.00    +0.000 A 
ATOM      8  C   UNL     1       4.523   4.692  17.114  0.00  0.00    +0.000 A 
ATOM      9  C   UNL     1       4.174   3.493  17.767  0.00  0.00    +0.000 A 
ATOM     10  C   UNL     1       3.283   3.477  18.843  0.00  0.00    +0.000 A 
ATOM     11  C   UNL     1       2.733   4.675  19.293  0.00  0.00    +0.000 A 
ENDROOT
BRANCH   4  12
ATOM     12  N   UNL     1       1.329   8.410  20.600  0.00  0.00    +0.000 N 
ATOM     13  C   UNL     1       1.404   8.868  22.003  0.00  0.00    +0.000 C 
ATOM     14  C   UNL     1       0.158   9.690  22.365  0.00  0.00    +0.000 C 
ATOM     15  O   UNL     1      -0.046  10.781  21.451  0.00  0.00    +0.000 OA
ATOM     16  C   UNL     1      -0.186  10.285  20.112  0.00  0.00    +0.000 C 
ATOM     17  C   UNL     1       1.070   9.522  19.666  0.00  0.00    +0.000 C 
ENDBRANCH   4  12
BRANCH   8  18
ATOM     18  C   UNL     1       5.470   4.694  15.972  0.00  0.00    +0.000 A 
ATOM     19  C   UNL     1       6.617   5.512  15.973  0.00  0.00    +0.000 A 
ATOM     20  C   UNL     1       7.509   5.531  14.894  0.00  0.00    +0.000 A 
ATOM     21  C   UNL     1       7.282   4.718  13.789  0.00  0.00    +0.000 A 
ATOM     22  C   UNL     1       6.161   3.899  13.772  0.00  0.00    +0.000 A 
ATOM     23  C   UNL     1       5.262   3.888  14.838  0.00  0.00    +0.000 A 
BRANCH  22  24
ATOM     24  O   UNL     1       5.898   3.080  12.713  0.00  0.00    +0.000 OA
ATOM     25  H   UNL     1       5.197   3.482  12.177  0.00  0.00    +0.000 HD
ENDBRANCH  22  24
ENDBRANCH   8  18
TORSDOF 3
ENDMDL
MODEL 6
REMARK VINA RESULT:      -7.7      2.319      3.620
REMARK  Name = 
REMARK  3 active torsions:
REMARK  status: ('A' for Active; 'I' for Inactive)
REMARK    1  A    between atoms: C_4  and  N_5
REMARK    2  A    between atoms: C_14  and  C_15
REMARK    3  A    between atoms: C_19  and  O_20
REMARK                            x       y       z     vdW  Elec       q    Type
REMARK                         _______ _______ _______ _____ _____    ______ ____
ROOT
ATOM      1  O   UNL     1       0.651   7.542  21.598  0.00  0.00    +0.000 OA
ATOM      2  C   UNL     1       1.075   8.109  20.601  0.00  0.00    +0.000 A 
ATOM      3  C   UNL     1       0.629   9.462  20.246  0.00  0.00    +0.000 A 
ATOM      4  C   UNL     1       1.069  10.064  19.129  0.00  0.00    +0.000 A 
ATOM      5  O   UNL     1       1.955   9.430  18.253  0.00  0.00    +0.000 OA
ATOM      6  C   UNL     1       2.466   8.199  18.584  0.00  0.00    +0.000 A 
ATOM      7  C   UNL     1       3.427   7.648  17.730  0.00  0.00    +0.000 A 
ATOM      8  C   UNL     1       4.005   6.388  17.992  0.00  0.00    +0.000 A 
ATOM      9  C   UNL     1       3.568   5.705  19.145  0.00  0.00    +0.000 A 
ATOM     10  C   UNL     1       2.602   6.247  19.996  0.00  0.00    +0.000 A 
ATOM     11  C   UNL     1       2.064   7.500  19.710  0.00  0.00    +0.000 A 
ENDROOT
BRANCH   4  12
ATOM     12  N   UNL     1       0.703  11.357  18.761  0.00  0.00    +0.000 N 
ATOM     13  C   UNL     1       1.698  12.407  18.457  0.00  0.00    +0.000 C 
ATOM     14  C   UNL     1       1.262  13.749  19.062  0.00  0.00    +0.000 C 
ATOM     15  O   UNL     1      -0.061  14.120  18.639  0.00  0.00    +0.000 OA
ATOM     16  C   UNL     1      -1.004  13.108  19.017  0.00  0.00    +0.000 C 
ATOM     17  C   UNL     1      -0.662  11.757  18.371  0.00  0.00    +0.000 C 
ENDBRANCH   4  12
BRANCH   8  18
ATOM     18  C   UNL     1       5.032   5.800  17.097  0.00  0.00    +0.000 A 
ATOM     19  C   UNL     1       4.900   5.857  15.695  0.00  0.00    +0.000 A 
ATOM     20  C   UNL     1       5.856   5.292  14.843  0.00  0.00    +0.000 A 
ATOM     21  C   UNL     1       6.979   4.667  15.373  0.00  0.00    +0.000 A 
ATOM     22  C   UNL     1       7.130   4.608  16.752  0.00  0.00    +0.000 A 
ATOM     23  C   UNL     1       6.174   5.156  17.605  0.00  0.00    +0.000 A 
BRANCH  22  24
ATOM     24  O   UNL     1       8.218   4.010  17.320  0.00  0.00    +0.000 OA
ATOM     25  H   UNL     1       8.241   4.240  18.263  0.00  0.00    +0.000 HD
ENDBRANCH  22  24
ENDBRANCH   8  18
TORSDOF 3
ENDMDL
MODEL 7
REMARK VINA RESULT:      -7.6      0.796      1.269
REMARK  Name = 
REMARK  3 active torsions:
REMARK  status: ('A' for Active; 'I' for Inactive)
REMARK    1  A    between atoms: C_4  and  N_5
REMARK    2  A    between atoms: C_14  and  C_15
REMARK    3  A    between atoms: C_19  and  O_20
REMARK                            x       y       z     vdW  Elec       q    Type
REMARK                         _______ _______ _______ _____ _____    ______ ____
ROOT
ATOM      1  O   UNL     1       2.752   4.399  20.922  0.00  0.00    +0.000 OA
ATOM      2  C   UNL     1       2.792   5.261  20.056  0.00  0.00    +0.000 A 
ATOM      3  C   UNL     1       2.117   6.552  20.234  0.00  0.00    +0.000 A 
ATOM      4  C   UNL     1       2.132   7.479  19.262  0.00  0.00    +0.000 A 
ATOM      5  O   UNL     1       2.774   7.255  18.042  0.00  0.00    +0.000 OA
ATOM      6  C   UNL     1       3.491   6.097  17.860  0.00  0.00    +0.000 A 
ATOM      7  C   UNL     1       4.202   5.960  16.663  0.00  0.00    +0.000 A 
ATOM      8  C   UNL     1       4.964   4.804  16.392  0.00  0.00    +0.000 A 
ATOM      9  C   UNL     1       4.971   3.791  17.372  0.00  0.00    +0.000 A 
ATOM     10  C   UNL     1       4.256   3.919  18.564  0.00  0.00    +0.000 A 
ATOM     11  C   UNL     1       3.526   5.082  18.801  0.00  0.00    +0.000 A 
ENDROOT
BRANCH   4  12
ATOM     12  N   UNL     1       1.536   8.732  19.391  0.00  0.00    +0.000 N 
ATOM     13  C   UNL     1       1.364   9.650  18.245  0.00  0.00    +0.000 C 
ATOM     14  C   UNL     1       1.680  11.093  18.664  0.00  0.00    +0.000 C 
ATOM     15  O   UNL     1       0.904  11.501  19.804  0.00  0.00    +0.000 OA
ATOM     16  C   UNL     1       1.156  10.626  20.912  0.00  0.00    +0.000 C 
ATOM     17  C   UNL     1       0.778   9.176  20.577  0.00  0.00    +0.000 C 
ENDBRANCH   4  12
BRANCH   8  18
ATOM     18  C   UNL     1       5.729   4.653  15.129  0.00  0.00    +0.000 A 
ATOM     19  C   UNL     1       5.289   3.792  14.104  0.00  0.00    +0.000 A 
ATOM     20  C   UNL     1       6.011   3.633  12.916  0.00  0.00    +0.000 A 
ATOM     21  C   UNL     1       7.189   4.345  12.716  0.00  0.00    +0.000 A 
ATOM     22  C   UNL     1       7.635   5.204  13.712  0.00  0.00    +0.000 A 
ATOM     23  C   UNL     1       6.927   5.355  14.903  0.00  0.00    +0.000 A 
BRANCH  22  24
ATOM     24  O   UNL     1       8.781   5.928  13.561  0.00  0.00    +0.000 OA
ATOM     25  H   UNL     1       9.139   6.131  14.440  0.00  0.00    +0.000 HD
ENDBRANCH  22  24
ENDBRANCH   8  18
TORSDOF 3
ENDMDL
MODEL 8
REMARK VINA RESULT:      -7.6      4.263      6.219
REMARK  Name = 
REMARK  3 active torsions:
REMARK  status: ('A' for Active; 'I' for Inactive)
REMARK    1  A    between atoms: C_4  and  N_5
REMARK    2  A    between atoms: C_14  and  C_15
REMARK    3  A    between atoms: C_19  and  O_20
REMARK                            x       y       z     vdW  Elec       q    Type
REMARK                         _______ _______ _______ _____ _____    ______ ____
ROOT
ATOM      1  O   UNL     1       2.254  10.826  17.336  0.00  0.00    +0.000 OA
ATOM      2  C   UNL     1       1.703  10.356  18.321  0.00  0.00    +0.000 A 
ATOM      3  C   UNL     1       0.741  11.142  19.103  0.00  0.00    +0.000 A 
ATOM      4  C   UNL     1       0.169  10.633  20.207  0.00  0.00    +0.000 A 
ATOM      5  O   UNL     1       0.471   9.349  20.666  0.00  0.00    +0.000 OA
ATOM      6  C   UNL     1       1.300   8.545  19.923  0.00  0.00    +0.000 A 
ATOM      7  C   UNL     1       1.493   7.232  20.366  0.00  0.00    +0.000 A 
ATOM      8  C   UNL     1       2.329   6.337  19.665  0.00  0.00    +0.000 A 
ATOM      9  C   UNL     1       2.968   6.824  18.506  0.00  0.00    +0.000 A 
ATOM     10  C   UNL     1       2.785   8.136  18.065  0.00  0.00    +0.000 A 
ATOM     11  C   UNL     1       1.942   8.986  18.777  0.00  0.00    +0.000 A 
ENDROOT
BRANCH   4  12
ATOM     12  N   UNL     1      -0.774  11.322  20.967  0.00  0.00    +0.000 N 
ATOM     13  C   UNL     1      -1.899  12.061  20.356  0.00  0.00    +0.000 C 
ATOM     14  C   UNL     1      -2.114  13.400  21.076  0.00  0.00    +0.000 C 
ATOM     15  O   UNL     1      -2.291  13.222  22.492  0.00  0.00    +0.000 OA
ATOM     16  C   UNL     1      -1.146  12.567  23.055  0.00  0.00    +0.000 C 
ATOM     17  C   UNL     1      -0.930  11.182  22.427  0.00  0.00    +0.000 C 
ENDBRANCH   4  12
BRANCH   8  18
ATOM     18  C   UNL     1       2.533   4.941  20.122  0.00  0.00    +0.000 A 
ATOM     19  C   UNL     1       1.586   4.291  20.939  0.00  0.00    +0.000 A 
ATOM     20  C   UNL     1       1.777   2.979  21.387  0.00  0.00    +0.000 A 
ATOM     21  C   UNL     1       2.917   2.275  21.015  0.00  0.00    +0.000 A 
ATOM     22  C   UNL     1       3.858   2.895  20.204  0.00  0.00    +0.000 A 
ATOM     23  C   UNL     1       3.680   4.207  19.768  0.00  0.00    +0.000 A 
BRANCH  22  24
ATOM     24  O   UNL     1       4.990   2.245  19.809  0.00  0.00    +0.000 OA
ATOM     25  H   UNL     1       4.996   2.194  18.839  0.00  0.00    +0.000 HD
ENDBRANCH  22  24
ENDBRANCH   8  18
TORSDOF 3
ENDMDL
MODEL 9
REMARK VINA RESULT:      -7.6      2.691      5.010
REMARK  Name = 
REMARK  3 active torsions:
REMARK  status: ('A' for Active; 'I' for Inactive)
REMARK    1  A    between atoms: C_4  and  N_5
REMARK    2  A    between atoms: C_14  and  C_15
REMARK    3  A    between atoms: C_19  and  O_20
REMARK                            x       y       z     vdW  Elec       q    Type
REMARK                         _______ _______ _______ _____ _____    ______ ____
ROOT
ATOM      1  O   UNL     1      -0.218   8.889  22.384  0.00  0.00    +0.000 OA
ATOM      2  C   UNL     1       0.241   9.307  21.331  0.00  0.00    +0.000 A 
ATOM      3  C   UNL     1       0.001  10.687  20.891  0.00  0.00    +0.000 A 
ATOM      4  C   UNL     1       0.475  11.129  19.714  0.00  0.00    +0.000 A 
ATOM      5  O   UNL     1       1.200  10.299  18.856  0.00  0.00    +0.000 OA
ATOM      6  C   UNL     1       1.522   9.027  19.260  0.00  0.00    +0.000 A 
ATOM      7  C   UNL     1       2.336   8.267  18.413  0.00  0.00    +0.000 A 
ATOM      8  C   UNL     1       2.715   6.950  18.748  0.00  0.00    +0.000 A 
ATOM      9  C   UNL     1       2.233   6.430  19.966  0.00  0.00    +0.000 A 
ATOM     10  C   UNL     1       1.413   7.181  20.811  0.00  0.00    +0.000 A 
ATOM     11  C   UNL     1       1.071   8.482  20.451  0.00  0.00    +0.000 A 
ENDROOT
BRANCH   4  12
ATOM     12  N   UNL     1       0.304  12.436  19.263  0.00  0.00    +0.000 N 
ATOM     13  C   UNL     1       1.365  13.172  18.544  0.00  0.00    +0.000 C 
ATOM     14  C   UNL     1       1.430  14.627  19.029  0.00  0.00    +0.000 C 
ATOM     15  O   UNL     1       0.154  15.282  18.925  0.00  0.00    +0.000 OA
ATOM     16  C   UNL     1      -0.828  14.576  19.696  0.00  0.00    +0.000 C 
ATOM     17  C   UNL     1      -0.995  13.132  19.199  0.00  0.00    +0.000 C 
ENDBRANCH   4  12
BRANCH   8  18
ATOM     18  C   UNL     1       3.586   6.140  17.861  0.00  0.00    +0.000 A 
ATOM     19  C   UNL     1       4.387   6.743  16.871  0.00  0.00    +0.000 A 
ATOM     20  C   UNL     1       5.200   5.985  16.020  0.00  0.00    +0.000 A 
ATOM     21  C   UNL     1       5.243   4.602  16.147  0.00  0.00    +0.000 A 
ATOM     22  C   UNL     1       4.466   3.989  17.122  0.00  0.00    +0.000 A 
ATOM     23  C   UNL     1       3.643   4.738  17.962  0.00  0.00    +0.000 A 
BRANCH  22  24
ATOM     24  O   UNL     1       4.478   2.635  17.289  0.00  0.00    +0.000 OA
ATOM     25  H   UNL     1       4.067   2.223  16.512  0.00  0.00    +0.000 HD
ENDBRANCH  22  24
ENDBRANCH   8  18
TORSDOF 3
ENDMDL
