MODEL 1
REMARK VINA RESULT:      -7.5      0.000      0.000
REMARK  Name = 
REMARK  10 active torsions:
REMARK  status: ('A' for Active; 'I' for Inactive)
REMARK    1  A    between atoms: C_2  and  C_3
REMARK    2  A    between atoms: C_3  and  C_24
REMARK    3  A    between atoms: C_4  and  C_5
REMARK    4  A    between atoms: C_8  and  O_9
REMARK    5  A    between atoms: O_9  and  C_10
REMARK    6  A    between atoms: C_10  and  C_11
REMARK    7  A    between atoms: C_11  and  O_12
REMARK    8  A    between atoms: C_11  and  C_13
REMARK    9  A    between atoms: C_13  and  N_14
REMARK   10  A    between atoms: N_14  and  C_15
REMARK                            x       y       z     vdW  Elec       q    Type
REMARK                         _______ _______ _______ _____ _____    ______ ____
ROOT
ATOM      1  C   UNL     1       1.489   8.988  19.608  0.00  0.00    +0.000 A 
ATOM      2  C   UNL     1       1.867   7.718  20.040  0.00  0.00    +0.000 A 
ATOM      3  C   UNL     1       2.620   6.890  19.210  0.00  0.00    +0.000 A 
ATOM      4  C   UNL     1       3.004   7.312  17.937  0.00  0.00    +0.000 A 
ATOM      5  C   UNL     1       2.640   8.594  17.511  0.00  0.00    +0.000 A 
ATOM      6  C   UNL     1       1.884   9.433  18.344  0.00  0.00    +0.000 A 
ENDROOT
BRANCH   1   8
ATOM      7  C   UNL     1      -0.427  10.481  20.144  0.00  0.00    +0.000 C 
ATOM      8  C   UNL     1       0.688   9.815  20.512  0.00  0.00    +0.000 C 
BRANCH   7   9
ATOM      9  C   UNL     1      -1.146  11.361  21.101  0.00  0.00    +0.000 A 
ATOM     10  C   UNL     1      -1.149  11.083  22.476  0.00  0.00    +0.000 A 
ATOM     11  C   UNL     1      -1.844  11.902  23.375  0.00  0.00    +0.000 A 
ATOM     12  C   UNL     1      -2.549  13.017  22.918  0.00  0.00    +0.000 A 
ATOM     13 CL   UNL     1      -3.392  13.976  24.080  0.00  0.00    +0.000 Cl
ATOM     14  C   UNL     1      -2.555  13.312  21.554  0.00  0.00    +0.000 A 
ATOM     15 CL   UNL     1      -3.392  14.677  20.903  0.00  0.00    +0.000 Cl
ATOM     16  C   UNL     1      -1.866  12.486  20.657  0.00  0.00    +0.000 A 
ENDBRANCH   7   9
BRANCH   7  18
ATOM     17  N   UNL     1      -1.484  10.026  17.611  0.00  0.00    +0.000 NA
ATOM     18  C   UNL     1      -1.005  10.233  18.759  0.00  0.00    +0.000 C 
ENDBRANCH   7  18
ENDBRANCH   1   8
BRANCH   4  19
ATOM     19  O   UNL     1       3.729   6.554  17.047  0.00  0.00    +0.000 OA
BRANCH  19  20
ATOM     20  C   UNL     1       5.153   6.721  17.140  0.00  0.00    +0.000 C 
BRANCH  20  21
ATOM     21  C   UNL     1       5.879   5.992  16.008  0.00  0.00    +0.000 C 
BRANCH  21  22
ATOM     22  O   UNL     1       7.277   5.867  16.305  0.00  0.00    +0.000 OA
ATOM     23  H   UNL     1       7.758   6.270  15.555  0.00  0.00    +0.000 HD
ENDBRANCH  21  22
BRANCH  21  24
ATOM     24  C   UNL     1       5.265   4.608  15.757  0.00  0.00    +0.000 C 
BRANCH  24  25
ATOM     25  N   UNL     1       5.496   3.749  16.919  0.00  0.00    +0.000 N 
ATOM     26  H   UNL     1       6.377   3.957  17.393  0.00  0.00    +0.000 HD
BRANCH  25  27
ATOM     27  C   UNL     1       4.449   3.501  17.806  0.00  0.00    +0.000 A 
ATOM     28  C   UNL     1       4.582   3.588  19.198  0.00  0.00    +0.000 A 
ATOM     29  C   UNL     1       3.485   3.406  20.045  0.00  0.00    +0.000 A 
ATOM     30  C   UNL     1       2.227   3.170  19.502  0.00  0.00    +0.000 A 
ATOM     31 CL   UNL     1       0.872   2.968  20.541  0.00  0.00    +0.000 Cl
ATOM     32  C   UNL     1       2.059   3.118  18.120  0.00  0.00    +0.000 A 
ATOM     33  C   UNL     1       3.165   3.289  17.283  0.00  0.00    +0.000 A 
ENDBRANCH  25  27
ENDBRANCH  24  25
ENDBRANCH  21  24
ENDBRANCH  20  21
ENDBRANCH  19  20
ENDBRANCH   4  19
TORSDOF 10
ENDMDL
MODEL 2
REMARK VINA RESULT:      -7.5      0.987      1.435
REMARK  Name = 
REMARK  10 active torsions:
REMARK  status: ('A' for Active; 'I' for Inactive)
REMARK    1  A    between atoms: C_2  and  C_3
REMARK    2  A    between atoms: C_3  and  C_24
REMARK    3  A    between atoms: C_4  and  C_5
REMARK    4  A    between atoms: C_8  and  O_9
REMARK    5  A    between atoms: O_9  and  C_10
REMARK    6  A    between atoms: C_10  and  C_11
REMARK    7  A    between atoms: C_11  and  O_12
REMARK    8  A    between atoms: C_11  and  C_13
REMARK    9  A    between atoms: C_13  and  N_14
REMARK   10  A    between atoms: N_14  and  C_15
REMARK                            x       y       z     vdW  Elec       q    Type
REMARK                         _______ _______ _______ _____ _____    ______ ____
ROOT
ATOM      1  C   UNL     1       1.180   9.316  19.553  0.00  0.00    +0.000 A 
ATOM      2  C   UNL     1       1.421   8.120  20.226  0.00  0.00    +0.000 A 
ATOM      3  C   UNL     1       2.189   7.121  19.631  0.00  0.00    +0.000 A 
ATOM      4  C   UNL     1       2.726   7.297  18.355  0.00  0.00    +0.000 A 
ATOM      5  C   UNL     1       2.499   8.505  17.686  0.00  0.00    +0.000 A 
ATOM      6  C   UNL     1       1.728   9.515  18.283  0.00  0.00    +0.000 A 
ENDROOT
BRANCH   1   8
ATOM      7  C   UNL     1      -0.769  10.854  19.689  0.00  0.00    +0.000 C 
ATOM      8  C   UNL     1       0.357  10.328  20.215  0.00  0.00    +0.000 C 
BRANCH   7   9
ATOM      9  C   UNL     1      -1.512  11.934  20.391  0.00  0.00    +0.000 A 
ATOM     10  C   UNL     1      -2.705  12.450  19.865  0.00  0.00    +0.000 A 
ATOM     11  C   UNL     1      -3.393  13.482  20.515  0.00  0.00    +0.000 A 
ATOM     12  C   UNL     1      -2.902  14.018  21.707  0.00  0.00    +0.000 A 
ATOM     13 CL   UNL     1      -3.795  15.295  22.450  0.00  0.00    +0.000 Cl
ATOM     14  C   UNL     1      -1.718  13.516  22.249  0.00  0.00    +0.000 A 
ATOM     15 CL   UNL     1      -1.045  14.114  23.724  0.00  0.00    +0.000 Cl
ATOM     16  C   UNL     1      -1.028  12.490  21.590  0.00  0.00    +0.000 A 
ENDBRANCH   7   9
BRANCH   7  18
ATOM     17  N   UNL     1      -1.802   9.749  17.355  0.00  0.00    +0.000 NA
ATOM     18  C   UNL     1      -1.333  10.250  18.413  0.00  0.00    +0.000 C 
ENDBRANCH   7  18
ENDBRANCH   1   8
BRANCH   4  19
ATOM     19  O   UNL     1       3.476   6.359  17.686  0.00  0.00    +0.000 OA
BRANCH  19  20
ATOM     20  C   UNL     1       4.716   6.854  17.153  0.00  0.00    +0.000 C 
BRANCH  20  21
ATOM     21  C   UNL     1       5.474   5.766  16.391  0.00  0.00    +0.000 C 
BRANCH  21  22
ATOM     22  O   UNL     1       6.660   6.306  15.791  0.00  0.00    +0.000 OA
ATOM     23  H   UNL     1       6.900   5.705  15.057  0.00  0.00    +0.000 HD
ENDBRANCH  21  22
BRANCH  21  24
ATOM     24  C   UNL     1       5.833   4.592  17.311  0.00  0.00    +0.000 C 
BRANCH  24  25
ATOM     25  N   UNL     1       4.835   3.533  17.171  0.00  0.00    +0.000 N 
ATOM     26  H   UNL     1       5.206   2.701  16.709  0.00  0.00    +0.000 HD
BRANCH  25  27
ATOM     27  C   UNL     1       4.004   3.229  18.249  0.00  0.00    +0.000 A 
ATOM     28  C   UNL     1       4.484   2.834  19.505  0.00  0.00    +0.000 A 
ATOM     29  C   UNL     1       3.616   2.613  20.578  0.00  0.00    +0.000 A 
ATOM     30  C   UNL     1       2.251   2.824  20.415  0.00  0.00    +0.000 A 
ATOM     31 CL   UNL     1       1.185   2.574  21.740  0.00  0.00    +0.000 Cl
ATOM     32  C   UNL     1       1.751   3.253  19.188  0.00  0.00    +0.000 A 
ATOM     33  C   UNL     1       2.627   3.459  18.118  0.00  0.00    +0.000 A 
ENDBRANCH  25  27
ENDBRANCH  24  25
ENDBRANCH  21  24
ENDBRANCH  20  21
ENDBRANCH  19  20
ENDBRANCH   4  19
TORSDOF 10
ENDMDL
MODEL 3
REMARK VINA RESULT:      -7.4      0.518      1.319
REMARK  Name = 
REMARK  10 active torsions:
REMARK  status: ('A' for Active; 'I' for Inactive)
REMARK    1  A    between atoms: C_2  and  C_3
REMARK    2  A    between atoms: C_3  and  C_24
REMARK    3  A    between atoms: C_4  and  C_5
REMARK    4  A    between atoms: C_8  and  O_9
REMARK    5  A    between atoms: O_9  and  C_10
REMARK    6  A    between atoms: C_10  and  C_11
REMARK    7  A    between atoms: C_11  and  O_12
REMARK    8  A    between atoms: C_11  and  C_13
REMARK    9  A    between atoms: C_13  and  N_14
REMARK   10  A    between atoms: N_14  and  C_15
REMARK                            x       y       z     vdW  Elec       q    Type
REMARK                         _______ _______ _______ _____ _____    ______ ____
ROOT
ATOM      1  C   UNL     1       1.464   8.964  19.680  0.00  0.00    +0.000 A 
ATOM      2  C   UNL     1       1.889   9.407  18.429  0.00  0.00    +0.000 A 
ATOM      3  C   UNL     1       2.642   8.572  17.606  0.00  0.00    +0.000 A 
ATOM      4  C   UNL     1       2.986   7.284  18.019  0.00  0.00    +0.000 A 
ATOM      5  C   UNL     1       2.545   6.833  19.267  0.00  0.00    +0.000 A 
ATOM      6  C   UNL     1       1.784   7.670  20.098  0.00  0.00    +0.000 A 
ENDROOT
BRANCH   1   8
ATOM      7  C   UNL     1      -0.401  10.559  20.086  0.00  0.00    +0.000 C 
ATOM      8  C   UNL     1       0.687   9.884  20.512  0.00  0.00    +0.000 C 
BRANCH   7   9
ATOM      9  C   UNL     1      -1.094  11.532  20.969  0.00  0.00    +0.000 A 
ATOM     10  C   UNL     1      -0.716  11.688  22.310  0.00  0.00    +0.000 A 
ATOM     11  C   UNL     1      -1.384  12.591  23.147  0.00  0.00    +0.000 A 
ATOM     12  C   UNL     1      -2.443  13.358  22.659  0.00  0.00    +0.000 A 
ATOM     13 CL   UNL     1      -3.228  14.443  23.748  0.00  0.00    +0.000 Cl
ATOM     14  C   UNL     1      -2.833  13.220  21.326  0.00  0.00    +0.000 A 
ATOM     15 CL   UNL     1      -4.125  14.137  20.636  0.00  0.00    +0.000 Cl
ATOM     16  C   UNL     1      -2.168  12.310  20.494  0.00  0.00    +0.000 A 
ENDBRANCH   7   9
BRANCH   7  18
ATOM     17  N   UNL     1      -1.456   9.956  17.583  0.00  0.00    +0.000 NA
ATOM     18  C   UNL     1      -0.978  10.229  18.718  0.00  0.00    +0.000 C 
ENDBRANCH   7  18
ENDBRANCH   1   8
BRANCH   4  19
ATOM     19  O   UNL     1       3.742   6.403  17.281  0.00  0.00    +0.000 OA
BRANCH  19  20
ATOM     20  C   UNL     1       5.153   6.455  17.550  0.00  0.00    +0.000 C 
BRANCH  20  21
ATOM     21  C   UNL     1       5.944   5.591  16.566  0.00  0.00    +0.000 C 
BRANCH  21  22
ATOM     22  O   UNL     1       7.108   5.044  17.201  0.00  0.00    +0.000 OA
ATOM     23  H   UNL     1       7.676   5.802  17.442  0.00  0.00    +0.000 HD
ENDBRANCH  21  22
BRANCH  21  24
ATOM     24  C   UNL     1       5.073   4.464  15.995  0.00  0.00    +0.000 C 
BRANCH  24  25
ATOM     25  N   UNL     1       5.070   3.329  16.918  0.00  0.00    +0.000 N 
ATOM     26  H   UNL     1       6.005   3.093  17.255  0.00  0.00    +0.000 HD
BRANCH  25  27
ATOM     27  C   UNL     1       4.101   3.264  17.919  0.00  0.00    +0.000 A 
ATOM     28  C   UNL     1       2.727   3.174  17.657  0.00  0.00    +0.000 A 
ATOM     29  C   UNL     1       1.798   3.033  18.691  0.00  0.00    +0.000 A 
ATOM     30  C   UNL     1       2.239   2.942  20.006  0.00  0.00    +0.000 A 
ATOM     31 CL   UNL     1       1.100   2.747  21.278  0.00  0.00    +0.000 Cl
ATOM     32  C   UNL     1       3.602   2.990  20.292  0.00  0.00    +0.000 A 
ATOM     33  C   UNL     1       4.521   3.143  19.251  0.00  0.00    +0.000 A 
ENDBRANCH  25  27
ENDBRANCH  24  25
ENDBRANCH  21  24
ENDBRANCH  20  21
ENDBRANCH  19  20
ENDBRANCH   4  19
TORSDOF 10
ENDMDL
MODEL 4
REMARK VINA RESULT:      -7.4      1.458      2.163
REMARK  Name = 
REMARK  10 active torsions:
REMARK  status: ('A' for Active; 'I' for Inactive)
REMARK    1  A    between atoms: C_2  and  C_3
REMARK    2  A    between atoms: C_3  and  C_24
REMARK    3  A    between atoms: C_4  and  C_5
REMARK    4  A    between atoms: C_8  and  O_9
REMARK    5  A    between atoms: O_9  and  C_10
REMARK    6  A    between atoms: C_10  and  C_11
REMARK    7  A    between atoms: C_11  and  O_12
REMARK    8  A    between atoms: C_11  and  C_13
REMARK    9  A    between atoms: C_13  and  N_14
REMARK   10  A    between atoms: N_14  and  C_15
REMARK                            x       y       z     vdW  Elec       q    Type
REMARK                         _______ _______ _______ _____ _____    ______ ____
ROOT
ATOM      1  C   UNL     1       1.438   8.861  18.983  0.00  0.00    +0.000 A 
ATOM      2  C   UNL     1       2.240   9.067  17.862  0.00  0.00    +0.000 A 
ATOM      3  C   UNL     1       3.267   8.176  17.559  0.00  0.00    +0.000 A 
ATOM      4  C   UNL     1       3.514   7.067  18.371  0.00  0.00    +0.000 A 
ATOM      5  C   UNL     1       2.697   6.850  19.486  0.00  0.00    +0.000 A 
ATOM      6  C   UNL     1       1.660   7.744  19.793  0.00  0.00    +0.000 A 
ENDROOT
BRANCH   1   8
ATOM      7  C   UNL     1       0.062  10.271  20.500  0.00  0.00    +0.000 C 
ATOM      8  C   UNL     1       0.381   9.833  19.265  0.00  0.00    +0.000 C 
BRANCH   7   9
ATOM      9  C   UNL     1      -1.074  11.204  20.714  0.00  0.00    +0.000 A 
ATOM     10  C   UNL     1      -1.853  11.653  19.637  0.00  0.00    +0.000 A 
ATOM     11  C   UNL     1      -2.911  12.548  19.837  0.00  0.00    +0.000 A 
ATOM     12  C   UNL     1      -3.214  13.012  21.119  0.00  0.00    +0.000 A 
ATOM     13 CL   UNL     1      -4.525  14.122  21.291  0.00  0.00    +0.000 Cl
ATOM     14  C   UNL     1      -2.453  12.574  22.204  0.00  0.00    +0.000 A 
ATOM     15 CL   UNL     1      -2.765  13.089  23.824  0.00  0.00    +0.000 Cl
ATOM     16  C   UNL     1      -1.390  11.686  21.999  0.00  0.00    +0.000 A 
ENDBRANCH   7   9
BRANCH   7  18
ATOM     17  N   UNL     1       1.695   9.559  22.637  0.00  0.00    +0.000 NA
ATOM     18  C   UNL     1       0.955   9.882  21.669  0.00  0.00    +0.000 C 
ENDBRANCH   7  18
ENDBRANCH   1   8
BRANCH   4  19
ATOM     19  O   UNL     1       4.517   6.150  18.158  0.00  0.00    +0.000 OA
BRANCH  19  20
ATOM     20  C   UNL     1       5.405   6.476  17.075  0.00  0.00    +0.000 C 
BRANCH  20  21
ATOM     21  C   UNL     1       5.284   5.470  15.929  0.00  0.00    +0.000 C 
BRANCH  21  22
ATOM     22  O   UNL     1       6.418   5.566  15.056  0.00  0.00    +0.000 OA
ATOM     23  H   UNL     1       6.954   4.762  15.206  0.00  0.00    +0.000 HD
ENDBRANCH  21  22
BRANCH  21  24
ATOM     24  C   UNL     1       5.145   4.038  16.461  0.00  0.00    +0.000 C 
BRANCH  24  25
ATOM     25  N   UNL     1       3.729   3.678  16.541  0.00  0.00    +0.000 N 
ATOM     26  H   UNL     1       3.440   3.051  15.789  0.00  0.00    +0.000 HD
BRANCH  25  27
ATOM     27  C   UNL     1       3.180   3.333  17.776  0.00  0.00    +0.000 A 
ATOM     28  C   UNL     1       3.944   2.888  18.863  0.00  0.00    +0.000 A 
ATOM     29  C   UNL     1       3.358   2.628  20.105  0.00  0.00    +0.000 A 
ATOM     30  C   UNL     1       1.997   2.847  20.284  0.00  0.00    +0.000 A 
ATOM     31 CL   UNL     1       1.279   2.548  21.816  0.00  0.00    +0.000 Cl
ATOM     32  C   UNL     1       1.220   3.326  19.231  0.00  0.00    +0.000 A 
ATOM     33  C   UNL     1       1.814   3.572  17.990  0.00  0.00    +0.000 A 
ENDBRANCH  25  27
ENDBRANCH  24  25
ENDBRANCH  21  24
ENDBRANCH  20  21
ENDBRANCH  19  20
ENDBRANCH   4  19
TORSDOF 10
ENDMDL
MODEL 5
REMARK VINA RESULT:      -7.3      1.533      1.867
REMARK  Name = 
REMARK  10 active torsions:
REMARK  status: ('A' for Active; 'I' for Inactive)
REMARK    1  A    between atoms: C_2  and  C_3
REMARK    2  A    between atoms: C_3  and  C_24
REMARK    3  A    between atoms: C_4  and  C_5
REMARK    4  A    between atoms: C_8  and  O_9
REMARK    5  A    between atoms: O_9  and  C_10
REMARK    6  A    between atoms: C_10  and  C_11
REMARK    7  A    between atoms: C_11  and  O_12
REMARK    8  A    between atoms: C_11  and  C_13
REMARK    9  A    between atoms: C_13  and  N_14
REMARK   10  A    between atoms: N_14  and  C_15
REMARK                            x       y       z     vdW  Elec       q    Type
REMARK                         _______ _______ _______ _____ _____    ______ ____
ROOT
ATOM      1  C   UNL     1       1.089   8.960  19.967  0.00  0.00    +0.000 A 
ATOM      2  C   UNL     1       1.227   9.274  18.616  0.00  0.00    +0.000 A 
ATOM      3  C   UNL     1       2.039   8.496  17.793  0.00  0.00    +0.000 A 
ATOM      4  C   UNL     1       2.728   7.395  18.304  0.00  0.00    +0.000 A 
ATOM      5  C   UNL     1       2.575   7.069  19.656  0.00  0.00    +0.000 A 
ATOM      6  C   UNL     1       1.757   7.848  20.488  0.00  0.00    +0.000 A 
ENDROOT
BRANCH   1   8
ATOM      7  C   UNL     1       0.383  11.152  20.906  0.00  0.00    +0.000 C 
ATOM      8  C   UNL     1       0.236   9.815  20.793  0.00  0.00    +0.000 C 
BRANCH   7   9
ATOM      9  C   UNL     1      -0.478  11.943  21.823  0.00  0.00    +0.000 A 
ATOM     10  C   UNL     1      -1.566  11.353  22.483  0.00  0.00    +0.000 A 
ATOM     11  C   UNL     1      -2.388  12.104  23.331  0.00  0.00    +0.000 A 
ATOM     12  C   UNL     1      -2.139  13.462  23.538  0.00  0.00    +0.000 A 
ATOM     13 CL   UNL     1      -3.200  14.330  24.588  0.00  0.00    +0.000 Cl
ATOM     14  C   UNL     1      -1.060  14.068  22.893  0.00  0.00    +0.000 A 
ATOM     15 CL   UNL     1      -0.673  15.739  23.101  0.00  0.00    +0.000 Cl
ATOM     16  C   UNL     1      -0.245  13.315  22.039  0.00  0.00    +0.000 A 
ENDBRANCH   7   9
BRANCH   7  18
ATOM     17  N   UNL     1       2.198  12.445  19.241  0.00  0.00    +0.000 NA
ATOM     18  C   UNL     1       1.375  11.859  19.996  0.00  0.00    +0.000 C 
ENDBRANCH   7  18
ENDBRANCH   1   8
BRANCH   4  19
ATOM     19  O   UNL     1       3.564   6.587  17.569  0.00  0.00    +0.000 OA
BRANCH  19  20
ATOM     20  C   UNL     1       4.780   7.221  17.137  0.00  0.00    +0.000 C 
BRANCH  20  21
ATOM     21  C   UNL     1       5.953   6.239  17.134  0.00  0.00    +0.000 C 
BRANCH  21  22
ATOM     22  O   UNL     1       7.159   6.899  16.723  0.00  0.00    +0.000 OA
ATOM     23  H   UNL     1       7.513   7.352  17.514  0.00  0.00    +0.000 HD
ENDBRANCH  21  22
BRANCH  21  24
ATOM     24  C   UNL     1       6.145   5.600  18.516  0.00  0.00    +0.000 C 
BRANCH  24  25
ATOM     25  N   UNL     1       5.921   4.157  18.427  0.00  0.00    +0.000 N 
ATOM     26  H   UNL     1       6.618   3.618  18.942  0.00  0.00    +0.000 HD
BRANCH  25  27
ATOM     27  C   UNL     1       4.629   3.655  18.577  0.00  0.00    +0.000 A 
ATOM     28  C   UNL     1       3.922   3.694  19.787  0.00  0.00    +0.000 A 
ATOM     29  C   UNL     1       2.601   3.247  19.872  0.00  0.00    +0.000 A 
ATOM     30  C   UNL     1       1.954   2.788  18.730  0.00  0.00    +0.000 A 
ATOM     31 CL   UNL     1       0.322   2.259  18.827  0.00  0.00    +0.000 Cl
ATOM     32  C   UNL     1       2.620   2.774  17.506  0.00  0.00    +0.000 A 
ATOM     33  C   UNL     1       3.945   3.212  17.436  0.00  0.00    +0.000 A 
ENDBRANCH  25  27
ENDBRANCH  24  25
ENDBRANCH  21  24
ENDBRANCH  20  21
ENDBRANCH  19  20
ENDBRANCH   4  19
TORSDOF 10
ENDMDL
MODEL 6
REMARK VINA RESULT:      -7.3      3.330      4.524
REMARK  Name = 
REMARK  10 active torsions:
REMARK  status: ('A' for Active; 'I' for Inactive)
REMARK    1  A    between atoms: C_2  and  C_3
REMARK    2  A    between atoms: C_3  and  C_24
REMARK    3  A    between atoms: C_4  and  C_5
REMARK    4  A    between atoms: C_8  and  O_9
REMARK    5  A    between atoms: O_9  and  C_10
REMARK    6  A    between atoms: C_10  and  C_11
REMARK    7  A    between atoms: C_11  and  O_12
REMARK    8  A    between atoms: C_11  and  C_13
REMARK    9  A    between atoms: C_13  and  N_14
REMARK   10  A    between atoms: N_14  and  C_15
REMARK                            x       y       z     vdW  Elec       q    Type
REMARK                         _______ _______ _______ _____ _____    ______ ____
ROOT
ATOM      1  C   UNL     1       1.903   8.521  19.378  0.00  0.00    +0.000 A 
ATOM      2  C   UNL     1       2.291   7.876  18.205  0.00  0.00    +0.000 A 
ATOM      3  C   UNL     1       2.327   6.484  18.148  0.00  0.00    +0.000 A 
ATOM      4  C   UNL     1       1.982   5.715  19.260  0.00  0.00    +0.000 A 
ATOM      5  C   UNL     1       1.575   6.362  20.431  0.00  0.00    +0.000 A 
ATOM      6  C   UNL     1       1.535   7.763  20.492  0.00  0.00    +0.000 A 
ENDROOT
BRANCH   1   8
ATOM      7  C   UNL     1       0.982  10.744  18.748  0.00  0.00    +0.000 C 
ATOM      8  C   UNL     1       1.893   9.985  19.391  0.00  0.00    +0.000 C 
BRANCH   7   9
ATOM      9  C   UNL     1       1.082  12.227  18.747  0.00  0.00    +0.000 A 
ATOM     10  C   UNL     1      -0.011  13.025  19.116  0.00  0.00    +0.000 A 
ATOM     11  C   UNL     1       0.078  14.422  19.094  0.00  0.00    +0.000 A 
ATOM     12  C   UNL     1       1.262  15.051  18.706  0.00  0.00    +0.000 A 
ATOM     13 CL   UNL     1       1.298  16.777  18.693  0.00  0.00    +0.000 Cl
ATOM     14  C   UNL     1       2.362  14.274  18.338  0.00  0.00    +0.000 A 
ATOM     15 CL   UNL     1       3.869  14.969  17.854  0.00  0.00    +0.000 Cl
ATOM     16  C   UNL     1       2.267  12.877  18.352  0.00  0.00    +0.000 A 
ENDBRANCH   7   9
BRANCH   7  18
ATOM     17  N   UNL     1      -1.213   9.499  17.578  0.00  0.00    +0.000 NA
ATOM     18  C   UNL     1      -0.219  10.063  18.108  0.00  0.00    +0.000 C 
ENDBRANCH   7  18
ENDBRANCH   1   8
BRANCH   4  19
ATOM     19  O   UNL     1       2.009   4.340  19.297  0.00  0.00    +0.000 OA
BRANCH  19  20
ATOM     20  C   UNL     1       3.293   3.776  19.617  0.00  0.00    +0.000 C 
BRANCH  20  21
ATOM     21  C   UNL     1       3.676   2.665  18.638  0.00  0.00    +0.000 C 
BRANCH  21  22
ATOM     22  O   UNL     1       2.689   1.624  18.648  0.00  0.00    +0.000 OA
ATOM     23  H   UNL     1       2.928   1.021  19.380  0.00  0.00    +0.000 HD
ENDBRANCH  21  22
BRANCH  21  24
ATOM     24  C   UNL     1       3.851   3.215  17.216  0.00  0.00    +0.000 C 
BRANCH  24  25
ATOM     25  N   UNL     1       5.274   3.379  16.923  0.00  0.00    +0.000 N 
ATOM     26  H   UNL     1       5.532   3.010  16.006  0.00  0.00    +0.000 HD
BRANCH  25  27
ATOM     27  C   UNL     1       5.898   4.592  17.213  0.00  0.00    +0.000 A 
ATOM     28  C   UNL     1       7.040   4.699  18.018  0.00  0.00    +0.000 A 
ATOM     29  C   UNL     1       7.676   5.927  18.219  0.00  0.00    +0.000 A 
ATOM     30  C   UNL     1       7.193   7.065  17.581  0.00  0.00    +0.000 A 
ATOM     31 CL   UNL     1       7.985   8.573  17.810  0.00  0.00    +0.000 Cl
ATOM     32  C   UNL     1       6.081   6.981  16.746  0.00  0.00    +0.000 A 
ATOM     33  C   UNL     1       5.447   5.749  16.562  0.00  0.00    +0.000 A 
ENDBRANCH  25  27
ENDBRANCH  24  25
ENDBRANCH  21  24
ENDBRANCH  20  21
ENDBRANCH  19  20
ENDBRANCH   4  19
TORSDOF 10
ENDMDL
MODEL 7
REMARK VINA RESULT:      -7.2      3.017      4.365
REMARK  Name = 
REMARK  10 active torsions:
REMARK  status: ('A' for Active; 'I' for Inactive)
REMARK    1  A    between atoms: C_2  and  C_3
REMARK    2  A    between atoms: C_3  and  C_24
REMARK    3  A    between atoms: C_4  and  C_5
REMARK    4  A    between atoms: C_8  and  O_9
REMARK    5  A    between atoms: O_9  and  C_10
REMARK    6  A    between atoms: C_10  and  C_11
REMARK    7  A    between atoms: C_11  and  O_12
REMARK    8  A    between atoms: C_11  and  C_13
REMARK    9  A    between atoms: C_13  and  N_14
REMARK   10  A    between atoms: N_14  and  C_15
REMARK                            x       y       z     vdW  Elec       q    Type
REMARK                         _______ _______ _______ _____ _____    ______ ____
ROOT
ATOM      1  C   UNL     1       2.011   7.656  19.129  0.00  0.00    +0.000 A 
ATOM      2  C   UNL     1       1.940   6.866  17.983  0.00  0.00    +0.000 A 
ATOM      3  C   UNL     1       1.934   5.477  18.088  0.00  0.00    +0.000 A 
ATOM      4  C   UNL     1       2.003   4.853  19.334  0.00  0.00    +0.000 A 
ATOM      5  C   UNL     1       2.056   5.647  20.485  0.00  0.00    +0.000 A 
ATOM      6  C   UNL     1       2.060   7.046  20.385  0.00  0.00    +0.000 A 
ENDROOT
BRANCH   1   8
ATOM      7  C   UNL     1       1.154   9.951  19.560  0.00  0.00    +0.000 C 
ATOM      8  C   UNL     1       2.027   9.111  18.966  0.00  0.00    +0.000 C 
BRANCH   7   9
ATOM      9  C   UNL     1       1.188  11.411  19.286  0.00  0.00    +0.000 A 
ATOM     10  C   UNL     1       2.169  11.968  18.451  0.00  0.00    +0.000 A 
ATOM     11  C   UNL     1       2.213  13.346  18.211  0.00  0.00    +0.000 A 
ATOM     12  C   UNL     1       1.275  14.198  18.799  0.00  0.00    +0.000 A 
ATOM     13 CL   UNL     1       1.395  15.888  18.467  0.00  0.00    +0.000 Cl
ATOM     14  C   UNL     1       0.290  13.663  19.630  0.00  0.00    +0.000 A 
ATOM     15 CL   UNL     1      -0.915  14.643  20.390  0.00  0.00    +0.000 Cl
ATOM     16  C   UNL     1       0.255  12.285  19.875  0.00  0.00    +0.000 A 
ENDBRANCH   7   9
BRANCH   7  18
ATOM     17  N   UNL     1      -0.597   8.936  21.468  0.00  0.00    +0.000 NA
ATOM     18  C   UNL     1       0.197   9.396  20.603  0.00  0.00    +0.000 C 
ENDBRANCH   7  18
ENDBRANCH   1   8
BRANCH   4  19
ATOM     19  O   UNL     1       2.023   3.492  19.528  0.00  0.00    +0.000 OA
BRANCH  19  20
ATOM     20  C   UNL     1       3.158   3.010  20.267  0.00  0.00    +0.000 C 
BRANCH  20  21
ATOM     21  C   UNL     1       4.394   2.881  19.376  0.00  0.00    +0.000 C 
BRANCH  21  22
ATOM     22  O   UNL     1       5.167   1.732  19.752  0.00  0.00    +0.000 OA
ATOM     23  H   UNL     1       4.585   1.174  20.305  0.00  0.00    +0.000 HD
ENDBRANCH  21  22
BRANCH  21  24
ATOM     24  C   UNL     1       4.003   2.793  17.895  0.00  0.00    +0.000 C 
BRANCH  24  25
ATOM     25  N   UNL     1       5.138   3.185  17.061  0.00  0.00    +0.000 N 
ATOM     26  H   UNL     1       4.990   2.981  16.071  0.00  0.00    +0.000 HD
BRANCH  25  27
ATOM     27  C   UNL     1       5.748   4.422  17.272  0.00  0.00    +0.000 A 
ATOM     28  C   UNL     1       7.028   4.566  17.825  0.00  0.00    +0.000 A 
ATOM     29  C   UNL     1       7.629   5.822  17.947  0.00  0.00    +0.000 A 
ATOM     30  C   UNL     1       6.966   6.951  17.479  0.00  0.00    +0.000 A 
ATOM     31 CL   UNL     1       7.713   8.494  17.609  0.00  0.00    +0.000 Cl
ATOM     32  C   UNL     1       5.709   6.832  16.891  0.00  0.00    +0.000 A 
ATOM     33  C   UNL     1       5.112   5.573  16.785  0.00  0.00    +0.000 A 
ENDBRANCH  25  27
ENDBRANCH  24  25
ENDBRANCH  21  24
ENDBRANCH  20  21
ENDBRANCH  19  20
ENDBRANCH   4  19
TORSDOF 10
ENDMDL
MODEL 8
REMARK VINA RESULT:      -7.2      2.652      3.920
REMARK  Name = 
REMARK  10 active torsions:
REMARK  status: ('A' for Active; 'I' for Inactive)
REMARK    1  A    between atoms: C_2  and  C_3
REMARK    2  A    between atoms: C_3  and  C_24
REMARK    3  A    between atoms: C_4  and  C_5
REMARK    4  A    between atoms: C_8  and  O_9
REMARK    5  A    between atoms: O_9  and  C_10
REMARK    6  A    between atoms: C_10  and  C_11
REMARK    7  A    between atoms: C_11  and  O_12
REMARK    8  A    between atoms: C_11  and  C_13
REMARK    9  A    between atoms: C_13  and  N_14
REMARK   10  A    between atoms: N_14  and  C_15
REMARK                            x       y       z     vdW  Elec       q    Type
REMARK                         _______ _______ _______ _____ _____    ______ ____
ROOT
ATOM      1  C   UNL     1       1.301   8.115  19.809  0.00  0.00    +0.000 A 
ATOM      2  C   UNL     1       1.100   7.039  20.672  0.00  0.00    +0.000 A 
ATOM      3  C   UNL     1       1.887   5.894  20.562  0.00  0.00    +0.000 A 
ATOM      4  C   UNL     1       2.884   5.803  19.590  0.00  0.00    +0.000 A 
ATOM      5  C   UNL     1       3.097   6.890  18.736  0.00  0.00    +0.000 A 
ATOM      6  C   UNL     1       2.309   8.046  18.844  0.00  0.00    +0.000 A 
ENDROOT
BRANCH   1   8
ATOM      7  C   UNL     1       0.291   9.983  21.105  0.00  0.00    +0.000 C 
ATOM      8  C   UNL     1       0.440   9.289  19.957  0.00  0.00    +0.000 C 
BRANCH   7   9
ATOM      9  C   UNL     1      -0.660  11.121  21.195  0.00  0.00    +0.000 A 
ATOM     10  C   UNL     1      -0.809  12.025  20.133  0.00  0.00    +0.000 A 
ATOM     11  C   UNL     1      -1.690  13.109  20.228  0.00  0.00    +0.000 A 
ATOM     12  C   UNL     1      -2.442  13.311  21.386  0.00  0.00    +0.000 A 
ATOM     13 CL   UNL     1      -3.501  14.674  21.439  0.00  0.00    +0.000 Cl
ATOM     14  C   UNL     1      -2.311  12.421  22.453  0.00  0.00    +0.000 A 
ATOM     15 CL   UNL     1      -3.210  12.590  23.919  0.00  0.00    +0.000 Cl
ATOM     16  C   UNL     1      -1.422  11.343  22.358  0.00  0.00    +0.000 A 
ENDBRANCH   7   9
BRANCH   7  18
ATOM     17  N   UNL     1       1.942   9.376  23.260  0.00  0.00    +0.000 NA
ATOM     18  C   UNL     1       1.194   9.651  22.283  0.00  0.00    +0.000 C 
ENDBRANCH   7  18
ENDBRANCH   1   8
BRANCH   4  19
ATOM     19  O   UNL     1       3.691   4.706  19.398  0.00  0.00    +0.000 OA
BRANCH  19  20
ATOM     20  C   UNL     1       3.000   3.445  19.418  0.00  0.00    +0.000 C 
BRANCH  20  21
ATOM     21  C   UNL     1       3.439   2.547  18.260  0.00  0.00    +0.000 C 
BRANCH  21  22
ATOM     22  O   UNL     1       2.355   1.706  17.838  0.00  0.00    +0.000 OA
ATOM     23  H   UNL     1       1.744   2.274  17.327  0.00  0.00    +0.000 HD
ENDBRANCH  21  22
BRANCH  21  24
ATOM     24  C   UNL     1       3.954   3.379  17.078  0.00  0.00    +0.000 C 
BRANCH  24  25
ATOM     25  N   UNL     1       5.415   3.428  17.110  0.00  0.00    +0.000 N 
ATOM     26  H   UNL     1       5.845   2.809  16.421  0.00  0.00    +0.000 HD
BRANCH  25  27
ATOM     27  C   UNL     1       6.057   4.662  17.203  0.00  0.00    +0.000 A 
ATOM     28  C   UNL     1       5.621   5.811  16.528  0.00  0.00    +0.000 A 
ATOM     29  C   UNL     1       6.251   7.044  16.712  0.00  0.00    +0.000 A 
ATOM     30  C   UNL     1       7.308   7.151  17.609  0.00  0.00    +0.000 A 
ATOM     31 CL   UNL     1       8.070   8.672  17.853  0.00  0.00    +0.000 Cl
ATOM     32  C   UNL     1       7.737   6.034  18.322  0.00  0.00    +0.000 A 
ATOM     33  C   UNL     1       7.108   4.803  18.121  0.00  0.00    +0.000 A 
ENDBRANCH  25  27
ENDBRANCH  24  25
ENDBRANCH  21  24
ENDBRANCH  20  21
ENDBRANCH  19  20
ENDBRANCH   4  19
TORSDOF 10
ENDMDL
MODEL 9
REMARK VINA RESULT:      -7.2      2.569      3.884
REMARK  Name = 
REMARK  10 active torsions:
REMARK  status: ('A' for Active; 'I' for Inactive)
REMARK    1  A    between atoms: C_2  and  C_3
REMARK    2  A    between atoms: C_3  and  C_24
REMARK    3  A    between atoms: C_4  and  C_5
REMARK    4  A    between atoms: C_8  and  O_9
REMARK    5  A    between atoms: O_9  and  C_10
REMARK    6  A    between atoms: C_10  and  C_11
REMARK    7  A    between atoms: C_11  and  O_12
REMARK    8  A    between atoms: C_11  and  C_13
REMARK    9  A    between atoms: C_13  and  N_14
REMARK   10  A    between atoms: N_14  and  C_15
REMARK                            x       y       z     vdW  Elec       q    Type
REMARK                         _______ _______ _______ _____ _____    ______ ____
ROOT
ATOM      1  C   UNL     1       0.633   9.336  20.071  0.00  0.00    +0.000 A 
ATOM      2  C   UNL     1       1.341   9.289  18.872  0.00  0.00    +0.000 A 
ATOM      3  C   UNL     1       2.203   8.227  18.606  0.00  0.00    +0.000 A 
ATOM      4  C   UNL     1       2.375   7.197  19.532  0.00  0.00    +0.000 A 
ATOM      5  C   UNL     1       1.650   7.235  20.728  0.00  0.00    +0.000 A 
ATOM      6  C   UNL     1       0.780   8.302  20.999  0.00  0.00    +0.000 A 
ENDROOT
BRANCH   1   8
ATOM      7  C   UNL     1      -0.692  10.857  21.527  0.00  0.00    +0.000 C 
ATOM      8  C   UNL     1      -0.249  10.479  20.309  0.00  0.00    +0.000 C 
BRANCH   7   9
ATOM      9  C   UNL     1      -1.646  11.985  21.680  0.00  0.00    +0.000 A 
ATOM     10  C   UNL     1      -2.076  12.725  20.568  0.00  0.00    +0.000 A 
ATOM     11  C   UNL     1      -2.959  13.801  20.717  0.00  0.00    +0.000 A 
ATOM     12  C   UNL     1      -3.433  14.160  21.980  0.00  0.00    +0.000 A 
ATOM     13 CL   UNL     1      -4.511  15.503  22.090  0.00  0.00    +0.000 Cl
ATOM     14  C   UNL     1      -3.020  13.434  23.098  0.00  0.00    +0.000 A 
ATOM     15 CL   UNL     1      -3.565  13.802  24.697  0.00  0.00    +0.000 Cl
ATOM     16  C   UNL     1      -2.130  12.364  22.947  0.00  0.00    +0.000 A 
ENDBRANCH   7   9
BRANCH   7  18
ATOM     17  N   UNL     1       0.365   9.615  23.781  0.00  0.00    +0.000 NA
ATOM     18  C   UNL     1      -0.114  10.178  22.759  0.00  0.00    +0.000 C 
ENDBRANCH   7  18
ENDBRANCH   1   8
BRANCH   4  19
ATOM     19  O   UNL     1       3.218   6.124  19.360  0.00  0.00    +0.000 OA
BRANCH  19  20
ATOM     20  C   UNL     1       2.585   4.840  19.493  0.00  0.00    +0.000 C 
BRANCH  20  21
ATOM     21  C   UNL     1       3.577   3.699  19.257  0.00  0.00    +0.000 C 
BRANCH  21  22
ATOM     22  O   UNL     1       3.250   2.571  20.081  0.00  0.00    +0.000 OA
ATOM     23  H   UNL     1       2.946   1.864  19.478  0.00  0.00    +0.000 HD
ENDBRANCH  21  22
BRANCH  21  24
ATOM     24  C   UNL     1       3.604   3.285  17.780  0.00  0.00    +0.000 C 
BRANCH  24  25
ATOM     25  N   UNL     1       4.977   3.335  17.279  0.00  0.00    +0.000 N 
ATOM     26  H   UNL     1       5.098   2.814  16.409  0.00  0.00    +0.000 HD
BRANCH  25  27
ATOM     27  C   UNL     1       5.663   4.550  17.283  0.00  0.00    +0.000 A 
ATOM     28  C   UNL     1       5.169   5.715  16.681  0.00  0.00    +0.000 A 
ATOM     29  C   UNL     1       5.856   6.929  16.776  0.00  0.00    +0.000 A 
ATOM     30  C   UNL     1       7.034   6.998  17.512  0.00  0.00    +0.000 A 
ATOM     31 CL   UNL     1       7.869   8.494  17.649  0.00  0.00    +0.000 Cl
ATOM     32  C   UNL     1       7.527   5.863  18.152  0.00  0.00    +0.000 A 
ATOM     33  C   UNL     1       6.838   4.652  18.040  0.00  0.00    +0.000 A 
ENDBRANCH  25  27
ENDBRANCH  24  25
ENDBRANCH  21  24
ENDBRANCH  20  21
ENDBRANCH  19  20
ENDBRANCH   4  19
TORSDOF 10
ENDMDL
