MODEL 1
REMARK VINA RESULT:      -8.8      0.000      0.000
REMARK  Name = 
REMARK  3 active torsions:
REMARK  status: ('A' for Active; 'I' for Inactive)
REMARK    1  A    between atoms: C_1  and  N_2
REMARK    2  A    between atoms: N_2  and  C_3
REMARK    3  A    between atoms: N_2  and  C_17
REMARK                            x       y       z     vdW  Elec       q    Type
REMARK                         _______ _______ _______ _____ _____    ______ ____
ROOT
ATOM      1  C   UNL     1       5.328   4.702  18.909  0.00  0.00    +0.000 A 
ATOM      2  N   UNL     1       6.350   5.251  19.610  0.00  0.00    +0.000 NA
ATOM      3  C   UNL     1       7.414   5.761  18.958  0.00  0.00    +0.000 A 
ATOM      4  N   UNL     1       7.648   5.783  17.641  0.00  0.00    +0.000 NA
ATOM      5  C   UNL     1       6.625   5.268  16.923  0.00  0.00    +0.000 A 
ATOM      6  C   UNL     1       5.459   4.800  17.516  0.00  0.00    +0.000 A 
ATOM      7  N   UNL     1       4.618   4.477  16.481  0.00  0.00    +0.000 N 
ATOM      8  C   UNL     1       5.309   4.397  15.298  0.00  0.00    +0.000 A 
ATOM      9  C   UNL     1       4.910   3.862  14.066  0.00  0.00    +0.000 A 
ATOM     10  C   UNL     1       5.836   3.912  13.026  0.00  0.00    +0.000 A 
ATOM     11  C   UNL     1       7.077   4.507  13.217  0.00  0.00    +0.000 A 
ATOM     12  F   UNL     1       7.942   4.540  12.191  0.00  0.00    +0.000 F 
ATOM     13  C   UNL     1       7.458   5.052  14.447  0.00  0.00    +0.000 A 
ATOM     14  C   UNL     1       6.558   4.965  15.526  0.00  0.00    +0.000 A 
ATOM     15  H   UNL     1       3.655   4.201  16.594  0.00  0.00    +0.000 HD
ENDROOT
BRANCH   1  17
ATOM     16  C   UNL     1       4.246   2.548  19.160  0.00  0.00    +0.000 C 
ATOM     17  N   UNL     1       4.356   3.944  19.585  0.00  0.00    +0.000 N 
BRANCH  17  18
ATOM     18  C   UNL     1       3.111   4.645  20.013  0.00  0.00    +0.000 C 
ATOM     19  C   UNL     1       2.136   4.902  18.832  0.00  0.00    +0.000 C 
ATOM     20  C   UNL     1       1.484   3.620  18.303  0.00  0.00    +0.000 C 
ATOM     21  C   UNL     1       0.738   2.878  19.402  0.00  0.00    +0.000 C 
ATOM     22  C   UNL     1       1.617   2.642  20.626  0.00  0.00    +0.000 C 
ATOM     23  C   UNL     1       2.298   3.928  21.108  0.00  0.00    +0.000 C 
ENDBRANCH  17  18
ENDBRANCH   1  17
TORSDOF 2
ENDMDL
MODEL 2
REMARK VINA RESULT:      -8.8      0.711      1.282
REMARK  Name = 
REMARK  3 active torsions:
REMARK  status: ('A' for Active; 'I' for Inactive)
REMARK    1  A    between atoms: C_1  and  N_2
REMARK    2  A    between atoms: N_2  and  C_3
REMARK    3  A    between atoms: N_2  and  C_17
REMARK                            x       y       z     vdW  Elec       q    Type
REMARK                         _______ _______ _______ _____ _____    ______ ____
ROOT
ATOM      1  C   UNL     1       5.214   4.299  18.594  0.00  0.00    +0.000 A 
ATOM      2  N   UNL     1       6.170   4.867  19.369  0.00  0.00    +0.000 NA
ATOM      3  C   UNL     1       7.223   5.482  18.793  0.00  0.00    +0.000 A 
ATOM      4  N   UNL     1       7.505   5.600  17.492  0.00  0.00    +0.000 NA
ATOM      5  C   UNL     1       6.545   5.067  16.701  0.00  0.00    +0.000 A 
ATOM      6  C   UNL     1       5.391   4.491  17.216  0.00  0.00    +0.000 A 
ATOM      7  N   UNL     1       4.613   4.181  16.130  0.00  0.00    +0.000 N 
ATOM      8  C   UNL     1       5.352   4.217  14.974  0.00  0.00    +0.000 A 
ATOM      9  C   UNL     1       5.036   3.735  13.697  0.00  0.00    +0.000 A 
ATOM     10  C   UNL     1       5.996   3.907  12.702  0.00  0.00    +0.000 A 
ATOM     11  C   UNL     1       7.187   4.566  12.979  0.00  0.00    +0.000 A 
ATOM     12  F   UNL     1       8.087   4.716  11.995  0.00  0.00    +0.000 F 
ATOM     13  C   UNL     1       7.485   5.056  14.254  0.00  0.00    +0.000 A 
ATOM     14  C   UNL     1       6.552   4.847  15.288  0.00  0.00    +0.000 A 
ATOM     15  H   UNL     1       3.666   3.838  16.185  0.00  0.00    +0.000 HD
ENDROOT
BRANCH   1  17
ATOM     16  C   UNL     1       4.804   2.181  19.698  0.00  0.00    +0.000 C 
ATOM     17  N   UNL     1       4.267   3.441  19.183  0.00  0.00    +0.000 N 
BRANCH  17  18
ATOM     18  C   UNL     1       2.893   3.433  18.605  0.00  0.00    +0.000 C 
ATOM     19  C   UNL     1       1.983   2.350  19.247  0.00  0.00    +0.000 C 
ATOM     20  C   UNL     1       1.600   2.670  20.695  0.00  0.00    +0.000 C 
ATOM     21  C   UNL     1       0.907   4.020  20.806  0.00  0.00    +0.000 C 
ATOM     22  C   UNL     1       1.716   5.129  20.141  0.00  0.00    +0.000 C 
ATOM     23  C   UNL     1       2.130   4.768  18.711  0.00  0.00    +0.000 C 
ENDBRANCH  17  18
ENDBRANCH   1  17
TORSDOF 2
ENDMDL
MODEL 3
REMARK VINA RESULT:      -8.7      1.148      1.850
REMARK  Name = 
REMARK  3 active torsions:
REMARK  status: ('A' for Active; 'I' for Inactive)
REMARK    1  A    between atoms: C_1  and  N_2
REMARK    2  A    between atoms: N_2  and  C_3
REMARK    3  A    between atoms: N_2  and  C_17
REMARK                            x       y       z     vdW  Elec       q    Type
REMARK                         _______ _______ _______ _____ _____    ______ ____
ROOT
ATOM      1  C   UNL     1       5.244   5.133  17.888  0.00  0.00    +0.000 A 
ATOM      2  N   UNL     1       6.233   5.834  18.495  0.00  0.00    +0.000 NA
ATOM      3  C   UNL     1       7.284   6.274  17.774  0.00  0.00    +0.000 A 
ATOM      4  N   UNL     1       7.534   6.087  16.474  0.00  0.00    +0.000 NA
ATOM      5  C   UNL     1       6.543   5.416  15.844  0.00  0.00    +0.000 A 
ATOM      6  C   UNL     1       5.389   5.004  16.499  0.00  0.00    +0.000 A 
ATOM      7  N   UNL     1       4.577   4.478  15.528  0.00  0.00    +0.000 N 
ATOM      8  C   UNL     1       5.286   4.232  14.379  0.00  0.00    +0.000 A 
ATOM      9  C   UNL     1       4.926   3.483  13.251  0.00  0.00    +0.000 A 
ATOM     10  C   UNL     1       5.863   3.399  12.223  0.00  0.00    +0.000 A 
ATOM     11  C   UNL     1       7.075   4.070  12.320  0.00  0.00    +0.000 A 
ATOM     12  F   UNL     1       7.953   3.969  11.309  0.00  0.00    +0.000 F 
ATOM     13  C   UNL     1       7.418   4.827  13.444  0.00  0.00    +0.000 A 
ATOM     14  C   UNL     1       6.507   4.883  14.517  0.00  0.00    +0.000 A 
ATOM     15  H   UNL     1       3.624   4.183  15.678  0.00  0.00    +0.000 HD
ENDROOT
BRANCH   1  17
ATOM     16  C   UNL     1       4.693   3.122  19.124  0.00  0.00    +0.000 C 
ATOM     17  N   UNL     1       4.295   4.457  18.675  0.00  0.00    +0.000 N 
BRANCH  17  18
ATOM     18  C   UNL     1       2.854   4.692  18.369  0.00  0.00    +0.000 C 
ATOM     19  C   UNL     1       1.908   4.029  19.407  0.00  0.00    +0.000 C 
ATOM     20  C   UNL     1       1.946   4.716  20.776  0.00  0.00    +0.000 C 
ATOM     21  C   UNL     1       1.600   6.193  20.671  0.00  0.00    +0.000 C 
ATOM     22  C   UNL     1       2.450   6.902  19.622  0.00  0.00    +0.000 C 
ATOM     23  C   UNL     1       2.438   6.172  18.275  0.00  0.00    +0.000 C 
ENDBRANCH  17  18
ENDBRANCH   1  17
TORSDOF 2
ENDMDL
MODEL 4
REMARK VINA RESULT:      -8.6      5.485      7.890
REMARK  Name = 
REMARK  3 active torsions:
REMARK  status: ('A' for Active; 'I' for Inactive)
REMARK    1  A    between atoms: C_1  and  N_2
REMARK    2  A    between atoms: N_2  and  C_3
REMARK    3  A    between atoms: N_2  and  C_17
REMARK                            x       y       z     vdW  Elec       q    Type
REMARK                         _______ _______ _______ _____ _____    ______ ____
ROOT
ATOM      1  C   UNL     1       2.480   7.177  19.263  0.00  0.00    +0.000 A 
ATOM      2  N   UNL     1       2.530   7.564  17.965  0.00  0.00    +0.000 NA
ATOM      3  C   UNL     1       1.960   8.727  17.589  0.00  0.00    +0.000 A 
ATOM      4  N   UNL     1       1.281   9.600  18.341  0.00  0.00    +0.000 NA
ATOM      5  C   UNL     1       1.248   9.246  19.646  0.00  0.00    +0.000 A 
ATOM      6  C   UNL     1       1.883   8.107  20.126  0.00  0.00    +0.000 A 
ATOM      7  N   UNL     1       1.738   8.146  21.489  0.00  0.00    +0.000 N 
ATOM      8  C   UNL     1       0.769   9.049  21.852  0.00  0.00    +0.000 A 
ATOM      9  C   UNL     1       0.131   9.226  23.086  0.00  0.00    +0.000 A 
ATOM     10  C   UNL     1      -0.831  10.232  23.160  0.00  0.00    +0.000 A 
ATOM     11  C   UNL     1      -1.096  11.035  22.059  0.00  0.00    +0.000 A 
ATOM     12  F   UNL     1      -2.027  11.996  22.169  0.00  0.00    +0.000 F 
ATOM     13  C   UNL     1      -0.441  10.859  20.836  0.00  0.00    +0.000 A 
ATOM     14  C   UNL     1       0.497   9.815  20.722  0.00  0.00    +0.000 A 
ATOM     15  H   UNL     1       2.179   7.504  22.129  0.00  0.00    +0.000 HD
ENDROOT
BRANCH   1  17
ATOM     16  C   UNL     1       4.258   5.541  19.459  0.00  0.00    +0.000 C 
ATOM     17  N   UNL     1       2.837   5.860  19.604  0.00  0.00    +0.000 N 
BRANCH  17  18
ATOM     18  C   UNL     1       1.845   4.783  19.322  0.00  0.00    +0.000 C 
ATOM     19  C   UNL     1       2.500   3.515  18.710  0.00  0.00    +0.000 C 
ATOM     20  C   UNL     1       3.367   2.745  19.711  0.00  0.00    +0.000 C 
ATOM     21  C   UNL     1       2.571   2.339  20.943  0.00  0.00    +0.000 C 
ATOM     22  C   UNL     1       1.846   3.527  21.567  0.00  0.00    +0.000 C 
ATOM     23  C   UNL     1       1.025   4.312  20.538  0.00  0.00    +0.000 C 
ENDBRANCH  17  18
ENDBRANCH   1  17
TORSDOF 2
ENDMDL
MODEL 5
REMARK VINA RESULT:      -8.6      1.094      1.701
REMARK  Name = 
REMARK  3 active torsions:
REMARK  status: ('A' for Active; 'I' for Inactive)
REMARK    1  A    between atoms: C_1  and  N_2
REMARK    2  A    between atoms: N_2  and  C_3
REMARK    3  A    between atoms: N_2  and  C_17
REMARK                            x       y       z     vdW  Elec       q    Type
REMARK                         _______ _______ _______ _____ _____    ______ ____
ROOT
ATOM      1  C   UNL     1       5.417   4.677  18.162  0.00  0.00    +0.000 A 
ATOM      2  N   UNL     1       6.596   4.750  18.827  0.00  0.00    +0.000 NA
ATOM      3  C   UNL     1       7.756   4.744  18.140  0.00  0.00    +0.000 A 
ATOM      4  N   UNL     1       7.938   4.638  16.820  0.00  0.00    +0.000 NA
ATOM      5  C   UNL     1       6.772   4.595  16.136  0.00  0.00    +0.000 A 
ATOM      6  C   UNL     1       5.536   4.683  16.765  0.00  0.00    +0.000 A 
ATOM      7  N   UNL     1       4.608   4.730  15.756  0.00  0.00    +0.000 N 
ATOM      8  C   UNL     1       5.162   4.339  14.563  0.00  0.00    +0.000 A 
ATOM      9  C   UNL     1       4.537   4.002  13.356  0.00  0.00    +0.000 A 
ATOM     10  C   UNL     1       5.365   3.630  12.298  0.00  0.00    +0.000 A 
ATOM     11  C   UNL     1       6.746   3.641  12.448  0.00  0.00    +0.000 A 
ATOM     12  F   UNL     1       7.511   3.280  11.406  0.00  0.00    +0.000 F 
ATOM     13  C   UNL     1       7.359   3.994  13.653  0.00  0.00    +0.000 A 
ATOM     14  C   UNL     1       6.541   4.323  14.751  0.00  0.00    +0.000 A 
ATOM     15  H   UNL     1       3.623   4.895  15.894  0.00  0.00    +0.000 HD
ENDROOT
BRANCH   1  17
ATOM     16  C   UNL     1       3.743   5.536  19.689  0.00  0.00    +0.000 C 
ATOM     17  N   UNL     1       4.234   4.421  18.879  0.00  0.00    +0.000 N 
BRANCH  17  18
ATOM     18  C   UNL     1       4.028   3.037  19.393  0.00  0.00    +0.000 C 
ATOM     19  C   UNL     1       2.917   2.963  20.476  0.00  0.00    +0.000 C 
ATOM     20  C   UNL     1       1.511   3.189  19.910  0.00  0.00    +0.000 C 
ATOM     21  C   UNL     1       1.187   2.193  18.806  0.00  0.00    +0.000 C 
ATOM     22  C   UNL     1       2.268   2.164  17.731  0.00  0.00    +0.000 C 
ATOM     23  C   UNL     1       3.670   1.987  18.323  0.00  0.00    +0.000 C 
ENDBRANCH  17  18
ENDBRANCH   1  17
TORSDOF 2
ENDMDL
MODEL 6
REMARK VINA RESULT:      -8.4      4.405      6.608
REMARK  Name = 
REMARK  3 active torsions:
REMARK  status: ('A' for Active; 'I' for Inactive)
REMARK    1  A    between atoms: C_1  and  N_2
REMARK    2  A    between atoms: N_2  and  C_3
REMARK    3  A    between atoms: N_2  and  C_17
REMARK                            x       y       z     vdW  Elec       q    Type
REMARK                         _______ _______ _______ _____ _____    ______ ____
ROOT
ATOM      1  C   UNL     1       3.597   6.099  18.707  0.00  0.00    +0.000 A 
ATOM      2  N   UNL     1       3.975   6.353  17.430  0.00  0.00    +0.000 NA
ATOM      3  C   UNL     1       3.542   7.470  16.812  0.00  0.00    +0.000 A 
ATOM      4  N   UNL     1       2.717   8.412  17.282  0.00  0.00    +0.000 NA
ATOM      5  C   UNL     1       2.354   8.192  18.566  0.00  0.00    +0.000 A 
ATOM      6  C   UNL     1       2.825   7.109  19.298  0.00  0.00    +0.000 A 
ATOM      7  N   UNL     1       2.347   7.285  20.572  0.00  0.00    +0.000 N 
ATOM      8  C   UNL     1       1.340   8.217  20.591  0.00  0.00    +0.000 A 
ATOM      9  C   UNL     1       0.419   8.515  21.604  0.00  0.00    +0.000 A 
ATOM     10  C   UNL     1      -0.509   9.521  21.337  0.00  0.00    +0.000 A 
ATOM     11  C   UNL     1      -0.475  10.208  20.131  0.00  0.00    +0.000 A 
ATOM     12  F   UNL     1      -1.383  11.172  19.911  0.00  0.00    +0.000 F 
ATOM     13  C   UNL     1       0.458   9.912  19.133  0.00  0.00    +0.000 A 
ATOM     14  C   UNL     1       1.372   8.864  19.359  0.00  0.00    +0.000 A 
ATOM     15  H   UNL     1       2.602   6.712  21.361  0.00  0.00    +0.000 HD
ENDROOT
BRANCH   1  17
ATOM     16  C   UNL     1       5.233   4.499  19.507  0.00  0.00    +0.000 C 
ATOM     17  N   UNL     1       3.829   4.824  19.254  0.00  0.00    +0.000 N 
BRANCH  17  18
ATOM     18  C   UNL     1       2.919   3.719  18.835  0.00  0.00    +0.000 C 
ATOM     19  C   UNL     1       3.170   2.408  19.627  0.00  0.00    +0.000 C 
ATOM     20  C   UNL     1       2.729   2.498  21.092  0.00  0.00    +0.000 C 
ATOM     21  C   UNL     1       1.259   2.869  21.211  0.00  0.00    +0.000 C 
ATOM     22  C   UNL     1       0.921   4.119  20.406  0.00  0.00    +0.000 C 
ATOM     23  C   UNL     1       1.414   4.027  18.958  0.00  0.00    +0.000 C 
ENDBRANCH  17  18
ENDBRANCH   1  17
TORSDOF 2
ENDMDL
MODEL 7
REMARK VINA RESULT:      -8.3      5.433      7.807
REMARK  Name = 
REMARK  3 active torsions:
REMARK  status: ('A' for Active; 'I' for Inactive)
REMARK    1  A    between atoms: C_1  and  N_2
REMARK    2  A    between atoms: N_2  and  C_3
REMARK    3  A    between atoms: N_2  and  C_17
REMARK                            x       y       z     vdW  Elec       q    Type
REMARK                         _______ _______ _______ _____ _____    ______ ____
ROOT
ATOM      1  C   UNL     1       2.462   6.997  19.365  0.00  0.00    +0.000 A 
ATOM      2  N   UNL     1       2.600   7.365  18.068  0.00  0.00    +0.000 NA
ATOM      3  C   UNL     1       2.121   8.555  17.653  0.00  0.00    +0.000 A 
ATOM      4  N   UNL     1       1.458   9.476  18.362  0.00  0.00    +0.000 NA
ATOM      5  C   UNL     1       1.338   9.140  19.667  0.00  0.00    +0.000 A 
ATOM      6  C   UNL     1       1.879   7.972  20.189  0.00  0.00    +0.000 A 
ATOM      7  N   UNL     1       1.668   8.035  21.542  0.00  0.00    +0.000 N 
ATOM      8  C   UNL     1       0.738   8.998  21.846  0.00  0.00    +0.000 A 
ATOM      9  C   UNL     1       0.050   9.228  23.045  0.00  0.00    +0.000 A 
ATOM     10  C   UNL     1      -0.853  10.290  23.061  0.00  0.00    +0.000 A 
ATOM     11  C   UNL     1      -1.013  11.094  21.940  0.00  0.00    +0.000 A 
ATOM     12  F   UNL     1      -1.889  12.109  21.994  0.00  0.00    +0.000 F 
ATOM     13  C   UNL     1      -0.309  10.865  20.754  0.00  0.00    +0.000 A 
ATOM     14  C   UNL     1       0.569   9.765  20.698  0.00  0.00    +0.000 A 
ATOM     15  H   UNL     1       2.036   7.375  22.209  0.00  0.00    +0.000 HD
ENDROOT
BRANCH   1  17
ATOM     16  C   UNL     1       4.114   5.238  19.594  0.00  0.00    +0.000 C 
ATOM     17  N   UNL     1       2.722   5.666  19.736  0.00  0.00    +0.000 N 
BRANCH  17  18
ATOM     18  C   UNL     1       1.651   4.659  19.482  0.00  0.00    +0.000 C 
ATOM     19  C   UNL     1       1.471   4.350  17.971  0.00  0.00    +0.000 C 
ATOM     20  C   UNL     1       2.644   3.564  17.375  0.00  0.00    +0.000 C 
ATOM     21  C   UNL     1       2.875   2.257  18.119  0.00  0.00    +0.000 C 
ATOM     22  C   UNL     1       3.002   2.474  19.623  0.00  0.00    +0.000 C 
ATOM     23  C   UNL     1       1.845   3.304  20.189  0.00  0.00    +0.000 C 
ENDBRANCH  17  18
ENDBRANCH   1  17
TORSDOF 2
ENDMDL
MODEL 8
REMARK VINA RESULT:      -8.2      5.588      8.139
REMARK  Name = 
REMARK  3 active torsions:
REMARK  status: ('A' for Active; 'I' for Inactive)
REMARK    1  A    between atoms: C_1  and  N_2
REMARK    2  A    between atoms: N_2  and  C_3
REMARK    3  A    between atoms: N_2  and  C_17
REMARK                            x       y       z     vdW  Elec       q    Type
REMARK                         _______ _______ _______ _____ _____    ______ ____
ROOT
ATOM      1  C   UNL     1       2.301   7.229  19.219  0.00  0.00    +0.000 A 
ATOM      2  N   UNL     1       2.401   7.677  17.944  0.00  0.00    +0.000 NA
ATOM      3  C   UNL     1       1.930   8.898  17.622  0.00  0.00    +0.000 A 
ATOM      4  N   UNL     1       1.311   9.783  18.411  0.00  0.00    +0.000 NA
ATOM      5  C   UNL     1       1.230   9.368  19.695  0.00  0.00    +0.000 A 
ATOM      6  C   UNL     1       1.767   8.160  20.123  0.00  0.00    +0.000 A 
ATOM      7  N   UNL     1       1.604   8.141  21.484  0.00  0.00    +0.000 N 
ATOM      8  C   UNL     1       0.704   9.098  21.882  0.00  0.00    +0.000 A 
ATOM      9  C   UNL     1       0.063   9.263  23.116  0.00  0.00    +0.000 A 
ATOM     10  C   UNL     1      -0.818  10.337  23.232  0.00  0.00    +0.000 A 
ATOM     11  C   UNL     1      -1.002  11.213  22.170  0.00  0.00    +0.000 A 
ATOM     12  F   UNL     1      -1.856  12.238  22.320  0.00  0.00    +0.000 F 
ATOM     13  C   UNL     1      -0.344  11.048  20.948  0.00  0.00    +0.000 A 
ATOM     14  C   UNL     1       0.510   9.939  20.791  0.00  0.00    +0.000 A 
ATOM     15  H   UNL     1       1.983   7.434  22.095  0.00  0.00    +0.000 HD
ENDROOT
BRANCH   1  17
ATOM     16  C   UNL     1       1.622   5.251  20.443  0.00  0.00    +0.000 C 
ATOM     17  N   UNL     1       2.548   5.873  19.497  0.00  0.00    +0.000 N 
BRANCH  17  18
ATOM     18  C   UNL     1       3.969   5.420  19.507  0.00  0.00    +0.000 C 
ATOM     19  C   UNL     1       4.103   3.879  19.637  0.00  0.00    +0.000 C 
ATOM     20  C   UNL     1       3.653   3.130  18.378  0.00  0.00    +0.000 C 
ATOM     21  C   UNL     1       4.426   3.587  17.150  0.00  0.00    +0.000 C 
ATOM     22  C   UNL     1       4.392   5.103  16.989  0.00  0.00    +0.000 C 
ATOM     23  C   UNL     1       4.797   5.832  18.275  0.00  0.00    +0.000 C 
ENDBRANCH  17  18
ENDBRANCH   1  17
TORSDOF 2
ENDMDL
MODEL 9
REMARK VINA RESULT:      -8.0      3.719      5.616
REMARK  Name = 
REMARK  3 active torsions:
REMARK  status: ('A' for Active; 'I' for Inactive)
REMARK    1  A    between atoms: C_1  and  N_2
REMARK    2  A    between atoms: N_2  and  C_3
REMARK    3  A    between atoms: N_2  and  C_17
REMARK                            x       y       z     vdW  Elec       q    Type
REMARK                         _______ _______ _______ _____ _____    ______ ____
ROOT
ATOM      1  C   UNL     1       4.335   5.245  18.071  0.00  0.00    +0.000 A 
ATOM      2  N   UNL     1       4.961   5.388  16.878  0.00  0.00    +0.000 NA
ATOM      3  C   UNL     1       4.830   6.536  16.183  0.00  0.00    +0.000 A 
ATOM      4  N   UNL     1       4.105   7.616  16.495  0.00  0.00    +0.000 NA
ATOM      5  C   UNL     1       3.498   7.505  17.698  0.00  0.00    +0.000 A 
ATOM      6  C   UNL     1       3.652   6.389  18.511  0.00  0.00    +0.000 A 
ATOM      7  N   UNL     1       3.001   6.687  19.680  0.00  0.00    +0.000 N 
ATOM      8  C   UNL     1       2.173   7.769  19.516  0.00  0.00    +0.000 A 
ATOM      9  C   UNL     1       1.156   8.250  20.351  0.00  0.00    +0.000 A 
ATOM     10  C   UNL     1       0.466   9.381  19.919  0.00  0.00    +0.000 A 
ATOM     11  C   UNL     1       0.818  10.009  18.731  0.00  0.00    +0.000 A 
ATOM     12  F   UNL     1       0.133  11.098  18.348  0.00  0.00    +0.000 F 
ATOM     13  C   UNL     1       1.845   9.529  17.913  0.00  0.00    +0.000 A 
ATOM     14  C   UNL     1       2.521   8.356  18.303  0.00  0.00    +0.000 A 
ATOM     15  H   UNL     1       3.019   6.110  20.506  0.00  0.00    +0.000 HD
ENDROOT
BRANCH   1  17
ATOM     16  C   UNL     1       5.408   3.591  19.480  0.00  0.00    +0.000 C 
ATOM     17  N   UNL     1       4.256   3.971  18.662  0.00  0.00    +0.000 N 
BRANCH  17  18
ATOM     18  C   UNL     1       3.557   2.900  17.895  0.00  0.00    +0.000 C 
ATOM     19  C   UNL     1       3.125   1.710  18.794  0.00  0.00    +0.000 C 
ATOM     20  C   UNL     1       1.981   2.064  19.751  0.00  0.00    +0.000 C 
ATOM     21  C   UNL     1       0.763   2.578  18.999  0.00  0.00    +0.000 C 
ATOM     22  C   UNL     1       1.120   3.713  18.045  0.00  0.00    +0.000 C 
ATOM     23  C   UNL     1       2.298   3.356  17.132  0.00  0.00    +0.000 C 
ENDBRANCH  17  18
ENDBRANCH   1  17
TORSDOF 2
ENDMDL
