MODEL 1
REMARK VINA RESULT:      -7.1      0.000      0.000
REMARK  Name = 
REMARK  7 active torsions:
REMARK  status: ('A' for Active; 'I' for Inactive)
REMARK    1  A    between atoms: C_1  and  C_2
REMARK    2  A    between atoms: C_2  and  O_3
REMARK    3  A    between atoms: O_3  and  C_4
REMARK    4  A    between atoms: C_7  and  N_8
REMARK    5  A    between atoms: N_11  and  C_12
REMARK    6  A    between atoms: C_16  and  C_17
REMARK    7  A    between atoms: C_16  and  C_18
REMARK                            x       y       z     vdW  Elec       q    Type
REMARK                         _______ _______ _______ _____ _____    ______ ____
ROOT
ATOM      1  N   UNL     1       1.519   8.158  21.472  0.00  0.00    +0.000 N 
ATOM      2  C   UNL     1       1.880   7.781  20.200  0.00  0.00    +0.000 C 
ATOM      3  O   UNL     1       1.572   8.368  19.168  0.00  0.00    +0.000 OA
ATOM      4  N   UNL     1       2.623   6.629  20.169  0.00  0.00    +0.000 N 
ATOM      5  H   UNL     1       1.820   7.571  22.235  0.00  0.00    +0.000 HD
ATOM      6  H   UNL     1       2.954   6.269  21.052  0.00  0.00    +0.000 HD
ENDROOT
BRANCH   4   7
ATOM      7  C   UNL     1       3.124   5.955  18.963  0.00  0.00    +0.000 C 
ATOM      8  C   UNL     1       4.634   5.689  18.864  0.00  0.00    +0.000 C 
ATOM      9  C   UNL     1       5.050   4.258  19.177  0.00  0.00    +0.000 C 
ATOM     10  O   UNL     1       4.223   3.312  18.504  0.00  0.00    +0.000 OA
ATOM     11  C   UNL     1       2.843   3.364  18.880  0.00  0.00    +0.000 C 
ATOM     12  C   UNL     1       2.132   2.319  18.000  0.00  0.00    +0.000 C 
ATOM     13  C   UNL     1       2.638   2.944  20.341  0.00  0.00    +0.000 C 
ATOM     14  C   UNL     1       2.263   4.751  18.557  0.00  0.00    +0.000 C 
ENDBRANCH   4   7
BRANCH   1  18
ATOM     15  C   UNL     1      -0.755  11.613  22.419  0.00  0.00    +0.000 A 
ATOM     16  C   UNL     1      -0.948  10.439  23.134  0.00  0.00    +0.000 A 
ATOM     17  C   UNL     1      -0.195   9.299  22.845  0.00  0.00    +0.000 A 
ATOM     18  C   UNL     1       0.753   9.300  21.820  0.00  0.00    +0.000 A 
ATOM     19  C   UNL     1       0.943  10.488  21.097  0.00  0.00    +0.000 A 
ATOM     20  C   UNL     1       0.182  11.634  21.387  0.00  0.00    +0.000 A 
BRANCH  15  21
ATOM     21  O   UNL     1      -1.544  12.657  22.809  0.00  0.00    +0.000 OA
BRANCH  21  23
ATOM     22  C   UNL     1      -3.892  12.703  22.417  0.00  0.00    +0.000 C 
ATOM     23  C   UNL     1      -2.798  12.314  23.394  0.00  0.00    +0.000 C 
ENDBRANCH  21  23
ENDBRANCH  15  21
ENDBRANCH   1  18
TORSDOF 4
ENDMDL
MODEL 2
REMARK VINA RESULT:      -7.0      0.353      1.136
REMARK  Name = 
REMARK  7 active torsions:
REMARK  status: ('A' for Active; 'I' for Inactive)
REMARK    1  A    between atoms: C_1  and  C_2
REMARK    2  A    between atoms: C_2  and  O_3
REMARK    3  A    between atoms: O_3  and  C_4
REMARK    4  A    between atoms: C_7  and  N_8
REMARK    5  A    between atoms: N_11  and  C_12
REMARK    6  A    between atoms: C_16  and  C_17
REMARK    7  A    between atoms: C_16  and  C_18
REMARK                            x       y       z     vdW  Elec       q    Type
REMARK                         _______ _______ _______ _____ _____    ______ ____
ROOT
ATOM      1  N   UNL     1       1.514   8.091  21.374  0.00  0.00    +0.000 N 
ATOM      2  C   UNL     1       1.934   7.744  20.111  0.00  0.00    +0.000 C 
ATOM      3  O   UNL     1       1.689   8.365  19.083  0.00  0.00    +0.000 OA
ATOM      4  N   UNL     1       2.658   6.580  20.084  0.00  0.00    +0.000 N 
ATOM      5  H   UNL     1       1.765   7.477  22.134  0.00  0.00    +0.000 HD
ATOM      6  H   UNL     1       2.937   6.190  20.972  0.00  0.00    +0.000 HD
ENDROOT
BRANCH   4   7
ATOM      7  C   UNL     1       3.209   5.931  18.886  0.00  0.00    +0.000 C 
ATOM      8  C   UNL     1       4.724   5.680  18.839  0.00  0.00    +0.000 C 
ATOM      9  C   UNL     1       5.141   4.247  19.142  0.00  0.00    +0.000 C 
ATOM     10  O   UNL     1       4.347   3.306  18.423  0.00  0.00    +0.000 OA
ATOM     11  C   UNL     1       2.955   3.341  18.748  0.00  0.00    +0.000 C 
ATOM     12  C   UNL     1       2.285   2.306  17.824  0.00  0.00    +0.000 C 
ATOM     13  C   UNL     1       2.699   2.893  20.193  0.00  0.00    +0.000 C 
ATOM     14  C   UNL     1       2.374   4.728  18.428  0.00  0.00    +0.000 C 
ENDBRANCH   4   7
BRANCH   1  18
ATOM     15  C   UNL     1      -0.786  11.478  22.491  0.00  0.00    +0.000 A 
ATOM     16  C   UNL     1       0.092  11.559  21.417  0.00  0.00    +0.000 A 
ATOM     17  C   UNL     1       0.842  10.447  21.029  0.00  0.00    +0.000 A 
ATOM     18  C   UNL     1       0.750   9.236  21.716  0.00  0.00    +0.000 A 
ATOM     19  C   UNL     1      -0.135   9.159  22.802  0.00  0.00    +0.000 A 
ATOM     20  C   UNL     1      -0.889  10.279  23.195  0.00  0.00    +0.000 A 
BRANCH  15  21
ATOM     21  O   UNL     1      -1.469  12.630  22.759  0.00  0.00    +0.000 OA
BRANCH  21  23
ATOM     22  C   UNL     1      -3.318  13.453  24.013  0.00  0.00    +0.000 C 
ATOM     23  C   UNL     1      -2.880  12.503  22.914  0.00  0.00    +0.000 C 
ENDBRANCH  21  23
ENDBRANCH  15  21
ENDBRANCH   1  18
TORSDOF 4
ENDMDL
MODEL 3
REMARK VINA RESULT:      -6.9      6.128      7.639
REMARK  Name = 
REMARK  7 active torsions:
REMARK  status: ('A' for Active; 'I' for Inactive)
REMARK    1  A    between atoms: C_1  and  C_2
REMARK    2  A    between atoms: C_2  and  O_3
REMARK    3  A    between atoms: O_3  and  C_4
REMARK    4  A    between atoms: C_7  and  N_8
REMARK    5  A    between atoms: N_11  and  C_12
REMARK    6  A    between atoms: C_16  and  C_17
REMARK    7  A    between atoms: C_16  and  C_18
REMARK                            x       y       z     vdW  Elec       q    Type
REMARK                         _______ _______ _______ _____ _____    ______ ____
ROOT
ATOM      1  N   UNL     1       6.408   4.326  18.497  0.00  0.00    +0.000 N 
ATOM      2  C   UNL     1       5.234   4.018  19.142  0.00  0.00    +0.000 C 
ATOM      3  O   UNL     1       4.467   4.827  19.652  0.00  0.00    +0.000 OA
ATOM      4  N   UNL     1       4.987   2.671  19.199  0.00  0.00    +0.000 N 
ATOM      5  H   UNL     1       6.960   3.560  18.143  0.00  0.00    +0.000 HD
ATOM      6  H   UNL     1       5.582   2.069  18.650  0.00  0.00    +0.000 HD
ENDROOT
BRANCH   4   7
ATOM      7  C   UNL     1       3.838   2.028  19.853  0.00  0.00    +0.000 C 
ATOM      8  C   UNL     1       3.452   2.508  21.260  0.00  0.00    +0.000 C 
ATOM      9  C   UNL     1       2.258   3.451  21.306  0.00  0.00    +0.000 C 
ATOM     10  O   UNL     1       1.176   2.967  20.513  0.00  0.00    +0.000 OA
ATOM     11  C   UNL     1       1.476   2.850  19.119  0.00  0.00    +0.000 C 
ATOM     12  C   UNL     1       0.210   2.258  18.470  0.00  0.00    +0.000 C 
ATOM     13  C   UNL     1       1.718   4.221  18.475  0.00  0.00    +0.000 C 
ATOM     14  C   UNL     1       2.637   1.864  18.912  0.00  0.00    +0.000 C 
ENDBRANCH   4   7
BRANCH   1  18
ATOM     15  C   UNL     1       7.874   8.249  17.812  0.00  0.00    +0.000 A 
ATOM     16  C   UNL     1       8.435   7.464  18.810  0.00  0.00    +0.000 A 
ATOM     17  C   UNL     1       7.974   6.165  19.036  0.00  0.00    +0.000 A 
ATOM     18  C   UNL     1       6.928   5.629  18.284  0.00  0.00    +0.000 A 
ATOM     19  C   UNL     1       6.361   6.427  17.278  0.00  0.00    +0.000 A 
ATOM     20  C   UNL     1       6.824   7.735  17.053  0.00  0.00    +0.000 A 
BRANCH  15  21
ATOM     21  O   UNL     1       8.424   9.493  17.686  0.00  0.00    +0.000 OA
BRANCH  21  23
ATOM     22  C   UNL     1       9.986  11.118  18.454  0.00  0.00    +0.000 C 
ATOM     23  C   UNL     1       8.984  10.057  18.869  0.00  0.00    +0.000 C 
ENDBRANCH  21  23
ENDBRANCH  15  21
ENDBRANCH   1  18
TORSDOF 4
ENDMDL
MODEL 4
REMARK VINA RESULT:      -6.8      2.368      9.064
REMARK  Name = 
REMARK  7 active torsions:
REMARK  status: ('A' for Active; 'I' for Inactive)
REMARK    1  A    between atoms: C_1  and  C_2
REMARK    2  A    between atoms: C_2  and  O_3
REMARK    3  A    between atoms: O_3  and  C_4
REMARK    4  A    between atoms: C_7  and  N_8
REMARK    5  A    between atoms: N_11  and  C_12
REMARK    6  A    between atoms: C_16  and  C_17
REMARK    7  A    between atoms: C_16  and  C_18
REMARK                            x       y       z     vdW  Elec       q    Type
REMARK                         _______ _______ _______ _____ _____    ______ ____
ROOT
ATOM      1  N   UNL     1       2.208   7.551  18.915  0.00  0.00    +0.000 N 
ATOM      2  C   UNL     1       1.864   8.785  18.414  0.00  0.00    +0.000 C 
ATOM      3  O   UNL     1       2.197   9.229  17.321  0.00  0.00    +0.000 OA
ATOM      4  N   UNL     1       1.107   9.528  19.283  0.00  0.00    +0.000 N 
ATOM      5  H   UNL     1       1.886   7.319  19.843  0.00  0.00    +0.000 HD
ATOM      6  H   UNL     1       0.757   9.061  20.106  0.00  0.00    +0.000 HD
ENDROOT
BRANCH   4   7
ATOM      7  C   UNL     1       0.619  10.896  19.054  0.00  0.00    +0.000 C 
ATOM      8  C   UNL     1      -0.776  11.064  18.432  0.00  0.00    +0.000 C 
ATOM      9  C   UNL     1      -1.876  11.420  19.423  0.00  0.00    +0.000 C 
ATOM     10  O   UNL     1      -1.473  12.468  20.300  0.00  0.00    +0.000 OA
ATOM     11  C   UNL     1      -0.350  12.144  21.126  0.00  0.00    +0.000 C 
ATOM     12  C   UNL     1      -0.048  13.420  21.936  0.00  0.00    +0.000 C 
ATOM     13  C   UNL     1      -0.687  11.036  22.132  0.00  0.00    +0.000 C 
ATOM     14  C   UNL     1       0.871  11.823  20.250  0.00  0.00    +0.000 C 
ENDBRANCH   4   7
BRANCH   1  18
ATOM     15  C   UNL     1       4.439   4.548  16.913  0.00  0.00    +0.000 A 
ATOM     16  C   UNL     1       4.954   5.833  17.030  0.00  0.00    +0.000 A 
ATOM     17  C   UNL     1       4.238   6.826  17.701  0.00  0.00    +0.000 A 
ATOM     18  C   UNL     1       2.982   6.566  18.251  0.00  0.00    +0.000 A 
ATOM     19  C   UNL     1       2.463   5.267  18.127  0.00  0.00    +0.000 A 
ATOM     20  C   UNL     1       3.183   4.268  17.449  0.00  0.00    +0.000 A 
BRANCH  15  21
ATOM     21  O   UNL     1       5.243   3.668  16.247  0.00  0.00    +0.000 OA
BRANCH  21  23
ATOM     22  C   UNL     1       5.977   4.006  14.007  0.00  0.00    +0.000 C 
ATOM     23  C   UNL     1       6.295   4.239  15.472  0.00  0.00    +0.000 C 
ENDBRANCH  21  23
ENDBRANCH  15  21
ENDBRANCH   1  18
TORSDOF 4
ENDMDL
MODEL 5
REMARK VINA RESULT:      -6.7      2.375      9.027
REMARK  Name = 
REMARK  7 active torsions:
REMARK  status: ('A' for Active; 'I' for Inactive)
REMARK    1  A    between atoms: C_1  and  C_2
REMARK    2  A    between atoms: C_2  and  O_3
REMARK    3  A    between atoms: O_3  and  C_4
REMARK    4  A    between atoms: C_7  and  N_8
REMARK    5  A    between atoms: N_11  and  C_12
REMARK    6  A    between atoms: C_16  and  C_17
REMARK    7  A    between atoms: C_16  and  C_18
REMARK                            x       y       z     vdW  Elec       q    Type
REMARK                         _______ _______ _______ _____ _____    ______ ____
ROOT
ATOM      1  N   UNL     1       2.221   7.643  18.916  0.00  0.00    +0.000 N 
ATOM      2  C   UNL     1       1.833   8.857  18.399  0.00  0.00    +0.000 C 
ATOM      3  O   UNL     1       2.082   9.262  17.269  0.00  0.00    +0.000 OA
ATOM      4  N   UNL     1       1.138   9.628  19.295  0.00  0.00    +0.000 N 
ATOM      5  H   UNL     1       1.971   7.443  19.872  0.00  0.00    +0.000 HD
ATOM      6  H   UNL     1       0.853   9.189  20.157  0.00  0.00    +0.000 HD
ENDROOT
BRANCH   4   7
ATOM      7  C   UNL     1       0.626  10.985  19.054  0.00  0.00    +0.000 C 
ATOM      8  C   UNL     1      -0.780  11.124  18.451  0.00  0.00    +0.000 C 
ATOM      9  C   UNL     1      -1.871  11.477  19.453  0.00  0.00    +0.000 C 
ATOM     10  O   UNL     1      -1.471  12.543  20.310  0.00  0.00    +0.000 OA
ATOM     11  C   UNL     1      -0.331  12.247  21.123  0.00  0.00    +0.000 C 
ATOM     12  C   UNL     1      -0.037  13.538  21.911  0.00  0.00    +0.000 C 
ATOM     13  C   UNL     1      -0.637  11.148  22.149  0.00  0.00    +0.000 C 
ATOM     14  C   UNL     1       0.882  11.932  20.234  0.00  0.00    +0.000 C 
ENDBRANCH   4   7
BRANCH   1  18
ATOM     15  C   UNL     1       4.489   4.686  16.887  0.00  0.00    +0.000 A 
ATOM     16  C   UNL     1       3.232   4.374  17.387  0.00  0.00    +0.000 A 
ATOM     17  C   UNL     1       2.468   5.341  18.042  0.00  0.00    +0.000 A 
ATOM     18  C   UNL     1       2.950   6.637  18.232  0.00  0.00    +0.000 A 
ATOM     19  C   UNL     1       4.223   6.949  17.728  0.00  0.00    +0.000 A 
ATOM     20  C   UNL     1       4.993   5.973  17.070  0.00  0.00    +0.000 A 
BRANCH  15  21
ATOM     21  O   UNL     1       5.126   3.656  16.256  0.00  0.00    +0.000 OA
BRANCH  21  23
ATOM     22  C   UNL     1       5.806   4.080  14.014  0.00  0.00    +0.000 C 
ATOM     23  C   UNL     1       6.256   4.007  15.461  0.00  0.00    +0.000 C 
ENDBRANCH  21  23
ENDBRANCH  15  21
ENDBRANCH   1  18
TORSDOF 4
ENDMDL
MODEL 6
REMARK VINA RESULT:      -6.7      6.769     10.200
REMARK  Name = 
REMARK  7 active torsions:
REMARK  status: ('A' for Active; 'I' for Inactive)
REMARK    1  A    between atoms: C_1  and  C_2
REMARK    2  A    between atoms: C_2  and  O_3
REMARK    3  A    between atoms: O_3  and  C_4
REMARK    4  A    between atoms: C_7  and  N_8
REMARK    5  A    between atoms: N_11  and  C_12
REMARK    6  A    between atoms: C_16  and  C_17
REMARK    7  A    between atoms: C_16  and  C_18
REMARK                            x       y       z     vdW  Elec       q    Type
REMARK                         _______ _______ _______ _____ _____    ______ ____
ROOT
ATOM      1  N   UNL     1       7.160   8.306  17.144  0.00  0.00    +0.000 N 
ATOM      2  C   UNL     1       8.158   8.714  17.998  0.00  0.00    +0.000 C 
ATOM      3  O   UNL     1       8.641   8.044  18.903  0.00  0.00    +0.000 OA
ATOM      4  N   UNL     1       8.574  10.000  17.765  0.00  0.00    +0.000 N 
ATOM      5  H   UNL     1       6.837   8.968  16.455  0.00  0.00    +0.000 HD
ATOM      6  H   UNL     1       8.236  10.451  16.928  0.00  0.00    +0.000 HD
ENDROOT
BRANCH   4   7
ATOM      7  C   UNL     1       9.594  10.732  18.531  0.00  0.00    +0.000 C 
ATOM      8  C   UNL     1      10.834  11.234  17.777  0.00  0.00    +0.000 C 
ATOM      9  C   UNL     1      10.812  12.717  17.431  0.00  0.00    +0.000 C 
ATOM     10  O   UNL     1      10.419  13.510  18.548  0.00  0.00    +0.000 OA
ATOM     11  C   UNL     1       9.096  13.243  19.023  0.00  0.00    +0.000 C 
ATOM     12  C   UNL     1       8.905  14.150  20.254  0.00  0.00    +0.000 C 
ATOM     13  C   UNL     1       8.032  13.642  17.993  0.00  0.00    +0.000 C 
ATOM     14  C   UNL     1       8.987  11.777  19.476  0.00  0.00    +0.000 C 
ENDBRANCH   4   7
BRANCH   1  18
ATOM     15  C   UNL     1       5.190   4.548  17.113  0.00  0.00    +0.000 A 
ATOM     16  C   UNL     1       6.565   4.612  16.924  0.00  0.00    +0.000 A 
ATOM     17  C   UNL     1       7.228   5.840  16.949  0.00  0.00    +0.000 A 
ATOM     18  C   UNL     1       6.532   7.035  17.140  0.00  0.00    +0.000 A 
ATOM     19  C   UNL     1       5.142   6.966  17.327  0.00  0.00    +0.000 A 
ATOM     20  C   UNL     1       4.474   5.730  17.300  0.00  0.00    +0.000 A 
BRANCH  15  21
ATOM     21  O   UNL     1       4.667   3.287  17.080  0.00  0.00    +0.000 OA
BRANCH  21  23
ATOM     22  C   UNL     1       3.491   1.592  18.269  0.00  0.00    +0.000 C 
ATOM     23  C   UNL     1       3.517   3.062  17.892  0.00  0.00    +0.000 C 
ENDBRANCH  21  23
ENDBRANCH  15  21
ENDBRANCH   1  18
TORSDOF 4
ENDMDL
MODEL 7
REMARK VINA RESULT:      -6.7      2.484      3.460
REMARK  Name = 
REMARK  7 active torsions:
REMARK  status: ('A' for Active; 'I' for Inactive)
REMARK    1  A    between atoms: C_1  and  C_2
REMARK    2  A    between atoms: C_2  and  O_3
REMARK    3  A    between atoms: O_3  and  C_4
REMARK    4  A    between atoms: C_7  and  N_8
REMARK    5  A    between atoms: N_11  and  C_12
REMARK    6  A    between atoms: C_16  and  C_17
REMARK    7  A    between atoms: C_16  and  C_18
REMARK                            x       y       z     vdW  Elec       q    Type
REMARK                         _______ _______ _______ _____ _____    ______ ____
ROOT
ATOM      1  N   UNL     1       1.915   9.069  17.762  0.00  0.00    +0.000 N 
ATOM      2  C   UNL     1       2.354   7.997  18.502  0.00  0.00    +0.000 C 
ATOM      3  O   UNL     1       2.048   7.759  19.665  0.00  0.00    +0.000 OA
ATOM      4  N   UNL     1       3.225   7.189  17.817  0.00  0.00    +0.000 N 
ATOM      5  H   UNL     1       2.265   9.160  16.821  0.00  0.00    +0.000 HD
ATOM      6  H   UNL     1       3.333   7.361  16.828  0.00  0.00    +0.000 HD
ENDROOT
BRANCH   4   7
ATOM      7  C   UNL     1       3.894   5.992  18.346  0.00  0.00    +0.000 C 
ATOM      8  C   UNL     1       3.166   4.646  18.214  0.00  0.00    +0.000 C 
ATOM      9  C   UNL     1       3.667   3.760  17.082  0.00  0.00    +0.000 C 
ATOM     10  O   UNL     1       5.090   3.683  17.065  0.00  0.00    +0.000 OA
ATOM     11  C   UNL     1       5.743   4.936  16.843  0.00  0.00    +0.000 C 
ATOM     12  C   UNL     1       7.253   4.638  16.928  0.00  0.00    +0.000 C 
ATOM     13  C   UNL     1       5.465   5.479  15.436  0.00  0.00    +0.000 C 
ATOM     14  C   UNL     1       5.378   5.925  17.962  0.00  0.00    +0.000 C 
ENDBRANCH   4   7
BRANCH   1  18
ATOM     15  C   UNL     1      -0.858  12.001  19.074  0.00  0.00    +0.000 A 
ATOM     16  C   UNL     1       0.506  12.216  19.232  0.00  0.00    +0.000 A 
ATOM     17  C   UNL     1       1.429  11.267  18.790  0.00  0.00    +0.000 A 
ATOM     18  C   UNL     1       1.013  10.073  18.199  0.00  0.00    +0.000 A 
ATOM     19  C   UNL     1      -0.365   9.858  18.045  0.00  0.00    +0.000 A 
ATOM     20  C   UNL     1      -1.295  10.812  18.493  0.00  0.00    +0.000 A 
BRANCH  15  21
ATOM     21  O   UNL     1      -1.653  13.011  19.536  0.00  0.00    +0.000 OA
BRANCH  21  23
ATOM     22  C   UNL     1      -2.265  12.467  21.772  0.00  0.00    +0.000 C 
ATOM     23  C   UNL     1      -2.759  12.621  20.346  0.00  0.00    +0.000 C 
ENDBRANCH  21  23
ENDBRANCH  15  21
ENDBRANCH   1  18
TORSDOF 4
ENDMDL
MODEL 8
REMARK VINA RESULT:      -6.7      2.510      3.753
REMARK  Name = 
REMARK  7 active torsions:
REMARK  status: ('A' for Active; 'I' for Inactive)
REMARK    1  A    between atoms: C_1  and  C_2
REMARK    2  A    between atoms: C_2  and  O_3
REMARK    3  A    between atoms: O_3  and  C_4
REMARK    4  A    between atoms: C_7  and  N_8
REMARK    5  A    between atoms: N_11  and  C_12
REMARK    6  A    between atoms: C_16  and  C_17
REMARK    7  A    between atoms: C_16  and  C_18
REMARK                            x       y       z     vdW  Elec       q    Type
REMARK                         _______ _______ _______ _____ _____    ______ ____
ROOT
ATOM      1  N   UNL     1       2.508   8.065  17.887  0.00  0.00    +0.000 N 
ATOM      2  C   UNL     1       3.147   6.929  18.327  0.00  0.00    +0.000 C 
ATOM      3  O   UNL     1       3.021   6.424  19.436  0.00  0.00    +0.000 OA
ATOM      4  N   UNL     1       4.000   6.395  17.395  0.00  0.00    +0.000 N 
ATOM      5  H   UNL     1       2.721   8.388  16.956  0.00  0.00    +0.000 HD
ATOM      6  H   UNL     1       3.960   6.776  16.461  0.00  0.00    +0.000 HD
ENDROOT
BRANCH   4   7
ATOM      7  C   UNL     1       4.851   5.211  17.578  0.00  0.00    +0.000 C 
ATOM      8  C   UNL     1       5.395   4.516  16.321  0.00  0.00    +0.000 C 
ATOM      9  C   UNL     1       6.847   4.837  15.995  0.00  0.00    +0.000 C 
ATOM     10  O   UNL     1       7.678   4.740  17.148  0.00  0.00    +0.000 OA
ATOM     11  C   UNL     1       7.344   5.658  18.193  0.00  0.00    +0.000 C 
ATOM     12  C   UNL     1       8.311   5.341  19.351  0.00  0.00    +0.000 C 
ATOM     13  C   UNL     1       7.599   7.111  17.773  0.00  0.00    +0.000 C 
ATOM     14  C   UNL     1       5.906   5.406  18.675  0.00  0.00    +0.000 C 
ENDBRANCH   4   7
BRANCH   1  18
ATOM     15  C   UNL     1      -0.346  10.382  20.005  0.00  0.00    +0.000 A 
ATOM     16  C   UNL     1       0.495   9.519  20.695  0.00  0.00    +0.000 A 
ATOM     17  C   UNL     1       1.450   8.763  20.012  0.00  0.00    +0.000 A 
ATOM     18  C   UNL     1       1.573   8.835  18.623  0.00  0.00    +0.000 A 
ATOM     19  C   UNL     1       0.718   9.707  17.930  0.00  0.00    +0.000 A 
ATOM     20  C   UNL     1      -0.245  10.466  18.618  0.00  0.00    +0.000 A 
BRANCH  15  21
ATOM     21  O   UNL     1      -1.225  11.073  20.790  0.00  0.00    +0.000 OA
BRANCH  21  23
ATOM     22  C   UNL     1      -1.518  11.553  23.104  0.00  0.00    +0.000 C 
ATOM     23  C   UNL     1      -0.659  11.800  21.878  0.00  0.00    +0.000 C 
ENDBRANCH  21  23
ENDBRANCH  15  21
ENDBRANCH   1  18
TORSDOF 4
ENDMDL
MODEL 9
REMARK VINA RESULT:      -6.6      2.487      3.395
REMARK  Name = 
REMARK  7 active torsions:
REMARK  status: ('A' for Active; 'I' for Inactive)
REMARK    1  A    between atoms: C_1  and  C_2
REMARK    2  A    between atoms: C_2  and  O_3
REMARK    3  A    between atoms: O_3  and  C_4
REMARK    4  A    between atoms: C_7  and  N_8
REMARK    5  A    between atoms: N_11  and  C_12
REMARK    6  A    between atoms: C_16  and  C_17
REMARK    7  A    between atoms: C_16  and  C_18
REMARK                            x       y       z     vdW  Elec       q    Type
REMARK                         _______ _______ _______ _____ _____    ______ ____
ROOT
ATOM      1  N   UNL     1       1.867   9.036  17.763  0.00  0.00    +0.000 N 
ATOM      2  C   UNL     1       2.321   7.971  18.506  0.00  0.00    +0.000 C 
ATOM      3  O   UNL     1       2.032   7.742  19.674  0.00  0.00    +0.000 OA
ATOM      4  N   UNL     1       3.186   7.162  17.815  0.00  0.00    +0.000 N 
ATOM      5  H   UNL     1       2.203   9.120  16.816  0.00  0.00    +0.000 HD
ATOM      6  H   UNL     1       3.280   7.326  16.824  0.00  0.00    +0.000 HD
ENDROOT
BRANCH   4   7
ATOM      7  C   UNL     1       3.868   5.972  18.344  0.00  0.00    +0.000 C 
ATOM      8  C   UNL     1       3.152   4.619  18.218  0.00  0.00    +0.000 C 
ATOM      9  C   UNL     1       3.657   3.735  17.086  0.00  0.00    +0.000 C 
ATOM     10  O   UNL     1       5.080   3.671  17.064  0.00  0.00    +0.000 OA
ATOM     11  C   UNL     1       5.722   4.930  16.837  0.00  0.00    +0.000 C 
ATOM     12  C   UNL     1       7.234   4.646  16.917  0.00  0.00    +0.000 C 
ATOM     13  C   UNL     1       5.433   5.467  15.430  0.00  0.00    +0.000 C 
ATOM     14  C   UNL     1       5.352   5.918  17.955  0.00  0.00    +0.000 C 
ENDBRANCH   4   7
BRANCH   1  18
ATOM     15  C   UNL     1      -0.750  12.105  19.081  0.00  0.00    +0.000 A 
ATOM     16  C   UNL     1      -1.267  10.959  18.492  0.00  0.00    +0.000 A 
ATOM     17  C   UNL     1      -0.419   9.934  18.068  0.00  0.00    +0.000 A 
ATOM     18  C   UNL     1       0.966  10.039  18.204  0.00  0.00    +0.000 A 
ATOM     19  C   UNL     1       1.485  11.200  18.797  0.00  0.00    +0.000 A 
ATOM     20  C   UNL     1       0.631  12.233  19.221  0.00  0.00    +0.000 A 
BRANCH  15  21
ATOM     21  O   UNL     1      -1.686  13.024  19.462  0.00  0.00    +0.000 OA
BRANCH  21  23
ATOM     22  C   UNL     1      -2.225  12.477  21.716  0.00  0.00    +0.000 C 
ATOM     23  C   UNL     1      -2.741  12.542  20.290  0.00  0.00    +0.000 C 
ENDBRANCH  21  23
ENDBRANCH  15  21
ENDBRANCH   1  18
TORSDOF 4
ENDMDL
