MODEL 1
REMARK VINA RESULT:      -7.2      0.000      0.000
REMARK  Name = 
REMARK  2 active torsions:
REMARK  status: ('A' for Active; 'I' for Inactive)
REMARK    1  A    between atoms: C_5  and  C_6
REMARK    2  A    between atoms: N_17  and  O_18
REMARK                            x       y       z     vdW  Elec       q    Type
REMARK                         _______ _______ _______ _____ _____    ______ ____
ROOT
ATOM      1  O   UNL     1       7.292   7.290  16.850  0.00  0.00    +0.000 OA
ATOM      2  C   UNL     1       6.408   6.434  16.871  0.00  0.00    +0.000 A 
ATOM      3  N   UNL     1       5.201   6.729  17.477  0.00  0.00    +0.000 N 
ATOM      4  C   UNL     1       4.149   5.830  17.524  0.00  0.00    +0.000 A 
ATOM      5  C   UNL     1       2.838   6.015  18.079  0.00  0.00    +0.000 A 
ATOM      6  C   UNL     1       2.100   4.848  17.933  0.00  0.00    +0.000 A 
ATOM      7  S   UNL     1       2.969   3.588  17.159  0.00  0.00    +0.000 S 
ATOM      8  C   UNL     1       4.330   4.578  16.990  0.00  0.00    +0.000 A 
ATOM      9  C   UNL     1       5.555   4.152  16.363  0.00  0.00    +0.000 A 
ATOM     10  O   UNL     1       5.782   3.035  15.899  0.00  0.00    +0.000 OA
ATOM     11  N   UNL     1       6.513   5.160  16.327  0.00  0.00    +0.000 N 
ATOM     12  H   UNL     1       5.123   7.642  17.902  0.00  0.00    +0.000 HD
ENDROOT
BRANCH   5  13
ATOM     13  C   UNL     1       2.258   7.206  18.713  0.00  0.00    +0.000 A 
ATOM     14  C   UNL     1       2.003   7.232  20.093  0.00  0.00    +0.000 A 
ATOM     15  C   UNL     1       1.411   8.350  20.691  0.00  0.00    +0.000 A 
ATOM     16  C   UNL     1       1.104   9.472  19.928  0.00  0.00    +0.000 A 
ATOM     17  C   UNL     1       1.383   9.477  18.563  0.00  0.00    +0.000 A 
ATOM     18  C   UNL     1       1.946   8.349  17.958  0.00  0.00    +0.000 A 
ENDBRANCH   5  13
BRANCH  11  19
ATOM     19  O   UNL     1       7.748   4.824  15.726  0.00  0.00    +0.000 OA
ATOM     20  H   UNL     1       7.464   4.472  14.857  0.00  0.00    +0.000 HD
ENDBRANCH  11  19
TORSDOF 2
ENDMDL
MODEL 2
REMARK VINA RESULT:      -7.2      0.133      1.143
REMARK  Name = 
REMARK  2 active torsions:
REMARK  status: ('A' for Active; 'I' for Inactive)
REMARK    1  A    between atoms: C_5  and  C_6
REMARK    2  A    between atoms: N_17  and  O_18
REMARK                            x       y       z     vdW  Elec       q    Type
REMARK                         _______ _______ _______ _____ _____    ______ ____
ROOT
ATOM      1  O   UNL     1       7.212   7.473  16.743  0.00  0.00    +0.000 OA
ATOM      2  C   UNL     1       6.354   6.593  16.803  0.00  0.00    +0.000 A 
ATOM      3  N   UNL     1       5.151   6.868  17.426  0.00  0.00    +0.000 N 
ATOM      4  C   UNL     1       4.127   5.941  17.516  0.00  0.00    +0.000 A 
ATOM      5  C   UNL     1       2.822   6.102  18.093  0.00  0.00    +0.000 A 
ATOM      6  C   UNL     1       2.116   4.911  17.989  0.00  0.00    +0.000 A 
ATOM      7  S   UNL     1       3.006   3.657  17.229  0.00  0.00    +0.000 S 
ATOM      8  C   UNL     1       4.334   4.681  17.009  0.00  0.00    +0.000 A 
ATOM      9  C   UNL     1       5.558   4.275  16.367  0.00  0.00    +0.000 A 
ATOM     10  O   UNL     1       5.809   3.154  15.926  0.00  0.00    +0.000 OA
ATOM     11  N   UNL     1       6.485   5.309  16.288  0.00  0.00    +0.000 N 
ATOM     12  H   UNL     1       5.055   7.789  17.830  0.00  0.00    +0.000 HD
ENDROOT
BRANCH   5  13
ATOM     13  C   UNL     1       2.220   7.291  18.709  0.00  0.00    +0.000 A 
ATOM     14  C   UNL     1       1.917   8.423  17.938  0.00  0.00    +0.000 A 
ATOM     15  C   UNL     1       1.383   9.572  18.532  0.00  0.00    +0.000 A 
ATOM     16  C   UNL     1       1.108   9.592  19.895  0.00  0.00    +0.000 A 
ATOM     17  C   UNL     1       1.370   8.465  20.670  0.00  0.00    +0.000 A 
ATOM     18  C   UNL     1       1.933   7.327  20.083  0.00  0.00    +0.000 A 
ENDBRANCH   5  13
BRANCH  11  19
ATOM     19  O   UNL     1       7.718   4.995  15.670  0.00  0.00    +0.000 OA
ATOM     20  H   UNL     1       7.922   5.822  15.186  0.00  0.00    +0.000 HD
ENDBRANCH  11  19
TORSDOF 2
ENDMDL
MODEL 3
REMARK VINA RESULT:      -7.0      3.604      5.929
REMARK  Name = 
REMARK  2 active torsions:
REMARK  status: ('A' for Active; 'I' for Inactive)
REMARK    1  A    between atoms: C_5  and  C_6
REMARK    2  A    between atoms: N_17  and  O_18
REMARK                            x       y       z     vdW  Elec       q    Type
REMARK                         _______ _______ _______ _____ _____    ______ ____
ROOT
ATOM      1  O   UNL     1       4.904   1.395  20.195  0.00  0.00    +0.000 OA
ATOM      2  C   UNL     1       4.370   2.480  19.970  0.00  0.00    +0.000 A 
ATOM      3  N   UNL     1       4.763   3.205  18.860  0.00  0.00    +0.000 N 
ATOM      4  C   UNL     1       4.197   4.422  18.524  0.00  0.00    +0.000 A 
ATOM      5  C   UNL     1       4.476   5.256  17.388  0.00  0.00    +0.000 A 
ATOM      6  C   UNL     1       3.696   6.403  17.449  0.00  0.00    +0.000 A 
ATOM      7  S   UNL     1       2.677   6.460  18.827  0.00  0.00    +0.000 S 
ATOM      8  C   UNL     1       3.242   4.955  19.354  0.00  0.00    +0.000 A 
ATOM      9  C   UNL     1       2.779   4.303  20.552  0.00  0.00    +0.000 A 
ATOM     10  O   UNL     1       1.952   4.749  21.348  0.00  0.00    +0.000 OA
ATOM     11  N   UNL     1       3.380   3.065  20.750  0.00  0.00    +0.000 N 
ATOM     12  H   UNL     1       5.503   2.804  18.301  0.00  0.00    +0.000 HD
ENDROOT
BRANCH   5  13
ATOM     13  C   UNL     1       5.407   5.027  16.276  0.00  0.00    +0.000 A 
ATOM     14  C   UNL     1       6.721   5.516  16.327  0.00  0.00    +0.000 A 
ATOM     15  C   UNL     1       7.595   5.336  15.250  0.00  0.00    +0.000 A 
ATOM     16  C   UNL     1       7.182   4.631  14.124  0.00  0.00    +0.000 A 
ATOM     17  C   UNL     1       5.893   4.109  14.070  0.00  0.00    +0.000 A 
ATOM     18  C   UNL     1       5.008   4.315  15.133  0.00  0.00    +0.000 A 
ENDBRANCH   5  13
BRANCH  11  19
ATOM     19  O   UNL     1       2.980   2.356  21.907  0.00  0.00    +0.000 OA
ATOM     20  H   UNL     1       3.256   2.962  22.625  0.00  0.00    +0.000 HD
ENDBRANCH  11  19
TORSDOF 2
ENDMDL
MODEL 4
REMARK VINA RESULT:      -7.0      3.405      4.718
REMARK  Name = 
REMARK  2 active torsions:
REMARK  status: ('A' for Active; 'I' for Inactive)
REMARK    1  A    between atoms: C_5  and  C_6
REMARK    2  A    between atoms: N_17  and  O_18
REMARK                            x       y       z     vdW  Elec       q    Type
REMARK                         _______ _______ _______ _____ _____    ______ ____
ROOT
ATOM      1  O   UNL     1       5.072   3.045  12.226  0.00  0.00    +0.000 OA
ATOM      2  C   UNL     1       5.584   3.674  13.152  0.00  0.00    +0.000 A 
ATOM      3  N   UNL     1       4.946   3.705  14.377  0.00  0.00    +0.000 N 
ATOM      4  C   UNL     1       5.466   4.369  15.475  0.00  0.00    +0.000 A 
ATOM      5  C   UNL     1       4.936   4.450  16.807  0.00  0.00    +0.000 A 
ATOM      6  C   UNL     1       5.766   5.238  17.593  0.00  0.00    +0.000 A 
ATOM      7  S   UNL     1       7.123   5.853  16.743  0.00  0.00    +0.000 S 
ATOM      8  C   UNL     1       6.640   5.067  15.325  0.00  0.00    +0.000 A 
ATOM      9  C   UNL     1       7.374   5.129  14.087  0.00  0.00    +0.000 A 
ATOM     10  O   UNL     1       8.410   5.763  13.889  0.00  0.00    +0.000 OA
ATOM     11  N   UNL     1       6.780   4.376  13.079  0.00  0.00    +0.000 N 
ATOM     12  H   UNL     1       4.059   3.222  14.435  0.00  0.00    +0.000 HD
ENDROOT
BRANCH   5  13
ATOM     13  C   UNL     1       3.726   3.831  17.363  0.00  0.00    +0.000 A 
ATOM     14  C   UNL     1       2.573   4.594  17.601  0.00  0.00    +0.000 A 
ATOM     15  C   UNL     1       1.435   4.014  18.170  0.00  0.00    +0.000 A 
ATOM     16  C   UNL     1       1.418   2.657  18.473  0.00  0.00    +0.000 A 
ATOM     17  C   UNL     1       2.541   1.876  18.211  0.00  0.00    +0.000 A 
ATOM     18  C   UNL     1       3.690   2.461  17.670  0.00  0.00    +0.000 A 
ENDBRANCH   5  13
BRANCH  11  19
ATOM     19  O   UNL     1       7.439   4.382  11.827  0.00  0.00    +0.000 OA
ATOM     20  H   UNL     1       7.497   3.426  11.621  0.00  0.00    +0.000 HD
ENDBRANCH  11  19
TORSDOF 2
ENDMDL
MODEL 5
REMARK VINA RESULT:      -7.0      3.393      4.651
REMARK  Name = 
REMARK  2 active torsions:
REMARK  status: ('A' for Active; 'I' for Inactive)
REMARK    1  A    between atoms: C_5  and  C_6
REMARK    2  A    between atoms: N_17  and  O_18
REMARK                            x       y       z     vdW  Elec       q    Type
REMARK                         _______ _______ _______ _____ _____    ______ ____
ROOT
ATOM      1  O   UNL     1       5.101   3.020  12.251  0.00  0.00    +0.000 OA
ATOM      2  C   UNL     1       5.612   3.664  13.168  0.00  0.00    +0.000 A 
ATOM      3  N   UNL     1       4.973   3.710  14.393  0.00  0.00    +0.000 N 
ATOM      4  C   UNL     1       5.491   4.393  15.480  0.00  0.00    +0.000 A 
ATOM      5  C   UNL     1       4.961   4.490  16.811  0.00  0.00    +0.000 A 
ATOM      6  C   UNL     1       5.788   5.293  17.585  0.00  0.00    +0.000 A 
ATOM      7  S   UNL     1       7.142   5.902  16.726  0.00  0.00    +0.000 S 
ATOM      8  C   UNL     1       6.661   5.093  15.320  0.00  0.00    +0.000 A 
ATOM      9  C   UNL     1       7.395   5.141  14.081  0.00  0.00    +0.000 A 
ATOM     10  O   UNL     1       8.428   5.777  13.873  0.00  0.00    +0.000 OA
ATOM     11  N   UNL     1       6.804   4.371  13.084  0.00  0.00    +0.000 N 
ATOM     12  H   UNL     1       4.089   3.224  14.458  0.00  0.00    +0.000 HD
ENDROOT
BRANCH   5  13
ATOM     13  C   UNL     1       3.754   3.873  17.377  0.00  0.00    +0.000 A 
ATOM     14  C   UNL     1       3.734   2.510  17.711  0.00  0.00    +0.000 A 
ATOM     15  C   UNL     1       2.573   1.912  18.210  0.00  0.00    +0.000 A 
ATOM     16  C   UNL     1       1.428   2.674  18.420  0.00  0.00    +0.000 A 
ATOM     17  C   UNL     1       1.440   4.035  18.127  0.00  0.00    +0.000 A 
ATOM     18  C   UNL     1       2.591   4.628  17.599  0.00  0.00    +0.000 A 
ENDBRANCH   5  13
BRANCH  11  19
ATOM     19  O   UNL     1       7.463   4.362  11.832  0.00  0.00    +0.000 OA
ATOM     20  H   UNL     1       6.719   4.493  11.208  0.00  0.00    +0.000 HD
ENDBRANCH  11  19
TORSDOF 2
ENDMDL
MODEL 6
REMARK VINA RESULT:      -7.0      3.595      5.948
REMARK  Name = 
REMARK  2 active torsions:
REMARK  status: ('A' for Active; 'I' for Inactive)
REMARK    1  A    between atoms: C_5  and  C_6
REMARK    2  A    between atoms: N_17  and  O_18
REMARK                            x       y       z     vdW  Elec       q    Type
REMARK                         _______ _______ _______ _____ _____    ______ ____
ROOT
ATOM      1  O   UNL     1       4.886   1.397  20.194  0.00  0.00    +0.000 OA
ATOM      2  C   UNL     1       4.351   2.483  19.977  0.00  0.00    +0.000 A 
ATOM      3  N   UNL     1       4.738   3.214  18.869  0.00  0.00    +0.000 N 
ATOM      4  C   UNL     1       4.170   4.433  18.542  0.00  0.00    +0.000 A 
ATOM      5  C   UNL     1       4.444   5.273  17.410  0.00  0.00    +0.000 A 
ATOM      6  C   UNL     1       3.663   6.419  17.480  0.00  0.00    +0.000 A 
ATOM      7  S   UNL     1       2.650   6.468  18.864  0.00  0.00    +0.000 S 
ATOM      8  C   UNL     1       3.218   4.961  19.380  0.00  0.00    +0.000 A 
ATOM      9  C   UNL     1       2.761   4.302  20.576  0.00  0.00    +0.000 A 
ATOM     10  O   UNL     1       1.937   4.742  21.378  0.00  0.00    +0.000 OA
ATOM     11  N   UNL     1       3.364   3.062  20.765  0.00  0.00    +0.000 N 
ATOM     12  H   UNL     1       5.476   2.816  18.305  0.00  0.00    +0.000 HD
ENDROOT
BRANCH   5  13
ATOM     13  C   UNL     1       5.369   5.051  16.292  0.00  0.00    +0.000 A 
ATOM     14  C   UNL     1       4.947   4.384  15.132  0.00  0.00    +0.000 A 
ATOM     15  C   UNL     1       5.839   4.134  14.084  0.00  0.00    +0.000 A 
ATOM     16  C   UNL     1       7.154   4.582  14.163  0.00  0.00    +0.000 A 
ATOM     17  C   UNL     1       7.581   5.276  15.291  0.00  0.00    +0.000 A 
ATOM     18  C   UNL     1       6.699   5.500  16.353  0.00  0.00    +0.000 A 
ENDBRANCH   5  13
BRANCH  11  19
ATOM     19  O   UNL     1       2.970   2.347  21.919  0.00  0.00    +0.000 OA
ATOM     20  H   UNL     1       2.452   3.018  22.410  0.00  0.00    +0.000 HD
ENDBRANCH  11  19
TORSDOF 2
ENDMDL
MODEL 7
REMARK VINA RESULT:      -7.0      3.558      6.344
REMARK  Name = 
REMARK  2 active torsions:
REMARK  status: ('A' for Active; 'I' for Inactive)
REMARK    1  A    between atoms: C_5  and  C_6
REMARK    2  A    between atoms: N_17  and  O_18
REMARK                            x       y       z     vdW  Elec       q    Type
REMARK                         _______ _______ _______ _____ _____    ______ ____
ROOT
ATOM      1  O   UNL     1       3.753   1.265  18.126  0.00  0.00    +0.000 OA
ATOM      2  C   UNL     1       3.825   2.493  18.077  0.00  0.00    +0.000 A 
ATOM      3  N   UNL     1       4.467   3.086  17.006  0.00  0.00    +0.000 N 
ATOM      4  C   UNL     1       4.572   4.459  16.865  0.00  0.00    +0.000 A 
ATOM      5  C   UNL     1       5.169   5.206  15.793  0.00  0.00    +0.000 A 
ATOM      6  C   UNL     1       5.075   6.564  16.063  0.00  0.00    +0.000 A 
ATOM      7  S   UNL     1       4.300   6.910  17.553  0.00  0.00    +0.000 S 
ATOM      8  C   UNL     1       4.060   5.263  17.854  0.00  0.00    +0.000 A 
ATOM      9  C   UNL     1       3.399   4.753  19.028  0.00  0.00    +0.000 A 
ATOM     10  O   UNL     1       2.952   5.423  19.958  0.00  0.00    +0.000 OA
ATOM     11  N   UNL     1       3.307   3.365  19.026  0.00  0.00    +0.000 N 
ATOM     12  H   UNL     1       4.875   2.461  16.324  0.00  0.00    +0.000 HD
ENDROOT
BRANCH   5  13
ATOM     13  C   UNL     1       5.797   4.717  14.559  0.00  0.00    +0.000 A 
ATOM     14  C   UNL     1       7.094   5.119  14.206  0.00  0.00    +0.000 A 
ATOM     15  C   UNL     1       7.676   4.688  13.009  0.00  0.00    +0.000 A 
ATOM     16  C   UNL     1       6.988   3.819  12.169  0.00  0.00    +0.000 A 
ATOM     17  C   UNL     1       5.714   3.382  12.521  0.00  0.00    +0.000 A 
ATOM     18  C   UNL     1       5.118   3.836  13.702  0.00  0.00    +0.000 A 
ENDBRANCH   5  13
BRANCH  11  19
ATOM     19  O   UNL     1       2.669   2.781  20.145  0.00  0.00    +0.000 OA
ATOM     20  H   UNL     1       2.808   1.825  19.985  0.00  0.00    +0.000 HD
ENDBRANCH  11  19
TORSDOF 2
ENDMDL
MODEL 8
REMARK VINA RESULT:      -6.9      3.562      6.337
REMARK  Name = 
REMARK  2 active torsions:
REMARK  status: ('A' for Active; 'I' for Inactive)
REMARK    1  A    between atoms: C_5  and  C_6
REMARK    2  A    between atoms: N_17  and  O_18
REMARK                            x       y       z     vdW  Elec       q    Type
REMARK                         _______ _______ _______ _____ _____    ______ ____
ROOT
ATOM      1  O   UNL     1       3.724   1.269  18.092  0.00  0.00    +0.000 OA
ATOM      2  C   UNL     1       3.812   2.496  18.055  0.00  0.00    +0.000 A 
ATOM      3  N   UNL     1       4.450   3.093  16.985  0.00  0.00    +0.000 N 
ATOM      4  C   UNL     1       4.572   4.465  16.857  0.00  0.00    +0.000 A 
ATOM      5  C   UNL     1       5.168   5.216  15.788  0.00  0.00    +0.000 A 
ATOM      6  C   UNL     1       5.095   6.573  16.073  0.00  0.00    +0.000 A 
ATOM      7  S   UNL     1       4.339   6.912  17.575  0.00  0.00    +0.000 S 
ATOM      8  C   UNL     1       4.081   5.265  17.860  0.00  0.00    +0.000 A 
ATOM      9  C   UNL     1       3.425   4.751  19.035  0.00  0.00    +0.000 A 
ATOM     10  O   UNL     1       2.997   5.417  19.978  0.00  0.00    +0.000 OA
ATOM     11  N   UNL     1       3.315   3.364  19.019  0.00  0.00    +0.000 N 
ATOM     12  H   UNL     1       4.843   2.470  16.291  0.00  0.00    +0.000 HD
ENDROOT
BRANCH   5  13
ATOM     13  C   UNL     1       5.776   4.733  14.542  0.00  0.00    +0.000 A 
ATOM     14  C   UNL     1       5.076   3.864  13.691  0.00  0.00    +0.000 A 
ATOM     15  C   UNL     1       5.670   3.370  12.525  0.00  0.00    +0.000 A 
ATOM     16  C   UNL     1       6.956   3.767  12.173  0.00  0.00    +0.000 A 
ATOM     17  C   UNL     1       7.653   4.656  12.987  0.00  0.00    +0.000 A 
ATOM     18  C   UNL     1       7.072   5.127  14.169  0.00  0.00    +0.000 A 
ENDBRANCH   5  13
BRANCH  11  19
ATOM     19  O   UNL     1       2.681   2.776  20.139  0.00  0.00    +0.000 OA
ATOM     20  H   UNL     1       2.311   3.558  20.599  0.00  0.00    +0.000 HD
ENDBRANCH  11  19
TORSDOF 2
ENDMDL
MODEL 9
REMARK VINA RESULT:      -6.8      2.672      3.612
REMARK  Name = 
REMARK  2 active torsions:
REMARK  status: ('A' for Active; 'I' for Inactive)
REMARK    1  A    between atoms: C_5  and  C_6
REMARK    2  A    between atoms: N_17  and  O_18
REMARK                            x       y       z     vdW  Elec       q    Type
REMARK                         _______ _______ _______ _____ _____    ______ ____
ROOT
ATOM      1  O   UNL     1       0.687   2.921  19.767  0.00  0.00    +0.000 OA
ATOM      2  C   UNL     1       1.609   3.431  19.130  0.00  0.00    +0.000 A 
ATOM      3  N   UNL     1       1.672   4.808  19.026  0.00  0.00    +0.000 N 
ATOM      4  C   UNL     1       2.687   5.460  18.347  0.00  0.00    +0.000 A 
ATOM      5  C   UNL     1       2.900   6.872  18.196  0.00  0.00    +0.000 A 
ATOM      6  C   UNL     1       4.029   7.093  17.419  0.00  0.00    +0.000 A 
ATOM      7  S   UNL     1       4.789   5.647  16.897  0.00  0.00    +0.000 S 
ATOM      8  C   UNL     1       3.642   4.706  17.710  0.00  0.00    +0.000 A 
ATOM      9  C   UNL     1       3.656   3.266  17.725  0.00  0.00    +0.000 A 
ATOM     10  O   UNL     1       4.466   2.542  17.146  0.00  0.00    +0.000 OA
ATOM     11  N   UNL     1       2.621   2.731  18.485  0.00  0.00    +0.000 N 
ATOM     12  H   UNL     1       0.925   5.327  19.466  0.00  0.00    +0.000 HD
ENDROOT
BRANCH   5  13
ATOM     13  C   UNL     1       2.120   7.991  18.740  0.00  0.00    +0.000 A 
ATOM     14  C   UNL     1       1.771   8.029  20.098  0.00  0.00    +0.000 A 
ATOM     15  C   UNL     1       0.992   9.073  20.608  0.00  0.00    +0.000 A 
ATOM     16  C   UNL     1       0.586  10.113  19.779  0.00  0.00    +0.000 A 
ATOM     17  C   UNL     1       0.952  10.110  18.436  0.00  0.00    +0.000 A 
ATOM     18  C   UNL     1       1.705   9.051  17.917  0.00  0.00    +0.000 A 
ENDBRANCH   5  13
BRANCH  11  19
ATOM     19  O   UNL     1       2.562   1.320  18.553  0.00  0.00    +0.000 OA
ATOM     20  H   UNL     1       1.800   1.118  17.971  0.00  0.00    +0.000 HD
ENDBRANCH  11  19
TORSDOF 2
ENDMDL
