MODEL 1
REMARK VINA RESULT:      -8.2      0.000      0.000
REMARK  Name = 
REMARK  7 active torsions:
REMARK  status: ('A' for Active; 'I' for Inactive)
REMARK    1  A    between atoms: C_1  and  C_2
REMARK    2  A    between atoms: C_2  and  C_3
REMARK    3  A    between atoms: C_2  and  C_4
REMARK    4  A    between atoms: C_7  and  C_8
REMARK    5  A    between atoms: N_11  and  C_12
REMARK    6  A    between atoms: C_12  and  C_13
REMARK    7  A    between atoms: N_15  and  C_16
REMARK                            x       y       z     vdW  Elec       q    Type
REMARK                         _______ _______ _______ _____ _____    ______ ____
ROOT
ATOM      1  C   UNL     1       4.921   4.612  16.152  0.00  0.00    +0.000 C 
ATOM      2  C   UNL     1       6.377   4.163  16.195  0.00  0.00    +0.000 C 
ATOM      3  C   UNL     1       7.126   4.739  17.391  0.00  0.00    +0.000 C 
ATOM      4  N   UNL     1       7.065   6.213  17.345  0.00  0.00    +0.000 NA
ATOM      5  C   UNL     1       5.667   6.652  17.514  0.00  0.00    +0.000 C 
ATOM      6  C   UNL     1       4.792   6.124  16.376  0.00  0.00    +0.000 C 
ENDROOT
BRANCH   1  10
ATOM      7  C   UNL     1       2.566   3.721  18.606  0.00  0.00    +0.000 A 
ATOM      8  N   UNL     1       3.258   2.602  18.665  0.00  0.00    +0.000 NA
ATOM      9  N   UNL     1       4.215   2.683  17.669  0.00  0.00    +0.000 NA
ATOM     10  C   UNL     1       4.046   3.852  17.087  0.00  0.00    +0.000 A 
ATOM     11  O   UNL     1       2.976   4.541  17.591  0.00  0.00    +0.000 OA
BRANCH   7  13
ATOM     12  C   UNL     1       1.143   3.292  20.613  0.00  0.00    +0.000 C 
ATOM     13  C   UNL     1       1.568   4.296  19.548  0.00  0.00    +0.000 C 
ATOM     14  C   UNL     1       2.131   5.563  20.194  0.00  0.00    +0.000 C 
ENDBRANCH   7  13
ENDBRANCH   1  10
BRANCH   4  15
ATOM     15  C   UNL     1       7.885   6.797  18.434  0.00  0.00    +0.000 C 
BRANCH  15  16
ATOM     16  C   UNL     1       8.191   8.275  18.197  0.00  0.00    +0.000 C 
ATOM     17  O   UNL     1       7.773   8.824  17.176  0.00  0.00    +0.000 OA
ATOM     18  N   UNL     1       8.990   8.856  19.163  0.00  0.00    +0.000 N 
ATOM     19  H   UNL     1       9.380   8.218  19.855  0.00  0.00    +0.000 HD
BRANCH  18  20
ATOM     20  C   UNL     1       9.329  10.227  19.234  0.00  0.00    +0.000 A 
ATOM     21  C   UNL     1       9.715  10.963  18.116  0.00  0.00    +0.000 A 
ATOM     22  C   UNL     1      10.132  12.282  18.258  0.00  0.00    +0.000 A 
ATOM     23  C   UNL     1      10.122  12.838  19.523  0.00  0.00    +0.000 A 
ATOM     24  N   UNL     1       9.688  12.185  20.623  0.00  0.00    +0.000 NA
ATOM     25  C   UNL     1       9.294  10.898  20.450  0.00  0.00    +0.000 A 
ENDBRANCH  18  20
ENDBRANCH  15  16
ENDBRANCH   4  15
TORSDOF 5
ENDMDL
MODEL 2
REMARK VINA RESULT:      -8.0      1.119      1.208
REMARK  Name = 
REMARK  7 active torsions:
REMARK  status: ('A' for Active; 'I' for Inactive)
REMARK    1  A    between atoms: C_1  and  C_2
REMARK    2  A    between atoms: C_2  and  C_3
REMARK    3  A    between atoms: C_2  and  C_4
REMARK    4  A    between atoms: C_7  and  C_8
REMARK    5  A    between atoms: N_11  and  C_12
REMARK    6  A    between atoms: C_12  and  C_13
REMARK    7  A    between atoms: N_15  and  C_16
REMARK                            x       y       z     vdW  Elec       q    Type
REMARK                         _______ _______ _______ _____ _____    ______ ____
ROOT
ATOM      1  C   UNL     1       4.831   4.394  17.120  0.00  0.00    +0.000 C 
ATOM      2  C   UNL     1       6.259   4.176  16.631  0.00  0.00    +0.000 C 
ATOM      3  C   UNL     1       7.292   4.786  17.571  0.00  0.00    +0.000 C 
ATOM      4  N   UNL     1       7.034   6.233  17.713  0.00  0.00    +0.000 NA
ATOM      5  C   UNL     1       5.734   6.436  18.380  0.00  0.00    +0.000 C 
ATOM      6  C   UNL     1       4.597   5.851  17.541  0.00  0.00    +0.000 C 
ENDROOT
BRANCH   1  10
ATOM      7  C   UNL     1       2.994   2.504  19.446  0.00  0.00    +0.000 A 
ATOM      8  N   UNL     1       4.146   2.423  20.081  0.00  0.00    +0.000 NA
ATOM      9  N   UNL     1       5.083   3.031  19.264  0.00  0.00    +0.000 NA
ATOM     10  C   UNL     1       4.430   3.450  18.200  0.00  0.00    +0.000 A 
ATOM     11  O   UNL     1       3.109   3.096  18.219  0.00  0.00    +0.000 OA
BRANCH   7  13
ATOM     12  C   UNL     1       1.293   2.942  21.222  0.00  0.00    +0.000 C 
ATOM     13  C   UNL     1       1.607   2.229  19.913  0.00  0.00    +0.000 C 
ATOM     14  C   UNL     1       0.605   2.626  18.827  0.00  0.00    +0.000 C 
ENDBRANCH   7  13
ENDBRANCH   1  10
BRANCH   4  15
ATOM     15  C   UNL     1       8.095   6.867  18.529  0.00  0.00    +0.000 C 
BRANCH  15  16
ATOM     16  C   UNL     1       8.236   8.360  18.234  0.00  0.00    +0.000 C 
ATOM     17  O   UNL     1       7.631   8.848  17.277  0.00  0.00    +0.000 OA
ATOM     18  N   UNL     1       9.112   9.030  19.067  0.00  0.00    +0.000 N 
ATOM     19  H   UNL     1       9.650   8.443  19.704  0.00  0.00    +0.000 HD
BRANCH  18  20
ATOM     20  C   UNL     1       9.338  10.425  19.073  0.00  0.00    +0.000 A 
ATOM     21  C   UNL     1       9.779  11.118  17.947  0.00  0.00    +0.000 A 
ATOM     22  C   UNL     1      10.080  12.472  18.035  0.00  0.00    +0.000 A 
ATOM     23  C   UNL     1       9.899  13.106  19.250  0.00  0.00    +0.000 A 
ATOM     24  N   UNL     1       9.405  12.490  20.347  0.00  0.00    +0.000 NA
ATOM     25  C   UNL     1       9.129  11.167  20.230  0.00  0.00    +0.000 A 
ENDBRANCH  18  20
ENDBRANCH  15  16
ENDBRANCH   4  15
TORSDOF 5
ENDMDL
MODEL 3
REMARK VINA RESULT:      -8.0      0.868      1.302
REMARK  Name = 
REMARK  7 active torsions:
REMARK  status: ('A' for Active; 'I' for Inactive)
REMARK    1  A    between atoms: C_1  and  C_2
REMARK    2  A    between atoms: C_2  and  C_3
REMARK    3  A    between atoms: C_2  and  C_4
REMARK    4  A    between atoms: C_7  and  C_8
REMARK    5  A    between atoms: N_11  and  C_12
REMARK    6  A    between atoms: C_12  and  C_13
REMARK    7  A    between atoms: N_15  and  C_16
REMARK                            x       y       z     vdW  Elec       q    Type
REMARK                         _______ _______ _______ _____ _____    ______ ____
ROOT
ATOM      1  C   UNL     1       4.631   4.482  16.499  0.00  0.00    +0.000 C 
ATOM      2  C   UNL     1       6.088   4.093  16.280  0.00  0.00    +0.000 C 
ATOM      3  C   UNL     1       7.002   4.631  17.375  0.00  0.00    +0.000 C 
ATOM      4  N   UNL     1       6.887   6.101  17.434  0.00  0.00    +0.000 NA
ATOM      5  C   UNL     1       5.521   6.470  17.851  0.00  0.00    +0.000 C 
ATOM      6  C   UNL     1       4.491   5.972  16.837  0.00  0.00    +0.000 C 
ENDROOT
BRANCH   1  10
ATOM      7  C   UNL     1       2.942   3.334  19.361  0.00  0.00    +0.000 A 
ATOM      8  N   UNL     1       3.442   2.166  19.017  0.00  0.00    +0.000 NA
ATOM      9  N   UNL     1       4.087   2.359  17.808  0.00  0.00    +0.000 NA
ATOM     10  C   UNL     1       3.943   3.633  17.512  0.00  0.00    +0.000 A 
ATOM     11  O   UNL     1       3.174   4.303  18.424  0.00  0.00    +0.000 OA
BRANCH   7  13
ATOM     12  C   UNL     1       0.932   4.336  20.453  0.00  0.00    +0.000 C 
ATOM     13  C   UNL     1       2.344   3.796  20.643  0.00  0.00    +0.000 C 
ATOM     14  C   UNL     1       2.353   2.654  21.662  0.00  0.00    +0.000 C 
ENDBRANCH   7  13
ENDBRANCH   1  10
BRANCH   4  15
ATOM     15  C   UNL     1       7.853   6.655  18.412  0.00  0.00    +0.000 C 
BRANCH  15  16
ATOM     16  C   UNL     1       8.150   8.132  18.158  0.00  0.00    +0.000 C 
ATOM     17  O   UNL     1       7.759   8.657  17.114  0.00  0.00    +0.000 OA
ATOM     18  N   UNL     1       8.910   8.741  19.138  0.00  0.00    +0.000 N 
ATOM     19  H   UNL     1       9.283   8.120  19.855  0.00  0.00    +0.000 HD
BRANCH  18  20
ATOM     20  C   UNL     1       9.230  10.116  19.195  0.00  0.00    +0.000 A 
ATOM     21  C   UNL     1       9.343  10.812  20.397  0.00  0.00    +0.000 A 
ATOM     22  C   UNL     1       9.562  12.185  20.391  0.00  0.00    +0.000 A 
ATOM     23  C   UNL     1       9.693  12.822  19.171  0.00  0.00    +0.000 A 
ATOM     24  N   UNL     1       9.662  12.176  17.985  0.00  0.00    +0.000 NA
ATOM     25  C   UNL     1       9.439  10.838  18.025  0.00  0.00    +0.000 A 
ENDBRANCH  18  20
ENDBRANCH  15  16
ENDBRANCH   4  15
TORSDOF 5
ENDMDL
MODEL 4
REMARK VINA RESULT:      -7.7      1.318      1.722
REMARK  Name = 
REMARK  7 active torsions:
REMARK  status: ('A' for Active; 'I' for Inactive)
REMARK    1  A    between atoms: C_1  and  C_2
REMARK    2  A    between atoms: C_2  and  C_3
REMARK    3  A    between atoms: C_2  and  C_4
REMARK    4  A    between atoms: C_7  and  C_8
REMARK    5  A    between atoms: N_11  and  C_12
REMARK    6  A    between atoms: C_12  and  C_13
REMARK    7  A    between atoms: N_15  and  C_16
REMARK                            x       y       z     vdW  Elec       q    Type
REMARK                         _______ _______ _______ _____ _____    ______ ____
ROOT
ATOM      1  C   UNL     1       5.243   3.748  17.644  0.00  0.00    +0.000 C 
ATOM      2  C   UNL     1       5.958   4.470  18.780  0.00  0.00    +0.000 C 
ATOM      3  C   UNL     1       6.027   5.976  18.556  0.00  0.00    +0.000 C 
ATOM      4  N   UNL     1       6.719   6.253  17.282  0.00  0.00    +0.000 NA
ATOM      5  C   UNL     1       5.912   5.730  16.162  0.00  0.00    +0.000 C 
ATOM      6  C   UNL     1       5.750   4.213  16.273  0.00  0.00    +0.000 C 
ENDROOT
BRANCH   1  10
ATOM      7  C   UNL     1       1.936   4.037  18.805  0.00  0.00    +0.000 A 
ATOM      8  N   UNL     1       1.631   3.472  17.655  0.00  0.00    +0.000 NA
ATOM      9  N   UNL     1       2.817   3.356  16.951  0.00  0.00    +0.000 NA
ATOM     10  C   UNL     1       3.759   3.845  17.730  0.00  0.00    +0.000 A 
ATOM     11  O   UNL     1       3.263   4.352  18.901  0.00  0.00    +0.000 OA
BRANCH   7  13
ATOM     12  C   UNL     1       1.158   2.971  20.925  0.00  0.00    +0.000 C 
ATOM     13  C   UNL     1       1.131   4.213  20.044  0.00  0.00    +0.000 C 
ATOM     14  C   UNL     1       1.629   5.436  20.818  0.00  0.00    +0.000 C 
ENDBRANCH   7  13
ENDBRANCH   1  10
BRANCH   4  15
ATOM     15  C   UNL     1       6.900   7.712  17.101  0.00  0.00    +0.000 C 
BRANCH  15  16
ATOM     16  C   UNL     1       7.997   8.275  18.003  0.00  0.00    +0.000 C 
ATOM     17  O   UNL     1       8.620   7.513  18.745  0.00  0.00    +0.000 OA
ATOM     18  N   UNL     1       8.146   9.647  17.938  0.00  0.00    +0.000 N 
ATOM     19  H   UNL     1       7.442  10.141  17.392  0.00  0.00    +0.000 HD
BRANCH  18  20
ATOM     20  C   UNL     1       9.153  10.396  18.587  0.00  0.00    +0.000 A 
ATOM     21  C   UNL     1       9.209  10.535  19.973  0.00  0.00    +0.000 A 
ATOM     22  C   UNL     1      10.162  11.364  20.553  0.00  0.00    +0.000 A 
ATOM     23  C   UNL     1      11.058  12.013  19.724  0.00  0.00    +0.000 A 
ATOM     24  N   UNL     1      11.086  11.851  18.384  0.00  0.00    +0.000 NA
ATOM     25  C   UNL     1      10.138  11.041  17.848  0.00  0.00    +0.000 A 
ENDBRANCH  18  20
ENDBRANCH  15  16
ENDBRANCH   4  15
TORSDOF 5
ENDMDL
MODEL 5
REMARK VINA RESULT:      -7.6      1.105      1.520
REMARK  Name = 
REMARK  7 active torsions:
REMARK  status: ('A' for Active; 'I' for Inactive)
REMARK    1  A    between atoms: C_1  and  C_2
REMARK    2  A    between atoms: C_2  and  C_3
REMARK    3  A    between atoms: C_2  and  C_4
REMARK    4  A    between atoms: C_7  and  C_8
REMARK    5  A    between atoms: N_11  and  C_12
REMARK    6  A    between atoms: C_12  and  C_13
REMARK    7  A    between atoms: N_15  and  C_16
REMARK                            x       y       z     vdW  Elec       q    Type
REMARK                         _______ _______ _______ _____ _____    ______ ____
ROOT
ATOM      1  C   UNL     1       4.917   4.570  16.973  0.00  0.00    +0.000 C 
ATOM      2  C   UNL     1       6.370   4.309  16.591  0.00  0.00    +0.000 C 
ATOM      3  C   UNL     1       7.349   4.932  17.578  0.00  0.00    +0.000 C 
ATOM      4  N   UNL     1       7.113   6.387  17.654  0.00  0.00    +0.000 NA
ATOM      5  C   UNL     1       5.775   6.638  18.223  0.00  0.00    +0.000 C 
ATOM      6  C   UNL     1       4.685   6.044  17.329  0.00  0.00    +0.000 C 
ENDROOT
BRANCH   1  10
ATOM      7  C   UNL     1       2.908   2.899  19.325  0.00  0.00    +0.000 A 
ATOM      8  N   UNL     1       4.054   2.667  19.932  0.00  0.00    +0.000 NA
ATOM      9  N   UNL     1       5.042   3.162  19.099  0.00  0.00    +0.000 NA
ATOM     10  C   UNL     1       4.425   3.671  18.054  0.00  0.00    +0.000 A 
ATOM     11  O   UNL     1       3.070   3.485  18.100  0.00  0.00    +0.000 OA
BRANCH   7  13
ATOM     12  C   UNL     1       0.982   4.129  20.331  0.00  0.00    +0.000 C 
ATOM     13  C   UNL     1       1.508   2.794  19.820  0.00  0.00    +0.000 C 
ATOM     14  C   UNL     1       0.605   2.243  18.715  0.00  0.00    +0.000 C 
ENDBRANCH   7  13
ENDBRANCH   1  10
BRANCH   4  15
ATOM     15  C   UNL     1       8.129   7.030  18.519  0.00  0.00    +0.000 C 
BRANCH  15  16
ATOM     16  C   UNL     1       8.251   8.530  18.251  0.00  0.00    +0.000 C 
ATOM     17  O   UNL     1       7.569   9.043  17.362  0.00  0.00    +0.000 OA
ATOM     18  N   UNL     1       9.196   9.176  19.025  0.00  0.00    +0.000 N 
ATOM     19  H   UNL     1       9.783   8.572  19.599  0.00  0.00    +0.000 HD
BRANCH  18  20
ATOM     20  C   UNL     1       9.427  10.570  19.047  0.00  0.00    +0.000 A 
ATOM     21  C   UNL     1       9.123  11.363  20.152  0.00  0.00    +0.000 A 
ATOM     22  C   UNL     1       9.279  12.743  20.084  0.00  0.00    +0.000 A 
ATOM     23  C   UNL     1       9.766  13.290  18.912  0.00  0.00    +0.000 A 
ATOM     24  N   UNL     1      10.141  12.554  17.843  0.00  0.00    +0.000 NA
ATOM     25  C   UNL     1       9.969  11.211  17.940  0.00  0.00    +0.000 A 
ENDBRANCH  18  20
ENDBRANCH  15  16
ENDBRANCH   4  15
TORSDOF 5
ENDMDL
MODEL 6
REMARK VINA RESULT:      -7.5      4.339      6.610
REMARK  Name = 
REMARK  7 active torsions:
REMARK  status: ('A' for Active; 'I' for Inactive)
REMARK    1  A    between atoms: C_1  and  C_2
REMARK    2  A    between atoms: C_2  and  C_3
REMARK    3  A    between atoms: C_2  and  C_4
REMARK    4  A    between atoms: C_7  and  C_8
REMARK    5  A    between atoms: N_11  and  C_12
REMARK    6  A    between atoms: C_12  and  C_13
REMARK    7  A    between atoms: N_15  and  C_16
REMARK                            x       y       z     vdW  Elec       q    Type
REMARK                         _______ _______ _______ _____ _____    ______ ____
ROOT
ATOM      1  C   UNL     1       6.868   5.099  16.397  0.00  0.00    +0.000 C 
ATOM      2  C   UNL     1       6.069   4.000  17.088  0.00  0.00    +0.000 C 
ATOM      3  C   UNL     1       4.570   4.267  17.058  0.00  0.00    +0.000 C 
ATOM      4  N   UNL     1       4.288   5.563  17.706  0.00  0.00    +0.000 NA
ATOM      5  C   UNL     1       4.893   6.651  16.913  0.00  0.00    +0.000 C 
ATOM      6  C   UNL     1       6.413   6.494  16.848  0.00  0.00    +0.000 C 
ENDROOT
BRANCH   1  10
ATOM      7  C   UNL     1       6.398   3.986  13.096  0.00  0.00    +0.000 A 
ATOM      8  N   UNL     1       7.397   4.800  12.826  0.00  0.00    +0.000 NA
ATOM      9  N   UNL     1       7.692   5.458  14.008  0.00  0.00    +0.000 NA
ATOM     10  C   UNL     1       6.861   4.985  14.912  0.00  0.00    +0.000 A 
ATOM     11  O   UNL     1       5.968   4.089  14.390  0.00  0.00    +0.000 OA
BRANCH   7  13
ATOM     12  C   UNL     1       4.558   3.328  11.541  0.00  0.00    +0.000 C 
ATOM     13  C   UNL     1       5.803   2.881  12.296  0.00  0.00    +0.000 C 
ATOM     14  C   UNL     1       6.848   2.318  11.330  0.00  0.00    +0.000 C 
ENDBRANCH   7  13
ENDBRANCH   1  10
BRANCH   4  15
ATOM     15  C   UNL     1       2.826   5.790  17.792  0.00  0.00    +0.000 C 
BRANCH  15  16
ATOM     16  C   UNL     1       2.479   7.010  18.645  0.00  0.00    +0.000 C 
ATOM     17  O   UNL     1       2.637   6.958  19.867  0.00  0.00    +0.000 OA
ATOM     18  N   UNL     1       1.946   8.070  17.939  0.00  0.00    +0.000 N 
ATOM     19  H   UNL     1       1.735   7.886  16.959  0.00  0.00    +0.000 HD
BRANCH  18  20
ATOM     20  C   UNL     1       1.643   9.344  18.472  0.00  0.00    +0.000 A 
ATOM     21  C   UNL     1       2.119  10.526  17.908  0.00  0.00    +0.000 A 
ATOM     22  C   UNL     1       1.872  11.745  18.529  0.00  0.00    +0.000 A 
ATOM     23  C   UNL     1       1.125  11.747  19.692  0.00  0.00    +0.000 A 
ATOM     24  N   UNL     1       0.584  10.635  20.234  0.00  0.00    +0.000 NA
ATOM     25  C   UNL     1       0.849   9.461  19.607  0.00  0.00    +0.000 A 
ENDBRANCH  18  20
ENDBRANCH  15  16
ENDBRANCH   4  15
TORSDOF 5
ENDMDL
MODEL 7
REMARK VINA RESULT:      -7.5      4.293      6.680
REMARK  Name = 
REMARK  7 active torsions:
REMARK  status: ('A' for Active; 'I' for Inactive)
REMARK    1  A    between atoms: C_1  and  C_2
REMARK    2  A    between atoms: C_2  and  C_3
REMARK    3  A    between atoms: C_2  and  C_4
REMARK    4  A    between atoms: C_7  and  C_8
REMARK    5  A    between atoms: N_11  and  C_12
REMARK    6  A    between atoms: C_12  and  C_13
REMARK    7  A    between atoms: N_15  and  C_16
REMARK                            x       y       z     vdW  Elec       q    Type
REMARK                         _______ _______ _______ _____ _____    ______ ____
ROOT
ATOM      1  C   UNL     1       6.640   5.060  16.631  0.00  0.00    +0.000 C 
ATOM      2  C   UNL     1       5.705   4.020  17.237  0.00  0.00    +0.000 C 
ATOM      3  C   UNL     1       4.239   4.419  17.116  0.00  0.00    +0.000 C 
ATOM      4  N   UNL     1       4.026   5.720  17.780  0.00  0.00    +0.000 NA
ATOM      5  C   UNL     1       4.775   6.767  17.058  0.00  0.00    +0.000 C 
ATOM      6  C   UNL     1       6.276   6.479  17.089  0.00  0.00    +0.000 C 
ENDROOT
BRANCH   1  10
ATOM      7  C   UNL     1       6.377   4.019  13.283  0.00  0.00    +0.000 A 
ATOM      8  N   UNL     1       7.386   4.843  13.092  0.00  0.00    +0.000 NA
ATOM      9  N   UNL     1       7.605   5.476  14.304  0.00  0.00    +0.000 NA
ATOM     10  C   UNL     1       6.723   4.979  15.146  0.00  0.00    +0.000 A 
ATOM     11  O   UNL     1       5.869   4.091  14.550  0.00  0.00    +0.000 OA
BRANCH   7  13
ATOM     12  C   UNL     1       4.579   3.357  11.681  0.00  0.00    +0.000 C 
ATOM     13  C   UNL     1       5.838   2.929  12.424  0.00  0.00    +0.000 C 
ATOM     14  C   UNL     1       6.914   2.462  11.441  0.00  0.00    +0.000 C 
ENDBRANCH   7  13
ENDBRANCH   1  10
BRANCH   4  15
ATOM     15  C   UNL     1       2.587   6.071  17.776  0.00  0.00    +0.000 C 
BRANCH  15  16
ATOM     16  C   UNL     1       2.293   7.313  18.617  0.00  0.00    +0.000 C 
ATOM     17  O   UNL     1       2.516   7.289  19.829  0.00  0.00    +0.000 OA
ATOM     18  N   UNL     1       1.728   8.361  17.915  0.00  0.00    +0.000 N 
ATOM     19  H   UNL     1       1.465   8.155  16.953  0.00  0.00    +0.000 HD
BRANCH  18  20
ATOM     20  C   UNL     1       1.462   9.648  18.433  0.00  0.00    +0.000 A 
ATOM     21  C   UNL     1       0.429   9.895  19.335  0.00  0.00    +0.000 A 
ATOM     22  C   UNL     1       0.148  11.196  19.737  0.00  0.00    +0.000 A 
ATOM     23  C   UNL     1       0.936  12.218  19.242  0.00  0.00    +0.000 A 
ATOM     24  N   UNL     1       1.992  12.017  18.423  0.00  0.00    +0.000 NA
ATOM     25  C   UNL     1       2.234  10.737  18.045  0.00  0.00    +0.000 A 
ENDBRANCH  18  20
ENDBRANCH  15  16
ENDBRANCH   4  15
TORSDOF 5
ENDMDL
MODEL 8
REMARK VINA RESULT:      -7.4      5.241      8.012
REMARK  Name = 
REMARK  7 active torsions:
REMARK  status: ('A' for Active; 'I' for Inactive)
REMARK    1  A    between atoms: C_1  and  C_2
REMARK    2  A    between atoms: C_2  and  C_3
REMARK    3  A    between atoms: C_2  and  C_4
REMARK    4  A    between atoms: C_7  and  C_8
REMARK    5  A    between atoms: N_11  and  C_12
REMARK    6  A    between atoms: C_12  and  C_13
REMARK    7  A    between atoms: N_15  and  C_16
REMARK                            x       y       z     vdW  Elec       q    Type
REMARK                         _______ _______ _______ _____ _____    ______ ____
ROOT
ATOM      1  C   UNL     1       2.611   5.238  18.510  0.00  0.00    +0.000 C 
ATOM      2  C   UNL     1       2.367   6.695  18.135  0.00  0.00    +0.000 C 
ATOM      3  C   UNL     1       2.460   7.626  19.338  0.00  0.00    +0.000 C 
ATOM      4  N   UNL     1       1.479   7.209  20.359  0.00  0.00    +0.000 NA
ATOM      5  C   UNL     1       1.842   5.874  20.872  0.00  0.00    +0.000 C 
ATOM      6  C   UNL     1       1.804   4.834  19.751  0.00  0.00    +0.000 C 
ENDROOT
BRANCH   1  10
ATOM      7  C   UNL     1       6.090   4.983  18.076  0.00  0.00    +0.000 A 
ATOM      8  N   UNL     1       5.967   3.914  18.836  0.00  0.00    +0.000 NA
ATOM      9  N   UNL     1       4.642   3.871  19.233  0.00  0.00    +0.000 NA
ATOM     10  C   UNL     1       4.054   4.908  18.675  0.00  0.00    +0.000 A 
ATOM     11  O   UNL     1       4.927   5.694  17.974  0.00  0.00    +0.000 OA
BRANCH   7  13
ATOM     12  C   UNL     1       6.962   5.059  15.737  0.00  0.00    +0.000 C 
ATOM     13  C   UNL     1       7.206   5.424  17.195  0.00  0.00    +0.000 C 
ATOM     14  C   UNL     1       7.422   6.932  17.346  0.00  0.00    +0.000 C 
ENDBRANCH   7  13
ENDBRANCH   1  10
BRANCH   4  15
ATOM     15  C   UNL     1       1.470   8.169  21.487  0.00  0.00    +0.000 C 
BRANCH  15  16
ATOM     16  C   UNL     1       0.122   8.874  21.635  0.00  0.00    +0.000 C 
ATOM     17  O   UNL     1      -0.906   8.202  21.733  0.00  0.00    +0.000 OA
ATOM     18  N   UNL     1       0.188  10.254  21.582  0.00  0.00    +0.000 N 
ATOM     19  H   UNL     1       1.098  10.642  21.337  0.00  0.00    +0.000 HD
BRANCH  18  20
ATOM     20  C   UNL     1      -0.893  11.137  21.798  0.00  0.00    +0.000 A 
ATOM     21  C   UNL     1      -1.488  11.304  23.047  0.00  0.00    +0.000 A 
ATOM     22  C   UNL     1      -2.612  12.111  23.183  0.00  0.00    +0.000 A 
ATOM     23  C   UNL     1      -3.093  12.758  22.060  0.00  0.00    +0.000 A 
ATOM     24  N   UNL     1      -2.505  12.683  20.846  0.00  0.00    +0.000 NA
ATOM     25  C   UNL     1      -1.415  11.881  20.746  0.00  0.00    +0.000 A 
ENDBRANCH  18  20
ENDBRANCH  15  16
ENDBRANCH   4  15
TORSDOF 5
ENDMDL
MODEL 9
REMARK VINA RESULT:      -7.3      4.173      7.079
REMARK  Name = 
REMARK  7 active torsions:
REMARK  status: ('A' for Active; 'I' for Inactive)
REMARK    1  A    between atoms: C_1  and  C_2
REMARK    2  A    between atoms: C_2  and  C_3
REMARK    3  A    between atoms: C_2  and  C_4
REMARK    4  A    between atoms: C_7  and  C_8
REMARK    5  A    between atoms: N_11  and  C_12
REMARK    6  A    between atoms: C_12  and  C_13
REMARK    7  A    between atoms: N_15  and  C_16
REMARK                            x       y       z     vdW  Elec       q    Type
REMARK                         _______ _______ _______ _____ _____    ______ ____
ROOT
ATOM      1  C   UNL     1       6.253   6.242  17.190  0.00  0.00    +0.000 C 
ATOM      2  C   UNL     1       6.595   5.755  18.593  0.00  0.00    +0.000 C 
ATOM      3  C   UNL     1       5.465   4.945  19.217  0.00  0.00    +0.000 C 
ATOM      4  N   UNL     1       4.240   5.767  19.265  0.00  0.00    +0.000 NA
ATOM      5  C   UNL     1       3.793   6.064  17.891  0.00  0.00    +0.000 C 
ATOM      6  C   UNL     1       4.853   6.869  17.138  0.00  0.00    +0.000 C 
ENDROOT
BRANCH   1  10
ATOM      7  C   UNL     1       6.678   4.538  14.144  0.00  0.00    +0.000 A 
ATOM      8  N   UNL     1       6.125   3.532  14.790  0.00  0.00    +0.000 NA
ATOM      9  N   UNL     1       5.960   3.953  16.098  0.00  0.00    +0.000 NA
ATOM     10  C   UNL     1       6.411   5.189  16.148  0.00  0.00    +0.000 A 
ATOM     11  O   UNL     1       6.939   5.606  14.957  0.00  0.00    +0.000 OA
BRANCH   7  13
ATOM     12  C   UNL     1       8.152   5.562  12.408  0.00  0.00    +0.000 C 
ATOM     13  C   UNL     1       6.888   4.758  12.687  0.00  0.00    +0.000 C 
ATOM     14  C   UNL     1       6.930   3.413  11.959  0.00  0.00    +0.000 C 
ENDBRANCH   7  13
ENDBRANCH   1  10
BRANCH   4  15
ATOM     15  C   UNL     1       3.160   5.041  19.973  0.00  0.00    +0.000 C 
BRANCH  15  16
ATOM     16  C   UNL     1       2.007   5.963  20.369  0.00  0.00    +0.000 C 
ATOM     17  O   UNL     1       0.914   5.474  20.663  0.00  0.00    +0.000 OA
ATOM     18  N   UNL     1       2.300   7.311  20.297  0.00  0.00    +0.000 N 
ATOM     19  H   UNL     1       3.202   7.545  19.883  0.00  0.00    +0.000 HD
BRANCH  18  20
ATOM     20  C   UNL     1       1.449   8.361  20.709  0.00  0.00    +0.000 A 
ATOM     21  C   UNL     1       1.153   8.606  22.049  0.00  0.00    +0.000 A 
ATOM     22  C   UNL     1       0.232   9.589  22.392  0.00  0.00    +0.000 A 
ATOM     23  C   UNL     1      -0.350  10.325  21.376  0.00  0.00    +0.000 A 
ATOM     24  N   UNL     1      -0.039  10.170  20.071  0.00  0.00    +0.000 NA
ATOM     25  C   UNL     1       0.858   9.198  19.769  0.00  0.00    +0.000 A 
ENDBRANCH  18  20
ENDBRANCH  15  16
ENDBRANCH   4  15
TORSDOF 5
ENDMDL
