MODEL 1
REMARK VINA RESULT:      -8.7      0.000      0.000
REMARK  Name = 
REMARK  10 active torsions:
REMARK  status: ('A' for Active; 'I' for Inactive)
REMARK    1  A    between atoms: C_1  and  C_2
REMARK    2  A    between atoms: C_5  and  C_6
REMARK    3  A    between atoms: C_7  and  C_8
REMARK    4  A    between atoms: C_8  and  O_9
REMARK    5  A    between atoms: O_9  and  C_10
REMARK    6  A    between atoms: C_15  and  C_16
REMARK    7  A    between atoms: N_18  and  C_19
REMARK    8  A    between atoms: N_18  and  C_20
REMARK    9  A    between atoms: C_20  and  C_21
REMARK   10  A    between atoms: N_23  and  C_24
REMARK                            x       y       z     vdW  Elec       q    Type
REMARK                         _______ _______ _______ _____ _____    ______ ____
ROOT
ATOM      1  C   UNL     1       2.776   6.960  18.196  0.00  0.00    +0.000 C 
ATOM      2  O   UNL     1       3.311   7.166  17.100  0.00  0.00    +0.000 OA
ATOM      3  N   UNL     1       2.227   8.023  18.908  0.00  0.00    +0.000 N 
ATOM      4  C   UNL     1       1.566   7.960  20.202  0.00  0.00    +0.000 C 
ENDROOT
BRANCH   1  10
ATOM      5  C   UNL     1       3.753   4.856  19.342  0.00  0.00    +0.000 A 
ATOM      6  C   UNL     1       3.555   3.500  19.645  0.00  0.00    +0.000 A 
ATOM      7  C   UNL     1       2.446   2.793  19.173  0.00  0.00    +0.000 A 
ATOM      8  C   UNL     1       1.480   3.446  18.427  0.00  0.00    +0.000 A 
ATOM      9  C   UNL     1       1.613   4.812  18.186  0.00  0.00    +0.000 A 
ATOM     10  C   UNL     1       2.734   5.541  18.650  0.00  0.00    +0.000 A 
BRANCH   5  11
ATOM     11  O   UNL     1       4.894   5.524  19.710  0.00  0.00    +0.000 OA
BRANCH  11  12
ATOM     12  C   UNL     1       6.166   4.985  19.300  0.00  0.00    +0.000 C 
BRANCH  12  19
ATOM     13  C   UNL     1       8.102   7.471  18.446  0.00  0.00    +0.000 C 
ATOM     14  C   UNL     1       7.445   6.476  17.568  0.00  0.00    +0.000 A 
ATOM     15  N   UNL     1       7.592   6.580  16.240  0.00  0.00    +0.000 NA
ATOM     16  O   UNL     1       6.757   5.625  15.699  0.00  0.00    +0.000 OA
ATOM     17  C   UNL     1       6.115   4.959  16.694  0.00  0.00    +0.000 A 
ATOM     18  C   UNL     1       5.084   4.010  16.236  0.00  0.00    +0.000 C 
ATOM     19  C   UNL     1       6.578   5.403  17.925  0.00  0.00    +0.000 A 
ENDBRANCH  12  19
ENDBRANCH  11  12
ENDBRANCH   5  11
ENDBRANCH   1  10
BRANCH   3  20
ATOM     20  C   UNL     1       2.226   9.347  18.267  0.00  0.00    +0.000 C 
BRANCH  20  21
ATOM     21  C   UNL     1       0.937  10.175  18.380  0.00  0.00    +0.000 C 
ATOM     22  O   UNL     1       0.925  11.166  19.108  0.00  0.00    +0.000 OA
ATOM     23  N   UNL     1      -0.172   9.639  17.746  0.00  0.00    +0.000 N 
ATOM     24  H   UNL     1      -0.078   8.673  17.436  0.00  0.00    +0.000 HD
BRANCH  23  25
ATOM     25  C   UNL     1      -1.447  10.242  17.653  0.00  0.00    +0.000 A 
ATOM     26  C   UNL     1      -1.975  11.067  18.660  0.00  0.00    +0.000 A 
ATOM     27  C   UNL     1      -3.238  11.653  18.534  0.00  0.00    +0.000 A 
ATOM     28  C   UNL     1      -3.984  11.434  17.384  0.00  0.00    +0.000 A 
ATOM     29  C   UNL     1      -3.466  10.634  16.382  0.00  0.00    +0.000 A 
ATOM     30  F   UNL     1      -4.187  10.424  15.271  0.00  0.00    +0.000 F 
ATOM     31  C   UNL     1      -2.204  10.041  16.498  0.00  0.00    +0.000 A 
ENDBRANCH  23  25
ENDBRANCH  20  21
ENDBRANCH   3  20
TORSDOF 7
ENDMDL
MODEL 2
REMARK VINA RESULT:      -8.5      0.864      1.230
REMARK  Name = 
REMARK  10 active torsions:
REMARK  status: ('A' for Active; 'I' for Inactive)
REMARK    1  A    between atoms: C_1  and  C_2
REMARK    2  A    between atoms: C_5  and  C_6
REMARK    3  A    between atoms: C_7  and  C_8
REMARK    4  A    between atoms: C_8  and  O_9
REMARK    5  A    between atoms: O_9  and  C_10
REMARK    6  A    between atoms: C_15  and  C_16
REMARK    7  A    between atoms: N_18  and  C_19
REMARK    8  A    between atoms: N_18  and  C_20
REMARK    9  A    between atoms: C_20  and  C_21
REMARK   10  A    between atoms: N_23  and  C_24
REMARK                            x       y       z     vdW  Elec       q    Type
REMARK                         _______ _______ _______ _____ _____    ______ ____
ROOT
ATOM      1  C   UNL     1       2.747   6.944  18.206  0.00  0.00    +0.000 C 
ATOM      2  O   UNL     1       3.219   7.147  17.082  0.00  0.00    +0.000 OA
ATOM      3  N   UNL     1       2.244   8.008  18.949  0.00  0.00    +0.000 N 
ATOM      4  C   UNL     1       1.657   7.947  20.278  0.00  0.00    +0.000 C 
ENDROOT
BRANCH   1  10
ATOM      5  C   UNL     1       3.758   4.854  19.349  0.00  0.00    +0.000 A 
ATOM      6  C   UNL     1       3.581   3.496  19.655  0.00  0.00    +0.000 A 
ATOM      7  C   UNL     1       2.478   2.774  19.192  0.00  0.00    +0.000 A 
ATOM      8  C   UNL     1       1.499   3.413  18.451  0.00  0.00    +0.000 A 
ATOM      9  C   UNL     1       1.612   4.781  18.208  0.00  0.00    +0.000 A 
ATOM     10  C   UNL     1       2.727   5.524  18.664  0.00  0.00    +0.000 A 
BRANCH   5  11
ATOM     11  O   UNL     1       4.893   5.537  19.709  0.00  0.00    +0.000 OA
BRANCH  11  12
ATOM     12  C   UNL     1       6.170   5.010  19.298  0.00  0.00    +0.000 C 
BRANCH  12  19
ATOM     13  C   UNL     1       8.055   7.517  18.395  0.00  0.00    +0.000 C 
ATOM     14  C   UNL     1       7.413   6.495  17.537  0.00  0.00    +0.000 A 
ATOM     15  N   UNL     1       7.551   6.581  16.206  0.00  0.00    +0.000 NA
ATOM     16  O   UNL     1       6.732   5.602  15.685  0.00  0.00    +0.000 OA
ATOM     17  C   UNL     1       6.107   4.941  16.694  0.00  0.00    +0.000 A 
ATOM     18  C   UNL     1       5.091   3.966  16.257  0.00  0.00    +0.000 C 
ATOM     19  C   UNL     1       6.567   5.413  17.915  0.00  0.00    +0.000 A 
ENDBRANCH  12  19
ENDBRANCH  11  12
ENDBRANCH   5  11
ENDBRANCH   1  10
BRANCH   3  20
ATOM     20  C   UNL     1       2.210   9.333  18.308  0.00  0.00    +0.000 C 
BRANCH  20  21
ATOM     21  C   UNL     1       0.900  10.127  18.418  0.00  0.00    +0.000 C 
ATOM     22  O   UNL     1       0.826  11.049  19.228  0.00  0.00    +0.000 OA
ATOM     23  N   UNL     1      -0.160   9.630  17.678  0.00  0.00    +0.000 N 
ATOM     24  H   UNL     1      -0.029   8.698  17.291  0.00  0.00    +0.000 HD
BRANCH  23  25
ATOM     25  C   UNL     1      -1.441  10.220  17.564  0.00  0.00    +0.000 A 
ATOM     26  C   UNL     1      -2.262  10.046  16.439  0.00  0.00    +0.000 A 
ATOM     27  C   UNL     1      -3.527  10.639  16.360  0.00  0.00    +0.000 A 
ATOM     28  C   UNL     1      -3.992  11.401  17.422  0.00  0.00    +0.000 A 
ATOM     29  C   UNL     1      -3.195  11.567  18.540  0.00  0.00    +0.000 A 
ATOM     30  F   UNL     1      -3.647  12.303  19.566  0.00  0.00    +0.000 F 
ATOM     31  C   UNL     1      -1.929  10.980  18.628  0.00  0.00    +0.000 A 
ENDBRANCH  23  25
ENDBRANCH  20  21
ENDBRANCH   3  20
TORSDOF 7
ENDMDL
MODEL 3
REMARK VINA RESULT:      -8.4      0.931      1.650
REMARK  Name = 
REMARK  10 active torsions:
REMARK  status: ('A' for Active; 'I' for Inactive)
REMARK    1  A    between atoms: C_1  and  C_2
REMARK    2  A    between atoms: C_5  and  C_6
REMARK    3  A    between atoms: C_7  and  C_8
REMARK    4  A    between atoms: C_8  and  O_9
REMARK    5  A    between atoms: O_9  and  C_10
REMARK    6  A    between atoms: C_15  and  C_16
REMARK    7  A    between atoms: N_18  and  C_19
REMARK    8  A    between atoms: N_18  and  C_20
REMARK    9  A    between atoms: C_20  and  C_21
REMARK   10  A    between atoms: N_23  and  C_24
REMARK                            x       y       z     vdW  Elec       q    Type
REMARK                         _______ _______ _______ _____ _____    ______ ____
ROOT
ATOM      1  C   UNL     1       2.604   6.513  18.621  0.00  0.00    +0.000 C 
ATOM      2  O   UNL     1       3.007   6.385  17.460  0.00  0.00    +0.000 OA
ATOM      3  N   UNL     1       2.215   7.766  19.086  0.00  0.00    +0.000 N 
ATOM      4  C   UNL     1       1.720   8.093  20.413  0.00  0.00    +0.000 C 
ENDROOT
BRANCH   1  10
ATOM      5  C   UNL     1       3.613   4.419  19.757  0.00  0.00    +0.000 A 
ATOM      6  C   UNL     1       3.348   3.254  20.492  0.00  0.00    +0.000 A 
ATOM      7  C   UNL     1       2.044   2.855  20.797  0.00  0.00    +0.000 A 
ATOM      8  C   UNL     1       0.975   3.646  20.413  0.00  0.00    +0.000 A 
ATOM      9  C   UNL     1       1.219   4.851  19.756  0.00  0.00    +0.000 A 
ATOM     10  C   UNL     1       2.534   5.264  19.434  0.00  0.00    +0.000 A 
BRANCH   5  11
ATOM     11  O   UNL     1       4.884   4.755  19.362  0.00  0.00    +0.000 OA
BRANCH  11  12
ATOM     12  C   UNL     1       5.461   4.055  18.241  0.00  0.00    +0.000 C 
BRANCH  12  19
ATOM     13  C   UNL     1       5.688   3.958  14.986  0.00  0.00    +0.000 C 
ATOM     14  C   UNL     1       6.350   4.893  15.925  0.00  0.00    +0.000 A 
ATOM     15  N   UNL     1       7.195   5.814  15.441  0.00  0.00    +0.000 NA
ATOM     16  O   UNL     1       7.755   6.418  16.546  0.00  0.00    +0.000 OA
ATOM     17  C   UNL     1       7.253   5.862  17.679  0.00  0.00    +0.000 A 
ATOM     18  C   UNL     1       7.886   6.325  18.927  0.00  0.00    +0.000 C 
ATOM     19  C   UNL     1       6.280   4.930  17.348  0.00  0.00    +0.000 A 
ENDBRANCH  12  19
ENDBRANCH  11  12
ENDBRANCH   5  11
ENDBRANCH   1  10
BRANCH   3  20
ATOM     20  C   UNL     1       2.212   8.881  18.124  0.00  0.00    +0.000 C 
BRANCH  20  21
ATOM     21  C   UNL     1       1.039   9.869  18.205  0.00  0.00    +0.000 C 
ATOM     22  O   UNL     1       1.221  10.971  18.719  0.00  0.00    +0.000 OA
ATOM     23  N   UNL     1      -0.190   9.366  17.813  0.00  0.00    +0.000 N 
ATOM     24  H   UNL     1      -0.235   8.356  17.693  0.00  0.00    +0.000 HD
BRANCH  23  25
ATOM     25  C   UNL     1      -1.399  10.096  17.737  0.00  0.00    +0.000 A 
ATOM     26  C   UNL     1      -1.821  10.978  18.744  0.00  0.00    +0.000 A 
ATOM     27  C   UNL     1      -3.020  11.689  18.636  0.00  0.00    +0.000 A 
ATOM     28  C   UNL     1      -3.806  11.538  17.502  0.00  0.00    +0.000 A 
ATOM     29  C   UNL     1      -3.391  10.681  16.499  0.00  0.00    +0.000 A 
ATOM     30  F   UNL     1      -4.151  10.537  15.403  0.00  0.00    +0.000 F 
ATOM     31  C   UNL     1      -2.195   9.964  16.598  0.00  0.00    +0.000 A 
ENDBRANCH  23  25
ENDBRANCH  20  21
ENDBRANCH   3  20
TORSDOF 7
ENDMDL
MODEL 4
REMARK VINA RESULT:      -8.4      3.519      7.935
REMARK  Name = 
REMARK  10 active torsions:
REMARK  status: ('A' for Active; 'I' for Inactive)
REMARK    1  A    between atoms: C_1  and  C_2
REMARK    2  A    between atoms: C_5  and  C_6
REMARK    3  A    between atoms: C_7  and  C_8
REMARK    4  A    between atoms: C_8  and  O_9
REMARK    5  A    between atoms: O_9  and  C_10
REMARK    6  A    between atoms: C_15  and  C_16
REMARK    7  A    between atoms: N_18  and  C_19
REMARK    8  A    between atoms: N_18  and  C_20
REMARK    9  A    between atoms: C_20  and  C_21
REMARK   10  A    between atoms: N_23  and  C_24
REMARK                            x       y       z     vdW  Elec       q    Type
REMARK                         _______ _______ _______ _____ _____    ______ ____
ROOT
ATOM      1  C   UNL     1       3.758   5.731  18.120  0.00  0.00    +0.000 C 
ATOM      2  O   UNL     1       3.410   6.641  17.359  0.00  0.00    +0.000 OA
ATOM      3  N   UNL     1       5.109   5.527  18.384  0.00  0.00    +0.000 N 
ATOM      4  C   UNL     1       5.688   4.511  19.248  0.00  0.00    +0.000 C 
ENDROOT
BRANCH   1  10
ATOM      5  C   UNL     1       1.895   5.293  19.862  0.00  0.00    +0.000 A 
ATOM      6  C   UNL     1       0.931   4.387  20.330  0.00  0.00    +0.000 A 
ATOM      7  C   UNL     1       0.800   3.105  19.790  0.00  0.00    +0.000 A 
ATOM      8  C   UNL     1       1.602   2.720  18.729  0.00  0.00    +0.000 A 
ATOM      9  C   UNL     1       2.508   3.634  18.192  0.00  0.00    +0.000 A 
ATOM     10  C   UNL     1       2.658   4.933  18.734  0.00  0.00    +0.000 A 
BRANCH   5  11
ATOM     11  O   UNL     1       2.101   6.510  20.463  0.00  0.00    +0.000 OA
BRANCH  11  12
ATOM     12  C   UNL     1       0.977   7.167  21.083  0.00  0.00    +0.000 C 
BRANCH  12  19
ATOM     13  C   UNL     1       0.139   9.433  23.278  0.00  0.00    +0.000 C 
ATOM     14  C   UNL     1       0.646   9.632  21.901  0.00  0.00    +0.000 A 
ATOM     15  N   UNL     1       0.759  10.878  21.421  0.00  0.00    +0.000 NA
ATOM     16  O   UNL     1       1.103  10.734  20.094  0.00  0.00    +0.000 OA
ATOM     17  C   UNL     1       1.192   9.415  19.783  0.00  0.00    +0.000 A 
ATOM     18  C   UNL     1       1.410   9.131  18.352  0.00  0.00    +0.000 C 
ATOM     19  C   UNL     1       0.991   8.653  20.925  0.00  0.00    +0.000 A 
ENDBRANCH  12  19
ENDBRANCH  11  12
ENDBRANCH   5  11
ENDBRANCH   1  10
BRANCH   3  20
ATOM     20  C   UNL     1       6.069   6.483  17.809  0.00  0.00    +0.000 C 
BRANCH  20  21
ATOM     21  C   UNL     1       6.712   6.103  16.467  0.00  0.00    +0.000 C 
ATOM     22  O   UNL     1       7.829   6.540  16.194  0.00  0.00    +0.000 OA
ATOM     23  N   UNL     1       5.898   5.400  15.595  0.00  0.00    +0.000 N 
ATOM     24  H   UNL     1       4.910   5.369  15.843  0.00  0.00    +0.000 HD
BRANCH  23  25
ATOM     25  C   UNL     1       6.280   4.885  14.335  0.00  0.00    +0.000 A 
ATOM     26  C   UNL     1       7.455   5.279  13.676  0.00  0.00    +0.000 A 
ATOM     27  C   UNL     1       7.808   4.746  12.432  0.00  0.00    +0.000 A 
ATOM     28  C   UNL     1       6.991   3.793  11.839  0.00  0.00    +0.000 A 
ATOM     29  C   UNL     1       5.839   3.389  12.488  0.00  0.00    +0.000 A 
ATOM     30  F   UNL     1       5.051   2.467  11.915  0.00  0.00    +0.000 F 
ATOM     31  C   UNL     1       5.476   3.917  13.731  0.00  0.00    +0.000 A 
ENDBRANCH  23  25
ENDBRANCH  20  21
ENDBRANCH   3  20
TORSDOF 7
ENDMDL
MODEL 5
REMARK VINA RESULT:      -8.2      1.193      1.986
REMARK  Name = 
REMARK  10 active torsions:
REMARK  status: ('A' for Active; 'I' for Inactive)
REMARK    1  A    between atoms: C_1  and  C_2
REMARK    2  A    between atoms: C_5  and  C_6
REMARK    3  A    between atoms: C_7  and  C_8
REMARK    4  A    between atoms: C_8  and  O_9
REMARK    5  A    between atoms: O_9  and  C_10
REMARK    6  A    between atoms: C_15  and  C_16
REMARK    7  A    between atoms: N_18  and  C_19
REMARK    8  A    between atoms: N_18  and  C_20
REMARK    9  A    between atoms: C_20  and  C_21
REMARK   10  A    between atoms: N_23  and  C_24
REMARK                            x       y       z     vdW  Elec       q    Type
REMARK                         _______ _______ _______ _____ _____    ______ ____
ROOT
ATOM      1  C   UNL     1       2.207   6.245  19.704  0.00  0.00    +0.000 C 
ATOM      2  O   UNL     1       1.830   6.330  20.878  0.00  0.00    +0.000 OA
ATOM      3  N   UNL     1       2.346   7.397  18.935  0.00  0.00    +0.000 N 
ATOM      4  C   UNL     1       2.775   7.477  17.548  0.00  0.00    +0.000 C 
ENDROOT
BRANCH   1  10
ATOM      5  C   UNL     1       3.808   4.322  19.044  0.00  0.00    +0.000 A 
ATOM      6  C   UNL     1       3.912   3.024  18.521  0.00  0.00    +0.000 A 
ATOM      7  C   UNL     1       2.796   2.325  18.053  0.00  0.00    +0.000 A 
ATOM      8  C   UNL     1       1.538   2.896  18.148  0.00  0.00    +0.000 A 
ATOM      9  C   UNL     1       1.401   4.149  18.743  0.00  0.00    +0.000 A 
ATOM     10  C   UNL     1       2.523   4.872  19.214  0.00  0.00    +0.000 A 
BRANCH   5  11
ATOM     11  O   UNL     1       4.914   5.052  19.401  0.00  0.00    +0.000 OA
BRANCH  11  12
ATOM     12  C   UNL     1       6.206   4.610  18.939  0.00  0.00    +0.000 C 
BRANCH  12  19
ATOM     13  C   UNL     1       5.982   3.764  15.794  0.00  0.00    +0.000 C 
ATOM     14  C   UNL     1       6.575   4.991  16.375  0.00  0.00    +0.000 A 
ATOM     15  N   UNL     1       7.146   5.888  15.560  0.00  0.00    +0.000 NA
ATOM     16  O   UNL     1       7.729   6.823  16.389  0.00  0.00    +0.000 OA
ATOM     17  C   UNL     1       7.512   6.485  17.686  0.00  0.00    +0.000 A 
ATOM     18  C   UNL     1       8.213   7.331  18.670  0.00  0.00    +0.000 C 
ATOM     19  C   UNL     1       6.703   5.360  17.745  0.00  0.00    +0.000 A 
ENDBRANCH  12  19
ENDBRANCH  11  12
ENDBRANCH   5  11
ENDBRANCH   1  10
BRANCH   3  20
ATOM     20  C   UNL     1       2.127   8.692  19.600  0.00  0.00    +0.000 C 
BRANCH  20  21
ATOM     21  C   UNL     1       0.684   9.214  19.650  0.00  0.00    +0.000 C 
ATOM     22  O   UNL     1       0.007   9.004  20.655  0.00  0.00    +0.000 OA
ATOM     23  N   UNL     1       0.209   9.765  18.471  0.00  0.00    +0.000 N 
ATOM     24  H   UNL     1       0.783   9.602  17.646  0.00  0.00    +0.000 HD
BRANCH  23  25
ATOM     25  C   UNL     1      -1.057  10.369  18.288  0.00  0.00    +0.000 A 
ATOM     26  C   UNL     1      -1.558  11.363  19.143  0.00  0.00    +0.000 A 
ATOM     27  C   UNL     1      -2.812  11.944  18.931  0.00  0.00    +0.000 A 
ATOM     28  C   UNL     1      -3.575  11.546  17.843  0.00  0.00    +0.000 A 
ATOM     29  C   UNL     1      -3.084  10.576  16.988  0.00  0.00    +0.000 A 
ATOM     30  F   UNL     1      -3.822  10.193  15.936  0.00  0.00    +0.000 F 
ATOM     31  C   UNL     1      -1.832   9.988  17.192  0.00  0.00    +0.000 A 
ENDBRANCH  23  25
ENDBRANCH  20  21
ENDBRANCH   3  20
TORSDOF 7
ENDMDL
MODEL 6
REMARK VINA RESULT:      -8.1      1.282      2.036
REMARK  Name = 
REMARK  10 active torsions:
REMARK  status: ('A' for Active; 'I' for Inactive)
REMARK    1  A    between atoms: C_1  and  C_2
REMARK    2  A    between atoms: C_5  and  C_6
REMARK    3  A    between atoms: C_7  and  C_8
REMARK    4  A    between atoms: C_8  and  O_9
REMARK    5  A    between atoms: O_9  and  C_10
REMARK    6  A    between atoms: C_15  and  C_16
REMARK    7  A    between atoms: N_18  and  C_19
REMARK    8  A    between atoms: N_18  and  C_20
REMARK    9  A    between atoms: C_20  and  C_21
REMARK   10  A    between atoms: N_23  and  C_24
REMARK                            x       y       z     vdW  Elec       q    Type
REMARK                         _______ _______ _______ _____ _____    ______ ____
ROOT
ATOM      1  C   UNL     1       2.235   7.353  18.854  0.00  0.00    +0.000 C 
ATOM      2  O   UNL     1       2.464   7.608  17.666  0.00  0.00    +0.000 OA
ATOM      3  N   UNL     1       1.736   8.347  19.691  0.00  0.00    +0.000 N 
ATOM      4  C   UNL     1       1.413   8.221  21.103  0.00  0.00    +0.000 C 
ENDROOT
BRANCH   1  10
ATOM      5  C   UNL     1       3.169   4.960  18.549  0.00  0.00    +0.000 A 
ATOM      6  C   UNL     1       3.268   3.672  19.098  0.00  0.00    +0.000 A 
ATOM      7  C   UNL     1       2.610   3.321  20.280  0.00  0.00    +0.000 A 
ATOM      8  C   UNL     1       1.876   4.273  20.967  0.00  0.00    +0.000 A 
ATOM      9  C   UNL     1       1.834   5.580  20.486  0.00  0.00    +0.000 A 
ATOM     10  C   UNL     1       2.489   5.949  19.286  0.00  0.00    +0.000 A 
BRANCH   5  11
ATOM     11  O   UNL     1       3.722   5.276  17.333  0.00  0.00    +0.000 OA
BRANCH  11  12
ATOM     12  C   UNL     1       4.637   4.338  16.732  0.00  0.00    +0.000 C 
BRANCH  12  19
ATOM     13  C   UNL     1       5.897   3.851  13.760  0.00  0.00    +0.000 C 
ATOM     14  C   UNL     1       6.365   4.779  14.815  0.00  0.00    +0.000 A 
ATOM     15  N   UNL     1       7.467   5.511  14.599  0.00  0.00    +0.000 NA
ATOM     16  O   UNL     1       7.730   6.147  15.793  0.00  0.00    +0.000 OA
ATOM     17  C   UNL     1       6.796   5.796  16.716  0.00  0.00    +0.000 A 
ATOM     18  C   UNL     1       7.055   6.299  18.077  0.00  0.00    +0.000 C 
ATOM     19  C   UNL     1       5.841   4.982  16.125  0.00  0.00    +0.000 A 
ENDBRANCH  12  19
ENDBRANCH  11  12
ENDBRANCH   5  11
ENDBRANCH   1  10
BRANCH   3  20
ATOM     20  C   UNL     1       1.408   9.649  19.087  0.00  0.00    +0.000 C 
BRANCH  20  21
ATOM     21  C   UNL     1      -0.080  10.011  18.976  0.00  0.00    +0.000 C 
ATOM     22  O   UNL     1      -0.756  10.079  20.001  0.00  0.00    +0.000 OA
ATOM     23  N   UNL     1      -0.578  10.093  17.686  0.00  0.00    +0.000 N 
ATOM     24  H   UNL     1       0.029   9.725  16.956  0.00  0.00    +0.000 HD
BRANCH  23  25
ATOM     25  C   UNL     1      -1.892  10.473  17.327  0.00  0.00    +0.000 A 
ATOM     26  C   UNL     1      -2.705  11.273  18.146  0.00  0.00    +0.000 A 
ATOM     27  C   UNL     1      -3.999  11.635  17.759  0.00  0.00    +0.000 A 
ATOM     28  C   UNL     1      -4.489  11.214  16.530  0.00  0.00    +0.000 A 
ATOM     29  C   UNL     1      -3.690  10.437  15.711  0.00  0.00    +0.000 A 
ATOM     30  F   UNL     1      -4.164  10.032  14.524  0.00  0.00    +0.000 F 
ATOM     31  C   UNL     1      -2.395  10.068  16.090  0.00  0.00    +0.000 A 
ENDBRANCH  23  25
ENDBRANCH  20  21
ENDBRANCH   3  20
TORSDOF 7
ENDMDL
MODEL 7
REMARK VINA RESULT:      -8.0      1.769      2.203
REMARK  Name = 
REMARK  10 active torsions:
REMARK  status: ('A' for Active; 'I' for Inactive)
REMARK    1  A    between atoms: C_1  and  C_2
REMARK    2  A    between atoms: C_5  and  C_6
REMARK    3  A    between atoms: C_7  and  C_8
REMARK    4  A    between atoms: C_8  and  O_9
REMARK    5  A    between atoms: O_9  and  C_10
REMARK    6  A    between atoms: C_15  and  C_16
REMARK    7  A    between atoms: N_18  and  C_19
REMARK    8  A    between atoms: N_18  and  C_20
REMARK    9  A    between atoms: C_20  and  C_21
REMARK   10  A    between atoms: N_23  and  C_24
REMARK                            x       y       z     vdW  Elec       q    Type
REMARK                         _______ _______ _______ _____ _____    ______ ____
ROOT
ATOM      1  C   UNL     1       2.088   5.849  20.073  0.00  0.00    +0.000 C 
ATOM      2  O   UNL     1       1.763   5.810  21.265  0.00  0.00    +0.000 OA
ATOM      3  N   UNL     1       2.210   7.077  19.428  0.00  0.00    +0.000 N 
ATOM      4  C   UNL     1       2.580   7.303  18.040  0.00  0.00    +0.000 C 
ENDROOT
BRANCH   1  10
ATOM      5  C   UNL     1       3.623   4.055  19.014  0.00  0.00    +0.000 A 
ATOM      6  C   UNL     1       3.683   2.810  18.370  0.00  0.00    +0.000 A 
ATOM      7  C   UNL     1       2.529   2.104  18.020  0.00  0.00    +0.000 A 
ATOM      8  C   UNL     1       1.285   2.612  18.354  0.00  0.00    +0.000 A 
ATOM      9  C   UNL     1       1.204   3.806  19.068  0.00  0.00    +0.000 A 
ATOM     10  C   UNL     1       2.364   4.535  19.424  0.00  0.00    +0.000 A 
BRANCH   5  11
ATOM     11  O   UNL     1       4.749   4.801  19.260  0.00  0.00    +0.000 OA
BRANCH  11  12
ATOM     12  C   UNL     1       6.015   4.311  18.774  0.00  0.00    +0.000 C 
BRANCH  12  19
ATOM     13  C   UNL     1       8.012   6.894  18.774  0.00  0.00    +0.000 C 
ATOM     14  C   UNL     1       7.431   6.182  17.612  0.00  0.00    +0.000 A 
ATOM     15  N   UNL     1       7.687   6.634  16.377  0.00  0.00    +0.000 NA
ATOM     16  O   UNL     1       6.902   5.876  15.535  0.00  0.00    +0.000 OA
ATOM     17  C   UNL     1       6.180   4.982  16.261  0.00  0.00    +0.000 A 
ATOM     18  C   UNL     1       5.191   4.212  15.485  0.00  0.00    +0.000 C 
ATOM     19  C   UNL     1       6.538   5.072  17.598  0.00  0.00    +0.000 A 
ENDBRANCH  12  19
ENDBRANCH  11  12
ENDBRANCH   5  11
ENDBRANCH   1  10
BRANCH   3  20
ATOM     20  C   UNL     1       2.037   8.294  20.237  0.00  0.00    +0.000 C 
BRANCH  20  21
ATOM     21  C   UNL     1       0.633   8.917  20.268  0.00  0.00    +0.000 C 
ATOM     22  O   UNL     1      -0.144   8.596  21.165  0.00  0.00    +0.000 OA
ATOM     23  N   UNL     1       0.305   9.698  19.172  0.00  0.00    +0.000 N 
ATOM     24  H   UNL     1       0.939   9.631  18.377  0.00  0.00    +0.000 HD
BRANCH  23  25
ATOM     25  C   UNL     1      -0.895  10.426  19.002  0.00  0.00    +0.000 A 
ATOM     26  C   UNL     1      -1.873  10.073  18.058  0.00  0.00    +0.000 A 
ATOM     27  C   UNL     1      -3.052  10.811  17.918  0.00  0.00    +0.000 A 
ATOM     28  C   UNL     1      -3.275  11.907  18.740  0.00  0.00    +0.000 A 
ATOM     29  C   UNL     1      -2.323  12.254  19.681  0.00  0.00    +0.000 A 
ATOM     30  F   UNL     1      -2.540  13.313  20.475  0.00  0.00    +0.000 F 
ATOM     31  C   UNL     1      -1.139  11.524  19.828  0.00  0.00    +0.000 A 
ENDBRANCH  23  25
ENDBRANCH  20  21
ENDBRANCH   3  20
TORSDOF 7
ENDMDL
MODEL 8
REMARK VINA RESULT:      -8.0      2.253      2.368
REMARK  Name = 
REMARK  10 active torsions:
REMARK  status: ('A' for Active; 'I' for Inactive)
REMARK    1  A    between atoms: C_1  and  C_2
REMARK    2  A    between atoms: C_5  and  C_6
REMARK    3  A    between atoms: C_7  and  C_8
REMARK    4  A    between atoms: C_8  and  O_9
REMARK    5  A    between atoms: O_9  and  C_10
REMARK    6  A    between atoms: C_15  and  C_16
REMARK    7  A    between atoms: N_18  and  C_19
REMARK    8  A    between atoms: N_18  and  C_20
REMARK    9  A    between atoms: C_20  and  C_21
REMARK   10  A    between atoms: N_23  and  C_24
REMARK                            x       y       z     vdW  Elec       q    Type
REMARK                         _______ _______ _______ _____ _____    ______ ____
ROOT
ATOM      1  C   UNL     1       2.759   6.671  18.122  0.00  0.00    +0.000 C 
ATOM      2  O   UNL     1       3.243   6.832  16.996  0.00  0.00    +0.000 OA
ATOM      3  N   UNL     1       2.311   7.771  18.848  0.00  0.00    +0.000 N 
ATOM      4  C   UNL     1       1.721   7.762  20.176  0.00  0.00    +0.000 C 
ENDROOT
BRANCH   1  10
ATOM      5  C   UNL     1       3.669   4.542  19.277  0.00  0.00    +0.000 A 
ATOM      6  C   UNL     1       3.418   3.201  19.607  0.00  0.00    +0.000 A 
ATOM      7  C   UNL     1       2.266   2.539  19.176  0.00  0.00    +0.000 A 
ATOM      8  C   UNL     1       1.311   3.224  18.444  0.00  0.00    +0.000 A 
ATOM      9  C   UNL     1       1.499   4.579  18.178  0.00  0.00    +0.000 A 
ATOM     10  C   UNL     1       2.665   5.262  18.601  0.00  0.00    +0.000 A 
BRANCH   5  11
ATOM     11  O   UNL     1       4.849   5.162  19.604  0.00  0.00    +0.000 OA
BRANCH  11  12
ATOM     12  C   UNL     1       6.080   4.597  19.112  0.00  0.00    +0.000 C 
BRANCH  12  19
ATOM     13  C   UNL     1       8.066   7.136  18.596  0.00  0.00    +0.000 C 
ATOM     14  C   UNL     1       7.409   6.265  17.593  0.00  0.00    +0.000 A 
ATOM     15  N   UNL     1       7.580   6.527  16.290  0.00  0.00    +0.000 NA
ATOM     16  O   UNL     1       6.741   5.659  15.625  0.00  0.00    +0.000 OA
ATOM     17  C   UNL     1       6.073   4.888  16.522  0.00  0.00    +0.000 A 
ATOM     18  C   UNL     1       5.036   4.018  15.937  0.00  0.00    +0.000 C 
ATOM     19  C   UNL     1       6.521   5.171  17.804  0.00  0.00    +0.000 A 
ENDBRANCH  12  19
ENDBRANCH  11  12
ENDBRANCH   5  11
ENDBRANCH   1  10
BRANCH   3  20
ATOM     20  C   UNL     1       2.347   9.086  18.186  0.00  0.00    +0.000 C 
BRANCH  20  21
ATOM     21  C   UNL     1       1.153  10.021  18.429  0.00  0.00    +0.000 C 
ATOM     22  O   UNL     1       0.081   9.777  17.876  0.00  0.00    +0.000 OA
ATOM     23  N   UNL     1       1.432  11.168  19.153  0.00  0.00    +0.000 N 
ATOM     24  H   UNL     1       2.420  11.373  19.289  0.00  0.00    +0.000 HD
BRANCH  23  25
ATOM     25  C   UNL     1       0.492  12.143  19.558  0.00  0.00    +0.000 A 
ATOM     26  C   UNL     1      -0.332  11.986  20.684  0.00  0.00    +0.000 A 
ATOM     27  C   UNL     1      -1.249  12.972  21.061  0.00  0.00    +0.000 A 
ATOM     28  C   UNL     1      -1.338  14.142  20.321  0.00  0.00    +0.000 A 
ATOM     29  C   UNL     1      -0.521  14.311  19.217  0.00  0.00    +0.000 A 
ATOM     30  F   UNL     1      -0.608  15.443  18.504  0.00  0.00    +0.000 F 
ATOM     31  C   UNL     1       0.398  13.330  18.831  0.00  0.00    +0.000 A 
ENDBRANCH  23  25
ENDBRANCH  20  21
ENDBRANCH   3  20
TORSDOF 7
ENDMDL
MODEL 9
REMARK VINA RESULT:      -7.9      2.879      3.451
REMARK  Name = 
REMARK  10 active torsions:
REMARK  status: ('A' for Active; 'I' for Inactive)
REMARK    1  A    between atoms: C_1  and  C_2
REMARK    2  A    between atoms: C_5  and  C_6
REMARK    3  A    between atoms: C_7  and  C_8
REMARK    4  A    between atoms: C_8  and  O_9
REMARK    5  A    between atoms: O_9  and  C_10
REMARK    6  A    between atoms: C_15  and  C_16
REMARK    7  A    between atoms: N_18  and  C_19
REMARK    8  A    between atoms: N_18  and  C_20
REMARK    9  A    between atoms: C_20  and  C_21
REMARK   10  A    between atoms: N_23  and  C_24
REMARK                            x       y       z     vdW  Elec       q    Type
REMARK                         _______ _______ _______ _____ _____    ______ ____
ROOT
ATOM      1  C   UNL     1       2.034   5.978  20.321  0.00  0.00    +0.000 C 
ATOM      2  O   UNL     1       1.957   5.499  21.458  0.00  0.00    +0.000 OA
ATOM      3  N   UNL     1       1.846   7.344  20.130  0.00  0.00    +0.000 N 
ATOM      4  C   UNL     1       1.901   8.068  18.870  0.00  0.00    +0.000 C 
ENDROOT
BRANCH   1  10
ATOM      5  C   UNL     1       3.490   5.087  18.377  0.00  0.00    +0.000 A 
ATOM      6  C   UNL     1       3.614   4.122  17.365  0.00  0.00    +0.000 A 
ATOM      7  C   UNL     1       2.605   3.191  17.105  0.00  0.00    +0.000 A 
ATOM      8  C   UNL     1       1.466   3.175  17.892  0.00  0.00    +0.000 A 
ATOM      9  C   UNL     1       1.359   4.068  18.956  0.00  0.00    +0.000 A 
ATOM     10  C   UNL     1       2.369   5.022  19.227  0.00  0.00    +0.000 A 
BRANCH   5  11
ATOM     11  O   UNL     1       4.430   6.071  18.561  0.00  0.00    +0.000 OA
BRANCH  11  12
ATOM     12  C   UNL     1       5.284   6.419  17.454  0.00  0.00    +0.000 C 
BRANCH  12  19
ATOM     13  C   UNL     1       7.648   5.678  19.580  0.00  0.00    +0.000 C 
ATOM     14  C   UNL     1       7.443   5.147  18.213  0.00  0.00    +0.000 A 
ATOM     15  N   UNL     1       8.331   4.278  17.711  0.00  0.00    +0.000 NA
ATOM     16  O   UNL     1       7.962   4.088  16.397  0.00  0.00    +0.000 OA
ATOM     17  C   UNL     1       6.866   4.840  16.115  0.00  0.00    +0.000 A 
ATOM     18  C   UNL     1       6.462   4.835  14.697  0.00  0.00    +0.000 C 
ATOM     19  C   UNL     1       6.432   5.481  17.266  0.00  0.00    +0.000 A 
ENDBRANCH  12  19
ENDBRANCH  11  12
ENDBRANCH   5  11
ENDBRANCH   1  10
BRANCH   3  20
ATOM     20  C   UNL     1       1.656   8.181  21.326  0.00  0.00    +0.000 C 
BRANCH  20  21
ATOM     21  C   UNL     1       0.288   8.860  21.492  0.00  0.00    +0.000 C 
ATOM     22  O   UNL     1      -0.717   8.160  21.605  0.00  0.00    +0.000 OA
ATOM     23  N   UNL     1       0.287  10.238  21.352  0.00  0.00    +0.000 N 
ATOM     24  H   UNL     1       1.140  10.642  20.970  0.00  0.00    +0.000 HD
BRANCH  23  25
ATOM     25  C   UNL     1      -0.829  11.088  21.524  0.00  0.00    +0.000 A 
ATOM     26  C   UNL     1      -1.426  11.787  20.463  0.00  0.00    +0.000 A 
ATOM     27  C   UNL     1      -2.534  12.616  20.666  0.00  0.00    +0.000 A 
ATOM     28  C   UNL     1      -3.070  12.742  21.940  0.00  0.00    +0.000 A 
ATOM     29  C   UNL     1      -2.497  12.047  22.989  0.00  0.00    +0.000 A 
ATOM     30  F   UNL     1      -3.017  12.168  24.219  0.00  0.00    +0.000 F 
ATOM     31  C   UNL     1      -1.388  11.216  22.797  0.00  0.00    +0.000 A 
ENDBRANCH  23  25
ENDBRANCH  20  21
ENDBRANCH   3  20
TORSDOF 7
ENDMDL
