MODEL 1
REMARK VINA RESULT:      -6.4      0.000      0.000
REMARK  Name = 
REMARK  6 active torsions:
REMARK  status: ('A' for Active; 'I' for Inactive)
REMARK    1  A    between atoms: C_1  and  C_2
REMARK    2  A    between atoms: C_2  and  C_3
REMARK    3  A    between atoms: C_2  and  C_4
REMARK    4  A    between atoms: C_2  and  C_5
REMARK    5  A    between atoms: C_10  and  C_11
REMARK    6  A    between atoms: C_13  and  N_14
REMARK                            x       y       z     vdW  Elec       q    Type
REMARK                         _______ _______ _______ _____ _____    ______ ____
ROOT
ATOM      1  C   UNL     1       2.770   4.073  18.737  0.00  0.00    +0.000 A 
ATOM      2  C   UNL     1       2.851   5.480  18.575  0.00  0.00    +0.000 A 
ATOM      3  C   UNL     1       3.812   5.699  17.618  0.00  0.00    +0.000 A 
ATOM      4  N   UNL     1       4.302   6.849  17.062  0.00  0.00    +0.000 NA
ATOM      5  C   UNL     1       5.232   6.691  16.167  0.00  0.00    +0.000 A 
ATOM      6  C   UNL     1       5.791   5.395  15.708  0.00  0.00    +0.000 A 
ATOM      7  C   UNL     1       5.306   4.275  16.284  0.00  0.00    +0.000 A 
ATOM      8  N   UNL     1       4.283   4.434  17.257  0.00  0.00    +0.000 N 
ATOM      9  N   UNL     1       3.625   3.442  17.925  0.00  0.00    +0.000 NA
ENDROOT
BRANCH   1  11
ATOM     10  C   UNL     1       1.047   2.251  18.917  0.00  0.00    +0.000 C 
ATOM     11  C   UNL     1       1.862   3.306  19.693  0.00  0.00    +0.000 C 
ATOM     12  C   UNL     1       0.884   4.280  20.382  0.00  0.00    +0.000 C 
ATOM     13  C   UNL     1       2.654   2.572  20.797  0.00  0.00    +0.000 C 
ENDBRANCH   1  11
BRANCH   7  14
ATOM     14  N   UNL     1       5.722   2.971  16.013  0.00  0.00    +0.000 N 
ATOM     15  H   UNL     1       6.669   2.850  15.670  0.00  0.00    +0.000 HD
ATOM     16  H   UNL     1       5.018   2.443  15.486  0.00  0.00    +0.000 HD
ENDBRANCH   7  14
BRANCH   6  17
ATOM     17  C   UNL     1       6.883   5.340  14.653  0.00  0.00    +0.000 C 
ATOM     18  N   UNL     1       7.788   5.294  13.777  0.00  0.00    +0.000 NA
ENDBRANCH   6  17
TORSDOF 3
ENDMDL
MODEL 2
REMARK VINA RESULT:      -6.4      0.058      1.083
REMARK  Name = 
REMARK  6 active torsions:
REMARK  status: ('A' for Active; 'I' for Inactive)
REMARK    1  A    between atoms: C_1  and  C_2
REMARK    2  A    between atoms: C_2  and  C_3
REMARK    3  A    between atoms: C_2  and  C_4
REMARK    4  A    between atoms: C_2  and  C_5
REMARK    5  A    between atoms: C_10  and  C_11
REMARK    6  A    between atoms: C_13  and  N_14
REMARK                            x       y       z     vdW  Elec       q    Type
REMARK                         _______ _______ _______ _____ _____    ______ ____
ROOT
ATOM      1  C   UNL     1       2.797   4.066  18.701  0.00  0.00    +0.000 A 
ATOM      2  C   UNL     1       2.858   5.473  18.529  0.00  0.00    +0.000 A 
ATOM      3  C   UNL     1       3.820   5.700  17.575  0.00  0.00    +0.000 A 
ATOM      4  N   UNL     1       4.296   6.854  17.014  0.00  0.00    +0.000 NA
ATOM      5  C   UNL     1       5.231   6.703  16.125  0.00  0.00    +0.000 A 
ATOM      6  C   UNL     1       5.811   5.413  15.676  0.00  0.00    +0.000 A 
ATOM      7  C   UNL     1       5.340   4.289  16.257  0.00  0.00    +0.000 A 
ATOM      8  N   UNL     1       4.310   4.439  17.224  0.00  0.00    +0.000 N 
ATOM      9  N   UNL     1       3.665   3.442  17.896  0.00  0.00    +0.000 NA
ENDROOT
BRANCH   1  11
ATOM     10  C   UNL     1       2.749   2.580  20.728  0.00  0.00    +0.000 C 
ATOM     11  C   UNL     1       1.896   3.292  19.657  0.00  0.00    +0.000 C 
ATOM     12  C   UNL     1       1.092   2.231  18.878  0.00  0.00    +0.000 C 
ATOM     13  C   UNL     1       0.889   4.206  20.388  0.00  0.00    +0.000 C 
ENDBRANCH   1  11
BRANCH   7  14
ATOM     14  N   UNL     1       5.776   2.990  15.996  0.00  0.00    +0.000 N 
ATOM     15  H   UNL     1       5.195   2.421  15.389  0.00  0.00    +0.000 HD
ATOM     16  H   UNL     1       6.086   2.509  16.847  0.00  0.00    +0.000 HD
ENDBRANCH   7  14
BRANCH   6  17
ATOM     17  C   UNL     1       6.908   5.367  14.625  0.00  0.00    +0.000 C 
ATOM     18  N   UNL     1       7.818   5.329  13.753  0.00  0.00    +0.000 NA
ENDBRANCH   6  17
TORSDOF 3
ENDMDL
MODEL 3
REMARK VINA RESULT:      -6.4      0.093      1.074
REMARK  Name = 
REMARK  6 active torsions:
REMARK  status: ('A' for Active; 'I' for Inactive)
REMARK    1  A    between atoms: C_1  and  C_2
REMARK    2  A    between atoms: C_2  and  C_3
REMARK    3  A    between atoms: C_2  and  C_4
REMARK    4  A    between atoms: C_2  and  C_5
REMARK    5  A    between atoms: C_10  and  C_11
REMARK    6  A    between atoms: C_13  and  N_14
REMARK                            x       y       z     vdW  Elec       q    Type
REMARK                         _______ _______ _______ _____ _____    ______ ____
ROOT
ATOM      1  C   UNL     1       2.852   4.051  18.746  0.00  0.00    +0.000 A 
ATOM      2  C   UNL     1       2.911   5.458  18.575  0.00  0.00    +0.000 A 
ATOM      3  C   UNL     1       3.855   5.684  17.602  0.00  0.00    +0.000 A 
ATOM      4  N   UNL     1       4.320   6.838  17.033  0.00  0.00    +0.000 NA
ATOM      5  C   UNL     1       5.238   6.687  16.125  0.00  0.00    +0.000 A 
ATOM      6  C   UNL     1       5.808   5.397  15.665  0.00  0.00    +0.000 A 
ATOM      7  C   UNL     1       5.347   4.273  16.254  0.00  0.00    +0.000 A 
ATOM      8  N   UNL     1       4.337   4.424  17.241  0.00  0.00    +0.000 N 
ATOM      9  N   UNL     1       3.703   3.427  17.924  0.00  0.00    +0.000 NA
ENDROOT
BRANCH   1  11
ATOM     10  C   UNL     1       0.962   4.231  20.395  0.00  0.00    +0.000 C 
ATOM     11  C   UNL     1       1.969   3.277  19.720  0.00  0.00    +0.000 C 
ATOM     12  C   UNL     1       2.841   2.623  20.812  0.00  0.00    +0.000 C 
ATOM     13  C   UNL     1       1.164   2.159  19.024  0.00  0.00    +0.000 C 
ENDBRANCH   1  11
BRANCH   7  14
ATOM     14  N   UNL     1       5.777   2.974  15.984  0.00  0.00    +0.000 N 
ATOM     15  H   UNL     1       5.069   2.302  15.706  0.00  0.00    +0.000 HD
ATOM     16  H   UNL     1       6.425   2.625  16.699  0.00  0.00    +0.000 HD
ENDBRANCH   7  14
BRANCH   6  17
ATOM     17  C   UNL     1       6.884   5.351  14.593  0.00  0.00    +0.000 C 
ATOM     18  N   UNL     1       7.777   5.313  13.704  0.00  0.00    +0.000 NA
ENDBRANCH   6  17
TORSDOF 3
ENDMDL
MODEL 4
REMARK VINA RESULT:      -6.1      1.445      1.693
REMARK  Name = 
REMARK  6 active torsions:
REMARK  status: ('A' for Active; 'I' for Inactive)
REMARK    1  A    between atoms: C_1  and  C_2
REMARK    2  A    between atoms: C_2  and  C_3
REMARK    3  A    between atoms: C_2  and  C_4
REMARK    4  A    between atoms: C_2  and  C_5
REMARK    5  A    between atoms: C_10  and  C_11
REMARK    6  A    between atoms: C_13  and  N_14
REMARK                            x       y       z     vdW  Elec       q    Type
REMARK                         _______ _______ _______ _____ _____    ______ ____
ROOT
ATOM      1  C   UNL     1       3.166   3.745  19.351  0.00  0.00    +0.000 A 
ATOM      2  C   UNL     1       4.412   3.983  19.984  0.00  0.00    +0.000 A 
ATOM      3  C   UNL     1       5.301   4.278  18.979  0.00  0.00    +0.000 A 
ATOM      4  N   UNL     1       6.632   4.593  19.000  0.00  0.00    +0.000 NA
ATOM      5  C   UNL     1       7.177   4.814  17.840  0.00  0.00    +0.000 A 
ATOM      6  C   UNL     1       6.489   4.755  16.527  0.00  0.00    +0.000 A 
ATOM      7  C   UNL     1       5.181   4.423  16.529  0.00  0.00    +0.000 A 
ATOM      8  N   UNL     1       4.571   4.189  17.790  0.00  0.00    +0.000 N 
ATOM      9  N   UNL     1       3.261   3.888  18.024  0.00  0.00    +0.000 NA
ENDROOT
BRANCH   1  11
ATOM     10  C   UNL     1       0.980   2.540  19.050  0.00  0.00    +0.000 C 
ATOM     11  C   UNL     1       1.849   3.365  20.021  0.00  0.00    +0.000 C 
ATOM     12  C   UNL     1       1.076   4.639  20.419  0.00  0.00    +0.000 C 
ATOM     13  C   UNL     1       2.059   2.522  21.297  0.00  0.00    +0.000 C 
ENDBRANCH   1  11
BRANCH   7  14
ATOM     14  N   UNL     1       4.371   4.285  15.401  0.00  0.00    +0.000 N 
ATOM     15  H   UNL     1       3.417   3.976  15.553  0.00  0.00    +0.000 HD
ATOM     16  H   UNL     1       4.852   3.795  14.639  0.00  0.00    +0.000 HD
ENDBRANCH   7  14
BRANCH   6  17
ATOM     17  C   UNL     1       7.239   5.032  15.234  0.00  0.00    +0.000 C 
ATOM     18  N   UNL     1       7.861   5.261  14.162  0.00  0.00    +0.000 NA
ENDBRANCH   6  17
TORSDOF 3
ENDMDL
MODEL 5
REMARK VINA RESULT:      -6.0      1.447      2.001
REMARK  Name = 
REMARK  6 active torsions:
REMARK  status: ('A' for Active; 'I' for Inactive)
REMARK    1  A    between atoms: C_1  and  C_2
REMARK    2  A    between atoms: C_2  and  C_3
REMARK    3  A    between atoms: C_2  and  C_4
REMARK    4  A    between atoms: C_2  and  C_5
REMARK    5  A    between atoms: C_10  and  C_11
REMARK    6  A    between atoms: C_13  and  N_14
REMARK                            x       y       z     vdW  Elec       q    Type
REMARK                         _______ _______ _______ _____ _____    ______ ____
ROOT
ATOM      1  C   UNL     1       3.201   3.750  19.337  0.00  0.00    +0.000 A 
ATOM      2  C   UNL     1       4.453   3.975  19.965  0.00  0.00    +0.000 A 
ATOM      3  C   UNL     1       5.338   4.271  18.956  0.00  0.00    +0.000 A 
ATOM      4  N   UNL     1       6.672   4.577  18.972  0.00  0.00    +0.000 NA
ATOM      5  C   UNL     1       7.211   4.802  17.811  0.00  0.00    +0.000 A 
ATOM      6  C   UNL     1       6.516   4.758  16.501  0.00  0.00    +0.000 A 
ATOM      7  C   UNL     1       5.205   4.435  16.508  0.00  0.00    +0.000 A 
ATOM      8  N   UNL     1       4.601   4.196  17.771  0.00  0.00    +0.000 N 
ATOM      9  N   UNL     1       3.290   3.903  18.011  0.00  0.00    +0.000 NA
ENDROOT
BRANCH   1  11
ATOM     10  C   UNL     1       2.161   2.556  21.290  0.00  0.00    +0.000 C 
ATOM     11  C   UNL     1       1.886   3.375  20.011  0.00  0.00    +0.000 C 
ATOM     12  C   UNL     1       1.029   2.524  19.052  0.00  0.00    +0.000 C 
ATOM     13  C   UNL     1       1.055   4.612  20.415  0.00  0.00    +0.000 C 
ENDBRANCH   1  11
BRANCH   7  14
ATOM     14  N   UNL     1       4.388   4.311  15.384  0.00  0.00    +0.000 N 
ATOM     15  H   UNL     1       3.457   3.936  15.530  0.00  0.00    +0.000 HD
ATOM     16  H   UNL     1       4.886   3.895  14.590  0.00  0.00    +0.000 HD
ENDBRANCH   7  14
BRANCH   6  17
ATOM     17  C   UNL     1       7.260   5.039  15.206  0.00  0.00    +0.000 C 
ATOM     18  N   UNL     1       7.878   5.272  14.132  0.00  0.00    +0.000 NA
ENDBRANCH   6  17
TORSDOF 3
ENDMDL
MODEL 6
REMARK VINA RESULT:      -6.0      2.210      5.881
REMARK  Name = 
REMARK  6 active torsions:
REMARK  status: ('A' for Active; 'I' for Inactive)
REMARK    1  A    between atoms: C_1  and  C_2
REMARK    2  A    between atoms: C_2  and  C_3
REMARK    3  A    between atoms: C_2  and  C_4
REMARK    4  A    between atoms: C_2  and  C_5
REMARK    5  A    between atoms: C_10  and  C_11
REMARK    6  A    between atoms: C_13  and  N_14
REMARK                            x       y       z     vdW  Elec       q    Type
REMARK                         _______ _______ _______ _____ _____    ______ ____
ROOT
ATOM      1  C   UNL     1       5.416   5.393  17.831  0.00  0.00    +0.000 A 
ATOM      2  C   UNL     1       4.347   6.292  18.075  0.00  0.00    +0.000 A 
ATOM      3  C   UNL     1       3.522   5.668  18.979  0.00  0.00    +0.000 A 
ATOM      4  N   UNL     1       2.353   6.061  19.571  0.00  0.00    +0.000 NA
ATOM      5  C   UNL     1       1.821   5.204  20.392  0.00  0.00    +0.000 A 
ATOM      6  C   UNL     1       2.366   3.866  20.731  0.00  0.00    +0.000 A 
ATOM      7  C   UNL     1       3.510   3.492  20.120  0.00  0.00    +0.000 A 
ATOM      8  N   UNL     1       4.106   4.423  19.228  0.00  0.00    +0.000 N 
ATOM      9  N   UNL     1       5.277   4.269  18.544  0.00  0.00    +0.000 NA
ENDROOT
BRANCH   1  11
ATOM     10  C   UNL     1       6.121   5.571  15.424  0.00  0.00    +0.000 C 
ATOM     11  C   UNL     1       6.599   5.600  16.891  0.00  0.00    +0.000 C 
ATOM     12  C   UNL     1       7.636   4.476  17.097  0.00  0.00    +0.000 C 
ATOM     13  C   UNL     1       7.311   6.949  17.128  0.00  0.00    +0.000 C 
ENDBRANCH   1  11
BRANCH   7  14
ATOM     14  N   UNL     1       4.159   2.268  20.281  0.00  0.00    +0.000 N 
ATOM     15  H   UNL     1       3.839   1.495  19.706  0.00  0.00    +0.000 HD
ATOM     16  H   UNL     1       4.287   2.026  21.270  0.00  0.00    +0.000 HD
ENDBRANCH   7  14
BRANCH   6  17
ATOM     17  C   UNL     1       1.647   2.950  21.707  0.00  0.00    +0.000 C 
ATOM     18  N   UNL     1       1.050   2.190  22.518  0.00  0.00    +0.000 NA
ENDBRANCH   6  17
TORSDOF 3
ENDMDL
MODEL 7
REMARK VINA RESULT:      -6.0      2.010      6.059
REMARK  Name = 
REMARK  6 active torsions:
REMARK  status: ('A' for Active; 'I' for Inactive)
REMARK    1  A    between atoms: C_1  and  C_2
REMARK    2  A    between atoms: C_2  and  C_3
REMARK    3  A    between atoms: C_2  and  C_4
REMARK    4  A    between atoms: C_2  and  C_5
REMARK    5  A    between atoms: C_10  and  C_11
REMARK    6  A    between atoms: C_13  and  N_14
REMARK                            x       y       z     vdW  Elec       q    Type
REMARK                         _______ _______ _______ _____ _____    ______ ____
ROOT
ATOM      1  C   UNL     1       5.007   4.833  16.934  0.00  0.00    +0.000 A 
ATOM      2  C   UNL     1       4.692   3.476  16.663  0.00  0.00    +0.000 A 
ATOM      3  C   UNL     1       3.929   3.043  17.719  0.00  0.00    +0.000 A 
ATOM      4  N   UNL     1       3.346   1.834  17.989  0.00  0.00    +0.000 NA
ATOM      5  C   UNL     1       2.683   1.766  19.105  0.00  0.00    +0.000 A 
ATOM      6  C   UNL     1       2.509   2.866  20.087  0.00  0.00    +0.000 A 
ATOM      7  C   UNL     1       3.109   4.042  19.808  0.00  0.00    +0.000 A 
ATOM      8  N   UNL     1       3.828   4.133  18.587  0.00  0.00    +0.000 N 
ATOM      9  N   UNL     1       4.467   5.232  18.091  0.00  0.00    +0.000 NA
ENDROOT
BRANCH   1  11
ATOM     10  C   UNL     1       4.989   6.963  15.599  0.00  0.00    +0.000 C 
ATOM     11  C   UNL     1       5.847   5.774  16.077  0.00  0.00    +0.000 C 
ATOM     12  C   UNL     1       6.383   5.021  14.842  0.00  0.00    +0.000 C 
ATOM     13  C   UNL     1       7.059   6.345  16.845  0.00  0.00    +0.000 C 
ENDBRANCH   1  11
BRANCH   7  14
ATOM     14  N   UNL     1       3.089   5.180  20.615  0.00  0.00    +0.000 N 
ATOM     15  H   UNL     1       2.527   5.963  20.297  0.00  0.00    +0.000 HD
ATOM     16  H   UNL     1       4.028   5.444  20.933  0.00  0.00    +0.000 HD
ENDBRANCH   7  14
BRANCH   6  17
ATOM     17  C   UNL     1       1.710   2.660  21.363  0.00  0.00    +0.000 C 
ATOM     18  N   UNL     1       1.047   2.490  22.421  0.00  0.00    +0.000 NA
ENDBRANCH   6  17
TORSDOF 3
ENDMDL
MODEL 8
REMARK VINA RESULT:      -6.0      1.452      2.011
REMARK  Name = 
REMARK  6 active torsions:
REMARK  status: ('A' for Active; 'I' for Inactive)
REMARK    1  A    between atoms: C_1  and  C_2
REMARK    2  A    between atoms: C_2  and  C_3
REMARK    3  A    between atoms: C_2  and  C_4
REMARK    4  A    between atoms: C_2  and  C_5
REMARK    5  A    between atoms: C_10  and  C_11
REMARK    6  A    between atoms: C_13  and  N_14
REMARK                            x       y       z     vdW  Elec       q    Type
REMARK                         _______ _______ _______ _____ _____    ______ ____
ROOT
ATOM      1  C   UNL     1       3.243   3.686  19.323  0.00  0.00    +0.000 A 
ATOM      2  C   UNL     1       4.500   3.905  19.941  0.00  0.00    +0.000 A 
ATOM      3  C   UNL     1       5.375   4.215  18.928  0.00  0.00    +0.000 A 
ATOM      4  N   UNL     1       6.708   4.522  18.935  0.00  0.00    +0.000 NA
ATOM      5  C   UNL     1       7.237   4.763  17.772  0.00  0.00    +0.000 A 
ATOM      6  C   UNL     1       6.529   4.734  16.468  0.00  0.00    +0.000 A 
ATOM      7  C   UNL     1       5.219   4.409  16.484  0.00  0.00    +0.000 A 
ATOM      8  N   UNL     1       4.627   4.153  17.750  0.00  0.00    +0.000 N 
ATOM      9  N   UNL     1       3.319   3.855  17.998  0.00  0.00    +0.000 NA
ENDROOT
BRANCH   1  11
ATOM     10  C   UNL     1       1.122   4.565  20.348  0.00  0.00    +0.000 C 
ATOM     11  C   UNL     1       1.934   3.299  20.005  0.00  0.00    +0.000 C 
ATOM     12  C   UNL     1       2.230   2.532  21.310  0.00  0.00    +0.000 C 
ATOM     13  C   UNL     1       1.050   2.398  19.117  0.00  0.00    +0.000 C 
ENDBRANCH   1  11
BRANCH   7  14
ATOM     14  N   UNL     1       4.391   4.298  15.366  0.00  0.00    +0.000 N 
ATOM     15  H   UNL     1       3.396   4.194  15.537  0.00  0.00    +0.000 HD
ATOM     16  H   UNL     1       4.766   3.642  14.673  0.00  0.00    +0.000 HD
ENDBRANCH   7  14
BRANCH   6  17
ATOM     17  C   UNL     1       7.260   5.033  15.170  0.00  0.00    +0.000 C 
ATOM     18  N   UNL     1       7.868   5.279  14.093  0.00  0.00    +0.000 NA
ENDBRANCH   6  17
TORSDOF 3
ENDMDL
MODEL 9
REMARK VINA RESULT:      -6.0      2.009      6.060
REMARK  Name = 
REMARK  6 active torsions:
REMARK  status: ('A' for Active; 'I' for Inactive)
REMARK    1  A    between atoms: C_1  and  C_2
REMARK    2  A    between atoms: C_2  and  C_3
REMARK    3  A    between atoms: C_2  and  C_4
REMARK    4  A    between atoms: C_2  and  C_5
REMARK    5  A    between atoms: C_10  and  C_11
REMARK    6  A    between atoms: C_13  and  N_14
REMARK                            x       y       z     vdW  Elec       q    Type
REMARK                         _______ _______ _______ _____ _____    ______ ____
ROOT
ATOM      1  C   UNL     1       5.072   4.851  16.954  0.00  0.00    +0.000 A 
ATOM      2  C   UNL     1       4.764   3.495  16.676  0.00  0.00    +0.000 A 
ATOM      3  C   UNL     1       3.989   3.057  17.723  0.00  0.00    +0.000 A 
ATOM      4  N   UNL     1       3.407   1.847  17.984  0.00  0.00    +0.000 NA
ATOM      5  C   UNL     1       2.731   1.775  19.092  0.00  0.00    +0.000 A 
ATOM      6  C   UNL     1       2.543   2.872  20.074  0.00  0.00    +0.000 A 
ATOM      7  C   UNL     1       3.143   4.051  19.805  0.00  0.00    +0.000 A 
ATOM      8  N   UNL     1       3.876   4.146  18.592  0.00  0.00    +0.000 N 
ATOM      9  N   UNL     1       4.518   5.248  18.106  0.00  0.00    +0.000 NA
ENDROOT
BRANCH   1  11
ATOM     10  C   UNL     1       6.643   5.008  14.997  0.00  0.00    +0.000 C 
ATOM     11  C   UNL     1       5.920   5.796  16.109  0.00  0.00    +0.000 C 
ATOM     12  C   UNL     1       6.977   6.487  16.995  0.00  0.00    +0.000 C 
ATOM     13  C   UNL     1       5.077   6.899  15.432  0.00  0.00    +0.000 C 
ENDBRANCH   1  11
BRANCH   7  14
ATOM     14  N   UNL     1       3.111   5.187  20.613  0.00  0.00    +0.000 N 
ATOM     15  H   UNL     1       2.330   5.276  21.255  0.00  0.00    +0.000 HD
ATOM     16  H   UNL     1       3.315   6.043  20.085  0.00  0.00    +0.000 HD
ENDBRANCH   7  14
BRANCH   6  17
ATOM     17  C   UNL     1       1.729   2.663  21.340  0.00  0.00    +0.000 C 
ATOM     18  N   UNL     1       1.055   2.489  22.391  0.00  0.00    +0.000 NA
ENDBRANCH   6  17
TORSDOF 3
ENDMDL
