MODEL 1
REMARK VINA RESULT:      -7.3      0.000      0.000
REMARK  Name = 
REMARK  4 active torsions:
REMARK  status: ('A' for Active; 'I' for Inactive)
REMARK    1  A    between atoms: C_1  and  C_2
REMARK    2  A    between atoms: C_2  and  C_3
REMARK    3  A    between atoms: C_2  and  C_4
REMARK    4  A    between atoms: C_7  and  O_8
REMARK                            x       y       z     vdW  Elec       q    Type
REMARK                         _______ _______ _______ _____ _____    ______ ____
ROOT
ATOM      1  C   UNL     1       3.462   4.836  19.622  0.00  0.00    +0.000 C 
ATOM      2  C   UNL     1       4.903   4.272  19.741  0.00  0.00    +0.000 C 
ATOM      3  N   UNL     1       5.855   4.806  18.786  0.00  0.00    +0.000 N 
ATOM      4  C   UNL     1       7.120   5.277  19.012  0.00  0.00    +0.000 A 
ATOM      5  N   UNL     1       7.821   5.335  17.907  0.00  0.00    +0.000 NA
ATOM      6  C   UNL     1       6.966   4.928  16.912  0.00  0.00    +0.000 A 
ATOM      7  C   UNL     1       7.186   4.765  15.538  0.00  0.00    +0.000 A 
ATOM      8  C   UNL     1       6.129   4.308  14.741  0.00  0.00    +0.000 A 
ATOM      9  C   UNL     1       4.870   4.050  15.296  0.00  0.00    +0.000 A 
ATOM     10  C   UNL     1       4.612   4.229  16.668  0.00  0.00    +0.000 A 
ATOM     11  C   UNL     1       5.714   4.635  17.430  0.00  0.00    +0.000 A 
ATOM     12  C   UNL     1       3.261   3.959  17.269  0.00  0.00    +0.000 C 
ATOM     13  N   UNL     1       2.877   4.950  18.270  0.00  0.00    +0.000 NA
ATOM     14  H   UNL     1       1.863   5.024  18.320  0.00  0.00    +0.000 HD
ENDROOT
BRANCH   1  16
ATOM     15  C   UNL     1       0.996   4.158  20.122  0.00  0.00    +0.000 C 
ATOM     16  C   UNL     1       2.454   4.129  20.590  0.00  0.00    +0.000 C 
ATOM     17  C   UNL     1       2.861   2.681  20.887  0.00  0.00    +0.000 C 
ENDBRANCH   1  16
BRANCH   4  18
ATOM     18  O   UNL     1       7.629   5.598  20.191  0.00  0.00    +0.000 OA
ATOM     19  H   UNL     1       8.482   5.156  20.287  0.00  0.00    +0.000 HD
ENDBRANCH   4  18
TORSDOF 2
ENDMDL
MODEL 2
REMARK VINA RESULT:      -7.1      2.072      5.135
REMARK  Name = 
REMARK  4 active torsions:
REMARK  status: ('A' for Active; 'I' for Inactive)
REMARK    1  A    between atoms: C_1  and  C_2
REMARK    2  A    between atoms: C_2  and  C_3
REMARK    3  A    between atoms: C_2  and  C_4
REMARK    4  A    between atoms: C_7  and  O_8
REMARK                            x       y       z     vdW  Elec       q    Type
REMARK                         _______ _______ _______ _____ _____    ______ ____
ROOT
ATOM      1  C   UNL     1       5.437   5.521  18.041  0.00  0.00    +0.000 C 
ATOM      2  C   UNL     1       4.051   6.208  18.162  0.00  0.00    +0.000 C 
ATOM      3  N   UNL     1       3.121   5.565  19.071  0.00  0.00    +0.000 N 
ATOM      4  C   UNL     1       2.345   6.135  20.044  0.00  0.00    +0.000 A 
ATOM      5  N   UNL     1       1.373   5.340  20.417  0.00  0.00    +0.000 NA
ATOM      6  C   UNL     1       1.548   4.187  19.691  0.00  0.00    +0.000 A 
ATOM      7  C   UNL     1       0.785   3.012  19.659  0.00  0.00    +0.000 A 
ATOM      8  C   UNL     1       1.180   1.982  18.797  0.00  0.00    +0.000 A 
ATOM      9  C   UNL     1       2.329   2.107  18.007  0.00  0.00    +0.000 A 
ATOM     10  C   UNL     1       3.129   3.264  18.037  0.00  0.00    +0.000 A 
ATOM     11  C   UNL     1       2.663   4.285  18.874  0.00  0.00    +0.000 A 
ATOM     12  C   UNL     1       4.367   3.403  17.196  0.00  0.00    +0.000 C 
ATOM     13  N   UNL     1       5.466   4.049  17.906  0.00  0.00    +0.000 NA
ATOM     14  H   UNL     1       6.359   3.739  17.530  0.00  0.00    +0.000 HD
ENDROOT
BRANCH   1  16
ATOM     15  C   UNL     1       7.370   7.183  17.501  0.00  0.00    +0.000 C 
ATOM     16  C   UNL     1       6.347   6.183  16.952  0.00  0.00    +0.000 C 
ATOM     17  C   UNL     1       7.072   5.138  16.096  0.00  0.00    +0.000 C 
ENDBRANCH   1  16
BRANCH   4  18
ATOM     18  O   UNL     1       2.493   7.353  20.539  0.00  0.00    +0.000 OA
ATOM     19  H   UNL     1       2.952   7.896  19.886  0.00  0.00    +0.000 HD
ENDBRANCH   4  18
TORSDOF 2
ENDMDL
MODEL 3
REMARK VINA RESULT:      -7.0      2.272      5.416
REMARK  Name = 
REMARK  4 active torsions:
REMARK  status: ('A' for Active; 'I' for Inactive)
REMARK    1  A    between atoms: C_1  and  C_2
REMARK    2  A    between atoms: C_2  and  C_3
REMARK    3  A    between atoms: C_2  and  C_4
REMARK    4  A    between atoms: C_7  and  O_8
REMARK                            x       y       z     vdW  Elec       q    Type
REMARK                         _______ _______ _______ _____ _____    ______ ____
ROOT
ATOM      1  C   UNL     1       5.111   4.584  16.735  0.00  0.00    +0.000 C 
ATOM      2  C   UNL     1       5.157   3.534  17.876  0.00  0.00    +0.000 C 
ATOM      3  N   UNL     1       3.868   3.168  18.430  0.00  0.00    +0.000 N 
ATOM      4  C   UNL     1       3.372   1.919  18.689  0.00  0.00    +0.000 A 
ATOM      5  N   UNL     1       2.353   1.961  19.511  0.00  0.00    +0.000 NA
ATOM      6  C   UNL     1       2.146   3.296  19.764  0.00  0.00    +0.000 A 
ATOM      7  C   UNL     1       1.212   3.926  20.596  0.00  0.00    +0.000 A 
ATOM      8  C   UNL     1       1.234   5.323  20.689  0.00  0.00    +0.000 A 
ATOM      9  C   UNL     1       2.147   6.078  19.943  0.00  0.00    +0.000 A 
ATOM     10  C   UNL     1       3.080   5.475  19.079  0.00  0.00    +0.000 A 
ATOM     11  C   UNL     1       3.053   4.075  19.062  0.00  0.00    +0.000 A 
ATOM     12  C   UNL     1       4.059   6.280  18.272  0.00  0.00    +0.000 C 
ATOM     13  N   UNL     1       4.238   5.762  16.918  0.00  0.00    +0.000 NA
ATOM     14  H   UNL     1       4.509   6.514  16.288  0.00  0.00    +0.000 HD
ENDROOT
BRANCH   1  16
ATOM     15  C   UNL     1       7.675   4.605  17.200  0.00  0.00    +0.000 C 
ATOM     16  C   UNL     1       6.537   5.033  16.268  0.00  0.00    +0.000 C 
ATOM     17  C   UNL     1       6.849   4.566  14.841  0.00  0.00    +0.000 C 
ENDBRANCH   1  16
BRANCH   4  18
ATOM     18  O   UNL     1       3.862   0.779  18.227  0.00  0.00    +0.000 OA
ATOM     19  H   UNL     1       3.488   0.617  17.352  0.00  0.00    +0.000 HD
ENDBRANCH   4  18
TORSDOF 2
ENDMDL
MODEL 4
REMARK VINA RESULT:      -6.9      1.999      5.161
REMARK  Name = 
REMARK  4 active torsions:
REMARK  status: ('A' for Active; 'I' for Inactive)
REMARK    1  A    between atoms: C_1  and  C_2
REMARK    2  A    between atoms: C_2  and  C_3
REMARK    3  A    between atoms: C_2  and  C_4
REMARK    4  A    between atoms: C_7  and  O_8
REMARK                            x       y       z     vdW  Elec       q    Type
REMARK                         _______ _______ _______ _____ _____    ______ ____
ROOT
ATOM      1  C   UNL     1       5.602   4.506  17.024  0.00  0.00    +0.000 C 
ATOM      2  C   UNL     1       5.824   4.006  18.476  0.00  0.00    +0.000 C 
ATOM      3  N   UNL     1       4.619   3.621  19.186  0.00  0.00    +0.000 N 
ATOM      4  C   UNL     1       4.386   2.493  19.924  0.00  0.00    +0.000 A 
ATOM      5  N   UNL     1       3.350   2.635  20.714  0.00  0.00    +0.000 NA
ATOM      6  C   UNL     1       2.861   3.891  20.449  0.00  0.00    +0.000 A 
ATOM      7  C   UNL     1       1.786   4.583  21.021  0.00  0.00    +0.000 A 
ATOM      8  C   UNL     1       1.513   5.882  20.573  0.00  0.00    +0.000 A 
ATOM      9  C   UNL     1       2.276   6.466  19.555  0.00  0.00    +0.000 A 
ATOM     10  C   UNL     1       3.344   5.785  18.944  0.00  0.00    +0.000 A 
ATOM     11  C   UNL     1       3.610   4.512  19.462  0.00  0.00    +0.000 A 
ATOM     12  C   UNL     1       4.163   6.404  17.846  0.00  0.00    +0.000 C 
ATOM     13  N   UNL     1       4.497   5.458  16.785  0.00  0.00    +0.000 NA
ATOM     14  H   UNL     1       4.628   5.950  15.904  0.00  0.00    +0.000 HD
ENDROOT
BRANCH   1  16
ATOM     15  C   UNL     1       6.898   5.029  14.824  0.00  0.00    +0.000 C 
ATOM     16  C   UNL     1       6.920   5.027  16.356  0.00  0.00    +0.000 C 
ATOM     17  C   UNL     1       7.306   6.423  16.858  0.00  0.00    +0.000 C 
ENDBRANCH   1  16
BRANCH   4  18
ATOM     18  O   UNL     1       5.119   1.391  19.910  0.00  0.00    +0.000 OA
ATOM     19  H   UNL     1       5.158   1.038  20.808  0.00  0.00    +0.000 HD
ENDBRANCH   4  18
TORSDOF 2
ENDMDL
MODEL 5
REMARK VINA RESULT:      -6.7      2.324      5.310
REMARK  Name = 
REMARK  4 active torsions:
REMARK  status: ('A' for Active; 'I' for Inactive)
REMARK    1  A    between atoms: C_1  and  C_2
REMARK    2  A    between atoms: C_2  and  C_3
REMARK    3  A    between atoms: C_2  and  C_4
REMARK    4  A    between atoms: C_7  and  O_8
REMARK                            x       y       z     vdW  Elec       q    Type
REMARK                         _______ _______ _______ _____ _____    ______ ____
ROOT
ATOM      1  C   UNL     1       5.337   4.791  17.157  0.00  0.00    +0.000 C 
ATOM      2  C   UNL     1       5.285   3.599  18.148  0.00  0.00    +0.000 C 
ATOM      3  N   UNL     1       3.953   3.124  18.474  0.00  0.00    +0.000 N 
ATOM      4  C   UNL     1       3.487   1.838  18.500  0.00  0.00    +0.000 A 
ATOM      5  N   UNL     1       2.370   1.740  19.178  0.00  0.00    +0.000 NA
ATOM      6  C   UNL     1       2.072   3.021  19.572  0.00  0.00    +0.000 A 
ATOM      7  C   UNL     1       1.011   3.506  20.349  0.00  0.00    +0.000 A 
ATOM      8  C   UNL     1       0.957   4.878  20.625  0.00  0.00    +0.000 A 
ATOM      9  C   UNL     1       1.922   5.753  20.111  0.00  0.00    +0.000 A 
ATOM     10  C   UNL     1       2.983   5.299  19.307  0.00  0.00    +0.000 A 
ATOM     11  C   UNL     1       3.023   3.914  19.105  0.00  0.00    +0.000 A 
ATOM     12  C   UNL     1       4.019   6.233  18.748  0.00  0.00    +0.000 C 
ATOM     13  N   UNL     1       4.394   5.909  17.375  0.00  0.00    +0.000 NA
ATOM     14  H   UNL     1       4.708   6.746  16.889  0.00  0.00    +0.000 HD
ENDROOT
BRANCH   1  16
ATOM     15  C   UNL     1       6.932   6.852  17.147  0.00  0.00    +0.000 C 
ATOM     16  C   UNL     1       6.788   5.340  16.946  0.00  0.00    +0.000 C 
ATOM     17  C   UNL     1       7.811   4.614  17.827  0.00  0.00    +0.000 C 
ENDBRANCH   1  16
BRANCH   4  18
ATOM     18  O   UNL     1       4.083   0.785  17.963  0.00  0.00    +0.000 OA
ATOM     19  H   UNL     1       4.601   0.343  18.649  0.00  0.00    +0.000 HD
ENDBRANCH   4  18
TORSDOF 2
ENDMDL
MODEL 6
REMARK VINA RESULT:      -6.7      2.058      5.417
REMARK  Name = 
REMARK  4 active torsions:
REMARK  status: ('A' for Active; 'I' for Inactive)
REMARK    1  A    between atoms: C_1  and  C_2
REMARK    2  A    between atoms: C_2  and  C_3
REMARK    3  A    between atoms: C_2  and  C_4
REMARK    4  A    between atoms: C_7  and  O_8
REMARK                            x       y       z     vdW  Elec       q    Type
REMARK                         _______ _______ _______ _____ _____    ______ ____
ROOT
ATOM      1  C   UNL     1       5.571   5.777  18.128  0.00  0.00    +0.000 C 
ATOM      2  C   UNL     1       4.058   6.086  17.976  0.00  0.00    +0.000 C 
ATOM      3  N   UNL     1       3.273   5.935  19.187  0.00  0.00    +0.000 N 
ATOM      4  C   UNL     1       2.348   6.792  19.718  0.00  0.00    +0.000 A 
ATOM      5  N   UNL     1       1.578   6.193  20.594  0.00  0.00    +0.000 NA
ATOM      6  C   UNL     1       2.049   4.906  20.671  0.00  0.00    +0.000 A 
ATOM      7  C   UNL     1       1.589   3.816  21.422  0.00  0.00    +0.000 A 
ATOM      8  C   UNL     1       2.249   2.588  21.293  0.00  0.00    +0.000 A 
ATOM      9  C   UNL     1       3.365   2.457  20.458  0.00  0.00    +0.000 A 
ATOM     10  C   UNL     1       3.866   3.539  19.711  0.00  0.00    +0.000 A 
ATOM     11  C   UNL     1       3.139   4.730  19.833  0.00  0.00    +0.000 A 
ATOM     12  C   UNL     1       5.067   3.407  18.817  0.00  0.00    +0.000 C 
ATOM     13  N   UNL     1       5.953   4.565  18.882  0.00  0.00    +0.000 NA
ATOM     14  H   UNL     1       6.908   4.289  18.663  0.00  0.00    +0.000 HD
ENDROOT
BRANCH   1  16
ATOM     15  C   UNL     1       7.402   4.743  16.589  0.00  0.00    +0.000 C 
ATOM     16  C   UNL     1       6.339   5.832  16.764  0.00  0.00    +0.000 C 
ATOM     17  C   UNL     1       5.384   5.803  15.565  0.00  0.00    +0.000 C 
ENDBRANCH   1  16
BRANCH   4  18
ATOM     18  O   UNL     1       2.183   8.061  19.382  0.00  0.00    +0.000 OA
ATOM     19  H   UNL     1       3.034   8.511  19.458  0.00  0.00    +0.000 HD
ENDBRANCH   4  18
TORSDOF 2
ENDMDL
MODEL 7
REMARK VINA RESULT:      -6.6      2.322      3.432
REMARK  Name = 
REMARK  4 active torsions:
REMARK  status: ('A' for Active; 'I' for Inactive)
REMARK    1  A    between atoms: C_1  and  C_2
REMARK    2  A    between atoms: C_2  and  C_3
REMARK    3  A    between atoms: C_2  and  C_4
REMARK    4  A    between atoms: C_7  and  O_8
REMARK                            x       y       z     vdW  Elec       q    Type
REMARK                         _______ _______ _______ _____ _____    ______ ____
ROOT
ATOM      1  C   UNL     1       3.686   2.738  17.712  0.00  0.00    +0.000 C 
ATOM      2  C   UNL     1       3.732   3.931  16.721  0.00  0.00    +0.000 C 
ATOM      3  N   UNL     1       5.060   4.420  16.405  0.00  0.00    +0.000 N 
ATOM      4  C   UNL     1       5.596   4.709  15.180  0.00  0.00    +0.000 A 
ATOM      5  N   UNL     1       6.664   5.463  15.282  0.00  0.00    +0.000 NA
ATOM      6  C   UNL     1       6.858   5.636  16.630  0.00  0.00    +0.000 A 
ATOM      7  C   UNL     1       7.829   6.376  17.318  0.00  0.00    +0.000 A 
ATOM      8  C   UNL     1       7.784   6.401  18.717  0.00  0.00    +0.000 A 
ATOM      9  C   UNL     1       6.811   5.677  19.417  0.00  0.00    +0.000 A 
ATOM     10  C   UNL     1       5.840   4.904  18.755  0.00  0.00    +0.000 A 
ATOM     11  C   UNL     1       5.894   4.955  17.358  0.00  0.00    +0.000 A 
ATOM     12  C   UNL     1       4.797   4.120  19.501  0.00  0.00    +0.000 C 
ATOM     13  N   UNL     1       4.544   2.808  18.913  0.00  0.00    +0.000 NA
ATOM     14  H   UNL     1       4.220   2.159  19.627  0.00  0.00    +0.000 HD
ENDROOT
BRANCH   1  16
ATOM     15  C   UNL     1       2.094   1.727  19.510  0.00  0.00    +0.000 C 
ATOM     16  C   UNL     1       2.225   2.340  18.112  0.00  0.00    +0.000 C 
ATOM     17  C   UNL     1       1.252   3.517  17.982  0.00  0.00    +0.000 C 
ENDBRANCH   1  16
BRANCH   4  18
ATOM     18  O   UNL     1       5.102   4.337  14.010  0.00  0.00    +0.000 OA
ATOM     19  H   UNL     1       4.209   3.997  14.148  0.00  0.00    +0.000 HD
ENDBRANCH   4  18
TORSDOF 2
ENDMDL
MODEL 8
REMARK VINA RESULT:      -6.6      2.347      5.407
REMARK  Name = 
REMARK  4 active torsions:
REMARK  status: ('A' for Active; 'I' for Inactive)
REMARK    1  A    between atoms: C_1  and  C_2
REMARK    2  A    between atoms: C_2  and  C_3
REMARK    3  A    between atoms: C_2  and  C_4
REMARK    4  A    between atoms: C_7  and  O_8
REMARK                            x       y       z     vdW  Elec       q    Type
REMARK                         _______ _______ _______ _____ _____    ______ ____
ROOT
ATOM      1  C   UNL     1       4.951   4.176  16.547  0.00  0.00    +0.000 C 
ATOM      2  C   UNL     1       4.807   3.293  17.815  0.00  0.00    +0.000 C 
ATOM      3  N   UNL     1       3.506   3.338  18.454  0.00  0.00    +0.000 N 
ATOM      4  C   UNL     1       2.732   2.298  18.891  0.00  0.00    +0.000 A 
ATOM      5  N   UNL     1       1.811   2.699  19.735  0.00  0.00    +0.000 NA
ATOM      6  C   UNL     1       1.963   4.062  19.816  0.00  0.00    +0.000 A 
ATOM      7  C   UNL     1       1.273   5.005  20.589  0.00  0.00    +0.000 A 
ATOM      8  C   UNL     1       1.651   6.350  20.497  0.00  0.00    +0.000 A 
ATOM      9  C   UNL     1       2.673   6.751  19.628  0.00  0.00    +0.000 A 
ATOM     10  C   UNL     1       3.366   5.831  18.821  0.00  0.00    +0.000 A 
ATOM     11  C   UNL     1       2.988   4.493  18.989  0.00  0.00    +0.000 A 
ATOM     12  C   UNL     1       4.460   6.255  17.882  0.00  0.00    +0.000 C 
ATOM     13  N   UNL     1       4.415   5.552  16.603  0.00  0.00    +0.000 NA
ATOM     14  H   UNL     1       4.823   6.129  15.870  0.00  0.00    +0.000 HD
ENDROOT
BRANCH   1  16
ATOM     15  C   UNL     1       6.600   5.052  14.729  0.00  0.00    +0.000 C 
ATOM     16  C   UNL     1       6.410   4.185  15.978  0.00  0.00    +0.000 C 
ATOM     17  C   UNL     1       7.438   4.594  17.039  0.00  0.00    +0.000 C 
ENDBRANCH   1  16
BRANCH   4  18
ATOM     18  O   UNL     1       2.889   1.025  18.568  0.00  0.00    +0.000 OA
ATOM     19  H   UNL     1       2.023   0.597  18.580  0.00  0.00    +0.000 HD
ENDBRANCH   4  18
TORSDOF 2
ENDMDL
MODEL 9
REMARK VINA RESULT:      -6.6      0.784      1.171
REMARK  Name = 
REMARK  4 active torsions:
REMARK  status: ('A' for Active; 'I' for Inactive)
REMARK    1  A    between atoms: C_1  and  C_2
REMARK    2  A    between atoms: C_2  and  C_3
REMARK    3  A    between atoms: C_2  and  C_4
REMARK    4  A    between atoms: C_7  and  O_8
REMARK                            x       y       z     vdW  Elec       q    Type
REMARK                         _______ _______ _______ _____ _____    ______ ____
ROOT
ATOM      1  C   UNL     1       3.333   5.556  19.423  0.00  0.00    +0.000 C 
ATOM      2  C   UNL     1       4.603   4.726  19.747  0.00  0.00    +0.000 C 
ATOM      3  N   UNL     1       5.740   4.976  18.881  0.00  0.00    +0.000 N 
ATOM      4  C   UNL     1       7.045   5.200  19.227  0.00  0.00    +0.000 A 
ATOM      5  N   UNL     1       7.854   5.023  18.211  0.00  0.00    +0.000 NA
ATOM      6  C   UNL     1       7.040   4.715  17.148  0.00  0.00    +0.000 A 
ATOM      7  C   UNL     1       7.363   4.397  15.823  0.00  0.00    +0.000 A 
ATOM      8  C   UNL     1       6.322   4.097  14.935  0.00  0.00    +0.000 A 
ATOM      9  C   UNL     1       4.987   4.144  15.351  0.00  0.00    +0.000 A 
ATOM     10  C   UNL     1       4.630   4.486  16.669  0.00  0.00    +0.000 A 
ATOM     11  C   UNL     1       5.708   4.724  17.530  0.00  0.00    +0.000 A 
ATOM     12  C   UNL     1       3.198   4.544  17.121  0.00  0.00    +0.000 C 
ATOM     13  N   UNL     1       2.928   5.672  18.007  0.00  0.00    +0.000 NA
ATOM     14  H   UNL     1       1.953   5.953  17.931  0.00  0.00    +0.000 HD
ENDROOT
BRANCH   1  16
ATOM     15  C   UNL     1       2.415   4.112  21.389  0.00  0.00    +0.000 C 
ATOM     16  C   UNL     1       2.104   5.150  20.306  0.00  0.00    +0.000 C 
ATOM     17  C   UNL     1       1.433   6.368  20.951  0.00  0.00    +0.000 C 
ENDBRANCH   1  16
BRANCH   4  18
ATOM     18  O   UNL     1       7.485   5.509  20.436  0.00  0.00    +0.000 OA
ATOM     19  H   UNL     1       7.473   6.471  20.530  0.00  0.00    +0.000 HD
ENDBRANCH   4  18
TORSDOF 2
ENDMDL
