MODEL 1
REMARK VINA RESULT:      -7.1      0.000      0.000
REMARK  Name = 
REMARK  8 active torsions:
REMARK  status: ('A' for Active; 'I' for Inactive)
REMARK    1  A    between atoms: C_2  and  C_3
REMARK    2  A    between atoms: C_2  and  O_12
REMARK    3  A    between atoms: C_3  and  C_4
REMARK    4  A    between atoms: C_7  and  O_8
REMARK    5  A    between atoms: C_9  and  O_10
REMARK    6  A    between atoms: O_12  and  C_13
REMARK    7  A    between atoms: C_13  and  C_14
REMARK    8  A    between atoms: C_14  and  C_15
REMARK                            x       y       z     vdW  Elec       q    Type
REMARK                         _______ _______ _______ _____ _____    ______ ____
ROOT
ATOM      1  O   UNL     1       1.859   7.284  20.865  0.00  0.00    +0.000 OA
ATOM      2  C   UNL     1       1.878   6.329  20.112  0.00  0.00    +0.000 C 
ENDROOT
BRANCH   2   3
ATOM      3  C   UNL     1       1.361   4.940  20.455  0.00  0.00    +0.000 C 
BRANCH   3   4
ATOM      4  C   UNL     1       2.108   3.810  19.798  0.00  0.00    +0.000 A 
ATOM      5  C   UNL     1       1.603   3.207  18.634  0.00  0.00    +0.000 A 
ATOM      6  C   UNL     1       2.307   2.179  17.998  0.00  0.00    +0.000 A 
ATOM      7  C   UNL     1       3.513   1.746  18.538  0.00  0.00    +0.000 A 
ATOM      8  C   UNL     1       4.006   2.324  19.704  0.00  0.00    +0.000 A 
ATOM      9  C   UNL     1       3.313   3.343  20.342  0.00  0.00    +0.000 A 
BRANCH   7  10
ATOM     10  O   UNL     1       4.254   0.760  17.951  0.00  0.00    +0.000 OA
ATOM     11  H   UNL     1       3.659   0.017  17.749  0.00  0.00    +0.000 HD
ENDBRANCH   7  10
BRANCH   8  12
ATOM     12  O   UNL     1       5.198   1.906  20.224  0.00  0.00    +0.000 OA
ATOM     13  H   UNL     1       5.209   2.268  21.133  0.00  0.00    +0.000 HD
ENDBRANCH   8  12
ENDBRANCH   3   4
ENDBRANCH   2   3
BRANCH   2  14
ATOM     14  O   UNL     1       2.438   6.323  18.864  0.00  0.00    +0.000 OA
BRANCH  14  15
ATOM     15  C   UNL     1       2.890   7.592  18.354  0.00  0.00    +0.000 C 
BRANCH  15  16
ATOM     16  C   UNL     1       3.567   7.309  17.011  0.00  0.00    +0.000 C 
BRANCH  16  17
ATOM     17  C   UNL     1       4.806   6.468  17.121  0.00  0.00    +0.000 A 
ATOM     18  C   UNL     1       6.053   7.074  17.330  0.00  0.00    +0.000 A 
ATOM     19  C   UNL     1       7.199   6.292  17.464  0.00  0.00    +0.000 A 
ATOM     20  C   UNL     1       7.099   4.909  17.384  0.00  0.00    +0.000 A 
ATOM     21  F   UNL     1       8.201   4.159  17.527  0.00  0.00    +0.000 F 
ATOM     22  C   UNL     1       5.875   4.291  17.162  0.00  0.00    +0.000 A 
ATOM     23  C   UNL     1       4.726   5.070  17.025  0.00  0.00    +0.000 A 
ENDBRANCH  16  17
ENDBRANCH  15  16
ENDBRANCH  14  15
ENDBRANCH   2  14
TORSDOF 8
ENDMDL
MODEL 2
REMARK VINA RESULT:      -7.1      2.415      5.138
REMARK  Name = 
REMARK  8 active torsions:
REMARK  status: ('A' for Active; 'I' for Inactive)
REMARK    1  A    between atoms: C_2  and  C_3
REMARK    2  A    between atoms: C_2  and  O_12
REMARK    3  A    between atoms: C_3  and  C_4
REMARK    4  A    between atoms: C_7  and  O_8
REMARK    5  A    between atoms: C_9  and  O_10
REMARK    6  A    between atoms: O_12  and  C_13
REMARK    7  A    between atoms: C_13  and  C_14
REMARK    8  A    between atoms: C_14  and  C_15
REMARK                            x       y       z     vdW  Elec       q    Type
REMARK                         _______ _______ _______ _____ _____    ______ ____
ROOT
ATOM      1  O   UNL     1       5.222   1.629  20.732  0.00  0.00    +0.000 OA
ATOM      2  C   UNL     1       4.348   2.259  20.170  0.00  0.00    +0.000 C 
ENDROOT
BRANCH   2   3
ATOM      3  C   UNL     1       4.258   2.469  18.665  0.00  0.00    +0.000 C 
BRANCH   3   4
ATOM      4  C   UNL     1       4.879   3.748  18.170  0.00  0.00    +0.000 A 
ATOM      5  C   UNL     1       5.473   4.645  19.072  0.00  0.00    +0.000 A 
ATOM      6  C   UNL     1       6.081   5.820  18.618  0.00  0.00    +0.000 A 
ATOM      7  C   UNL     1       6.082   6.102  17.257  0.00  0.00    +0.000 A 
ATOM      8  C   UNL     1       5.474   5.229  16.360  0.00  0.00    +0.000 A 
ATOM      9  C   UNL     1       4.868   4.062  16.803  0.00  0.00    +0.000 A 
BRANCH   7  10
ATOM     10  O   UNL     1       6.677   7.224  16.752  0.00  0.00    +0.000 OA
ATOM     11  H   UNL     1       7.511   7.363  17.233  0.00  0.00    +0.000 HD
ENDBRANCH   7  10
BRANCH   8  12
ATOM     12  O   UNL     1       5.489   5.502  15.021  0.00  0.00    +0.000 OA
ATOM     13  H   UNL     1       4.625   5.926  14.849  0.00  0.00    +0.000 HD
ENDBRANCH   8  12
ENDBRANCH   3   4
ENDBRANCH   2   3
BRANCH   2  14
ATOM     14  O   UNL     1       3.348   2.950  20.798  0.00  0.00    +0.000 OA
BRANCH  14  15
ATOM     15  C   UNL     1       2.058   2.313  20.847  0.00  0.00    +0.000 C 
BRANCH  15  16
ATOM     16  C   UNL     1       1.015   3.420  20.679  0.00  0.00    +0.000 C 
BRANCH  16  17
ATOM     17  C   UNL     1       1.491   4.582  19.858  0.00  0.00    +0.000 A 
ATOM     18  C   UNL     1       1.991   5.733  20.487  0.00  0.00    +0.000 A 
ATOM     19  C   UNL     1       2.463   6.800  19.725  0.00  0.00    +0.000 A 
ATOM     20  C   UNL     1       2.430   6.720  18.339  0.00  0.00    +0.000 A 
ATOM     21  F   UNL     1       2.898   7.742  17.608  0.00  0.00    +0.000 F 
ATOM     22  C   UNL     1       1.925   5.596  17.697  0.00  0.00    +0.000 A 
ATOM     23  C   UNL     1       1.450   4.527  18.457  0.00  0.00    +0.000 A 
ENDBRANCH  16  17
ENDBRANCH  15  16
ENDBRANCH  14  15
ENDBRANCH   2  14
TORSDOF 8
ENDMDL
MODEL 3
REMARK VINA RESULT:      -7.1      3.010      5.113
REMARK  Name = 
REMARK  8 active torsions:
REMARK  status: ('A' for Active; 'I' for Inactive)
REMARK    1  A    between atoms: C_2  and  C_3
REMARK    2  A    between atoms: C_2  and  O_12
REMARK    3  A    between atoms: C_3  and  C_4
REMARK    4  A    between atoms: C_7  and  O_8
REMARK    5  A    between atoms: C_9  and  O_10
REMARK    6  A    between atoms: O_12  and  C_13
REMARK    7  A    between atoms: C_13  and  C_14
REMARK    8  A    between atoms: C_14  and  C_15
REMARK                            x       y       z     vdW  Elec       q    Type
REMARK                         _______ _______ _______ _____ _____    ______ ____
ROOT
ATOM      1  O   UNL     1       1.199   4.035  17.451  0.00  0.00    +0.000 OA
ATOM      2  C   UNL     1       2.130   3.590  18.095  0.00  0.00    +0.000 C 
ENDROOT
BRANCH   2   3
ATOM      3  C   UNL     1       3.400   3.002  17.497  0.00  0.00    +0.000 C 
BRANCH   3   4
ATOM      4  C   UNL     1       4.519   3.990  17.303  0.00  0.00    +0.000 A 
ATOM      5  C   UNL     1       4.575   4.783  16.145  0.00  0.00    +0.000 A 
ATOM      6  C   UNL     1       5.594   5.726  15.972  0.00  0.00    +0.000 A 
ATOM      7  C   UNL     1       6.565   5.865  16.956  0.00  0.00    +0.000 A 
ATOM      8  C   UNL     1       6.529   5.065  18.096  0.00  0.00    +0.000 A 
ATOM      9  C   UNL     1       5.522   4.127  18.274  0.00  0.00    +0.000 A 
BRANCH   7  10
ATOM     10  O   UNL     1       7.573   6.782  16.852  0.00  0.00    +0.000 OA
ATOM     11  H   UNL     1       8.340   6.442  17.343  0.00  0.00    +0.000 HD
ENDBRANCH   7  10
BRANCH   8  12
ATOM     12  O   UNL     1       7.477   5.215  19.067  0.00  0.00    +0.000 OA
ATOM     13  H   UNL     1       7.902   6.072  18.865  0.00  0.00    +0.000 HD
ENDBRANCH   8  12
ENDBRANCH   3   4
ENDBRANCH   2   3
BRANCH   2  14
ATOM     14  O   UNL     1       2.157   3.471  19.458  0.00  0.00    +0.000 OA
BRANCH  14  15
ATOM     15  C   UNL     1       1.716   4.614  20.214  0.00  0.00    +0.000 C 
BRANCH  15  16
ATOM     16  C   UNL     1       2.811   5.675  20.085  0.00  0.00    +0.000 C 
BRANCH  16  17
ATOM     17  C   UNL     1       2.318   6.994  19.565  0.00  0.00    +0.000 A 
ATOM     18  C   UNL     1       1.617   7.868  20.411  0.00  0.00    +0.000 A 
ATOM     19  C   UNL     1       1.187   9.106  19.938  0.00  0.00    +0.000 A 
ATOM     20  C   UNL     1       1.450   9.467  18.623  0.00  0.00    +0.000 A 
ATOM     21  F   UNL     1       1.047  10.665  18.175  0.00  0.00    +0.000 F 
ATOM     22  C   UNL     1       2.130   8.610  17.766  0.00  0.00    +0.000 A 
ATOM     23  C   UNL     1       2.560   7.369  18.235  0.00  0.00    +0.000 A 
ENDBRANCH  16  17
ENDBRANCH  15  16
ENDBRANCH  14  15
ENDBRANCH   2  14
TORSDOF 8
ENDMDL
MODEL 4
REMARK VINA RESULT:      -7.0      2.519      3.473
REMARK  Name = 
REMARK  8 active torsions:
REMARK  status: ('A' for Active; 'I' for Inactive)
REMARK    1  A    between atoms: C_2  and  C_3
REMARK    2  A    between atoms: C_2  and  O_12
REMARK    3  A    between atoms: C_3  and  C_4
REMARK    4  A    between atoms: C_7  and  O_8
REMARK    5  A    between atoms: C_9  and  O_10
REMARK    6  A    between atoms: O_12  and  C_13
REMARK    7  A    between atoms: C_13  and  C_14
REMARK    8  A    between atoms: C_14  and  C_15
REMARK                            x       y       z     vdW  Elec       q    Type
REMARK                         _______ _______ _______ _____ _____    ______ ____
ROOT
ATOM      1  O   UNL     1       5.956   3.733  19.374  0.00  0.00    +0.000 OA
ATOM      2  C   UNL     1       5.737   4.917  19.541  0.00  0.00    +0.000 C 
ENDROOT
BRANCH   2   3
ATOM      3  C   UNL     1       4.383   5.587  19.353  0.00  0.00    +0.000 C 
BRANCH   3   4
ATOM      4  C   UNL     1       3.245   4.640  19.083  0.00  0.00    +0.000 A 
ATOM      5  C   UNL     1       2.983   4.198  17.776  0.00  0.00    +0.000 A 
ATOM      6  C   UNL     1       1.948   3.293  17.521  0.00  0.00    +0.000 A 
ATOM      7  C   UNL     1       1.166   2.838  18.577  0.00  0.00    +0.000 A 
ATOM      8  C   UNL     1       1.407   3.290  19.872  0.00  0.00    +0.000 A 
ATOM      9  C   UNL     1       2.431   4.190  20.133  0.00  0.00    +0.000 A 
BRANCH   7  10
ATOM     10  O   UNL     1       0.155   1.939  18.392  0.00  0.00    +0.000 OA
ATOM     11  H   UNL     1       0.377   1.131  18.886  0.00  0.00    +0.000 HD
ENDBRANCH   7  10
BRANCH   8  12
ATOM     12  O   UNL     1       0.646   2.831  20.909  0.00  0.00    +0.000 OA
ATOM     13  H   UNL     1      -0.015   3.536  21.059  0.00  0.00    +0.000 HD
ENDBRANCH   8  12
ENDBRANCH   3   4
ENDBRANCH   2   3
BRANCH   2  14
ATOM     14  O   UNL     1       6.684   5.856  19.848  0.00  0.00    +0.000 OA
BRANCH  14  15
ATOM     15  C   UNL     1       7.897   5.825  19.073  0.00  0.00    +0.000 C 
BRANCH  15  16
ATOM     16  C   UNL     1       7.650   6.689  17.835  0.00  0.00    +0.000 C 
BRANCH  16  17
ATOM     17  C   UNL     1       6.913   5.978  16.737  0.00  0.00    +0.000 A 
ATOM     18  C   UNL     1       5.788   6.571  16.144  0.00  0.00    +0.000 A 
ATOM     19  C   UNL     1       5.122   5.925  15.104  0.00  0.00    +0.000 A 
ATOM     20  C   UNL     1       5.576   4.689  14.661  0.00  0.00    +0.000 A 
ATOM     21  F   UNL     1       4.941   4.078  13.651  0.00  0.00    +0.000 F 
ATOM     22  C   UNL     1       6.679   4.079  15.245  0.00  0.00    +0.000 A 
ATOM     23  C   UNL     1       7.347   4.721  16.289  0.00  0.00    +0.000 A 
ENDBRANCH  16  17
ENDBRANCH  15  16
ENDBRANCH  14  15
ENDBRANCH   2  14
TORSDOF 8
ENDMDL
MODEL 5
REMARK VINA RESULT:      -7.0      2.071      4.826
REMARK  Name = 
REMARK  8 active torsions:
REMARK  status: ('A' for Active; 'I' for Inactive)
REMARK    1  A    between atoms: C_2  and  C_3
REMARK    2  A    between atoms: C_2  and  O_12
REMARK    3  A    between atoms: C_3  and  C_4
REMARK    4  A    between atoms: C_7  and  O_8
REMARK    5  A    between atoms: C_9  and  O_10
REMARK    6  A    between atoms: O_12  and  C_13
REMARK    7  A    between atoms: C_13  and  C_14
REMARK    8  A    between atoms: C_14  and  C_15
REMARK                            x       y       z     vdW  Elec       q    Type
REMARK                         _______ _______ _______ _____ _____    ______ ____
ROOT
ATOM      1  O   UNL     1       1.082   3.913  19.823  0.00  0.00    +0.000 OA
ATOM      2  C   UNL     1       2.024   4.422  19.248  0.00  0.00    +0.000 C 
ENDROOT
BRANCH   2   3
ATOM      3  C   UNL     1       2.870   5.559  19.803  0.00  0.00    +0.000 C 
BRANCH   3   4
ATOM      4  C   UNL     1       2.431   6.935  19.379  0.00  0.00    +0.000 A 
ATOM      5  C   UNL     1       2.731   7.412  18.093  0.00  0.00    +0.000 A 
ATOM      6  C   UNL     1       2.298   8.677  17.679  0.00  0.00    +0.000 A 
ATOM      7  C   UNL     1       1.573   9.469  18.562  0.00  0.00    +0.000 A 
ATOM      8  C   UNL     1       1.292   9.011  19.846  0.00  0.00    +0.000 A 
ATOM      9  C   UNL     1       1.720   7.758  20.265  0.00  0.00    +0.000 A 
BRANCH   7  10
ATOM     10  O   UNL     1       1.107  10.704  18.208  0.00  0.00    +0.000 OA
ATOM     11  H   UNL     1       1.837  11.191  17.787  0.00  0.00    +0.000 HD
ENDBRANCH   7  10
BRANCH   8  12
ATOM     12  O   UNL     1       0.568   9.786  20.706  0.00  0.00    +0.000 OA
ATOM     13  H   UNL     1      -0.136   9.193  21.036  0.00  0.00    +0.000 HD
ENDBRANCH   8  12
ENDBRANCH   3   4
ENDBRANCH   2   3
BRANCH   2  14
ATOM     14  O   UNL     1       2.430   4.115  17.978  0.00  0.00    +0.000 OA
BRANCH  14  15
ATOM     15  C   UNL     1       3.728   3.504  17.847  0.00  0.00    +0.000 C 
BRANCH  15  16
ATOM     16  C   UNL     1       4.472   4.285  16.761  0.00  0.00    +0.000 C 
BRANCH  16  17
ATOM     17  C   UNL     1       5.592   5.135  17.286  0.00  0.00    +0.000 A 
ATOM     18  C   UNL     1       5.954   6.315  16.619  0.00  0.00    +0.000 A 
ATOM     19  C   UNL     1       6.973   7.121  17.123  0.00  0.00    +0.000 A 
ATOM     20  C   UNL     1       7.632   6.746  18.286  0.00  0.00    +0.000 A 
ATOM     21  F   UNL     1       8.603   7.530  18.776  0.00  0.00    +0.000 F 
ATOM     22  C   UNL     1       7.299   5.573  18.953  0.00  0.00    +0.000 A 
ATOM     23  C   UNL     1       6.281   4.763  18.450  0.00  0.00    +0.000 A 
ENDBRANCH  16  17
ENDBRANCH  15  16
ENDBRANCH  14  15
ENDBRANCH   2  14
TORSDOF 8
ENDMDL
MODEL 6
REMARK VINA RESULT:      -6.9      1.112      1.484
REMARK  Name = 
REMARK  8 active torsions:
REMARK  status: ('A' for Active; 'I' for Inactive)
REMARK    1  A    between atoms: C_2  and  C_3
REMARK    2  A    between atoms: C_2  and  O_12
REMARK    3  A    between atoms: C_3  and  C_4
REMARK    4  A    between atoms: C_7  and  O_8
REMARK    5  A    between atoms: C_9  and  O_10
REMARK    6  A    between atoms: O_12  and  C_13
REMARK    7  A    between atoms: C_13  and  C_14
REMARK    8  A    between atoms: C_14  and  C_15
REMARK                            x       y       z     vdW  Elec       q    Type
REMARK                         _______ _______ _______ _____ _____    ______ ____
ROOT
ATOM      1  O   UNL     1       1.602   6.833  21.071  0.00  0.00    +0.000 OA
ATOM      2  C   UNL     1       1.614   5.927  20.260  0.00  0.00    +0.000 C 
ENDROOT
BRANCH   2   3
ATOM      3  C   UNL     1       1.217   4.488  20.559  0.00  0.00    +0.000 C 
BRANCH   3   4
ATOM      4  C   UNL     1       2.023   3.448  19.828  0.00  0.00    +0.000 A 
ATOM      5  C   UNL     1       1.564   2.919  18.611  0.00  0.00    +0.000 A 
ATOM      6  C   UNL     1       2.323   1.977  17.909  0.00  0.00    +0.000 A 
ATOM      7  C   UNL     1       3.538   1.555  18.435  0.00  0.00    +0.000 A 
ATOM      8  C   UNL     1       3.988   2.058  19.652  0.00  0.00    +0.000 A 
ATOM      9  C   UNL     1       3.240   2.992  20.356  0.00  0.00    +0.000 A 
BRANCH   7  10
ATOM     10  O   UNL     1       4.332   0.652  17.785  0.00  0.00    +0.000 OA
ATOM     11  H   UNL     1       5.047   1.143  17.345  0.00  0.00    +0.000 HD
ENDBRANCH   7  10
BRANCH   8  12
ATOM     12  O   UNL     1       5.190   1.652  20.159  0.00  0.00    +0.000 OA
ATOM     13  H   UNL     1       5.687   1.331  19.381  0.00  0.00    +0.000 HD
ENDBRANCH   8  12
ENDBRANCH   3   4
ENDBRANCH   2   3
BRANCH   2  14
ATOM     14  O   UNL     1       2.061   6.030  18.972  0.00  0.00    +0.000 OA
BRANCH  14  15
ATOM     15  C   UNL     1       3.279   6.769  18.769  0.00  0.00    +0.000 C 
BRANCH  15  16
ATOM     16  C   UNL     1       4.430   5.822  19.118  0.00  0.00    +0.000 C 
BRANCH  16  17
ATOM     17  C   UNL     1       5.199   5.336  17.923  0.00  0.00    +0.000 A 
ATOM     18  C   UNL     1       4.579   5.269  16.666  0.00  0.00    +0.000 A 
ATOM     19  C   UNL     1       5.301   4.848  15.551  0.00  0.00    +0.000 A 
ATOM     20  C   UNL     1       6.635   4.489  15.693  0.00  0.00    +0.000 A 
ATOM     21  F   UNL     1       7.331   4.097  14.616  0.00  0.00    +0.000 F 
ATOM     22  C   UNL     1       7.262   4.534  16.932  0.00  0.00    +0.000 A 
ATOM     23  C   UNL     1       6.542   4.953  18.051  0.00  0.00    +0.000 A 
ENDBRANCH  16  17
ENDBRANCH  15  16
ENDBRANCH  14  15
ENDBRANCH   2  14
TORSDOF 8
ENDMDL
MODEL 7
REMARK VINA RESULT:      -6.8      1.997      4.440
REMARK  Name = 
REMARK  8 active torsions:
REMARK  status: ('A' for Active; 'I' for Inactive)
REMARK    1  A    between atoms: C_2  and  C_3
REMARK    2  A    between atoms: C_2  and  O_12
REMARK    3  A    between atoms: C_3  and  C_4
REMARK    4  A    between atoms: C_7  and  O_8
REMARK    5  A    between atoms: C_9  and  O_10
REMARK    6  A    between atoms: O_12  and  C_13
REMARK    7  A    between atoms: C_13  and  C_14
REMARK    8  A    between atoms: C_14  and  C_15
REMARK                            x       y       z     vdW  Elec       q    Type
REMARK                         _______ _______ _______ _____ _____    ______ ____
ROOT
ATOM      1  O   UNL     1       2.768   8.594  18.019  0.00  0.00    +0.000 OA
ATOM      2  C   UNL     1       2.765   7.458  18.453  0.00  0.00    +0.000 C 
ENDROOT
BRANCH   2   3
ATOM      3  C   UNL     1       2.896   6.202  17.603  0.00  0.00    +0.000 C 
BRANCH   3   4
ATOM      4  C   UNL     1       4.298   5.665  17.486  0.00  0.00    +0.000 A 
ATOM      5  C   UNL     1       5.323   6.171  18.303  0.00  0.00    +0.000 A 
ATOM      6  C   UNL     1       6.620   5.655  18.224  0.00  0.00    +0.000 A 
ATOM      7  C   UNL     1       6.894   4.639  17.315  0.00  0.00    +0.000 A 
ATOM      8  C   UNL     1       5.887   4.150  16.487  0.00  0.00    +0.000 A 
ATOM      9  C   UNL     1       4.598   4.657  16.558  0.00  0.00    +0.000 A 
BRANCH   7  10
ATOM     10  O   UNL     1       8.137   4.082  17.207  0.00  0.00    +0.000 OA
ATOM     11  H   UNL     1       8.153   3.538  16.401  0.00  0.00    +0.000 HD
ENDBRANCH   7  10
BRANCH   8  12
ATOM     12  O   UNL     1       6.156   3.141  15.605  0.00  0.00    +0.000 OA
ATOM     13  H   UNL     1       7.010   2.773  15.909  0.00  0.00    +0.000 HD
ENDBRANCH   8  12
ENDBRANCH   3   4
ENDBRANCH   2   3
BRANCH   2  14
ATOM     14  O   UNL     1       2.563   7.117  19.762  0.00  0.00    +0.000 OA
BRANCH  14  15
ATOM     15  C   UNL     1       1.447   6.249  20.038  0.00  0.00    +0.000 C 
BRANCH  15  16
ATOM     16  C   UNL     1       1.982   5.107  20.903  0.00  0.00    +0.000 C 
BRANCH  16  17
ATOM     17  C   UNL     1       2.482   3.931  20.115  0.00  0.00    +0.000 A 
ATOM     18  C   UNL     1       1.658   3.327  19.153  0.00  0.00    +0.000 A 
ATOM     19  C   UNL     1       2.132   2.255  18.398  0.00  0.00    +0.000 A 
ATOM     20  C   UNL     1       3.422   1.786  18.608  0.00  0.00    +0.000 A 
ATOM     21  F   UNL     1       3.880   0.764  17.871  0.00  0.00    +0.000 F 
ATOM     22  C   UNL     1       4.247   2.361  19.567  0.00  0.00    +0.000 A 
ATOM     23  C   UNL     1       3.776   3.432  20.326  0.00  0.00    +0.000 A 
ENDBRANCH  16  17
ENDBRANCH  15  16
ENDBRANCH  14  15
ENDBRANCH   2  14
TORSDOF 8
ENDMDL
MODEL 8
REMARK VINA RESULT:      -6.8      2.250      4.837
REMARK  Name = 
REMARK  8 active torsions:
REMARK  status: ('A' for Active; 'I' for Inactive)
REMARK    1  A    between atoms: C_2  and  C_3
REMARK    2  A    between atoms: C_2  and  O_12
REMARK    3  A    between atoms: C_3  and  C_4
REMARK    4  A    between atoms: C_7  and  O_8
REMARK    5  A    between atoms: C_9  and  O_10
REMARK    6  A    between atoms: O_12  and  C_13
REMARK    7  A    between atoms: C_13  and  C_14
REMARK    8  A    between atoms: C_14  and  C_15
REMARK                            x       y       z     vdW  Elec       q    Type
REMARK                         _______ _______ _______ _____ _____    ______ ____
ROOT
ATOM      1  O   UNL     1       5.173   3.247  19.631  0.00  0.00    +0.000 OA
ATOM      2  C   UNL     1       4.799   4.363  19.326  0.00  0.00    +0.000 C 
ENDROOT
BRANCH   2   3
ATOM      3  C   UNL     1       3.537   4.672  18.534  0.00  0.00    +0.000 C 
BRANCH   3   4
ATOM      4  C   UNL     1       2.859   5.963  18.908  0.00  0.00    +0.000 A 
ATOM      5  C   UNL     1       2.284   6.122  20.179  0.00  0.00    +0.000 A 
ATOM      6  C   UNL     1       1.681   7.330  20.546  0.00  0.00    +0.000 A 
ATOM      7  C   UNL     1       1.645   8.376  19.632  0.00  0.00    +0.000 A 
ATOM      8  C   UNL     1       2.193   8.217  18.362  0.00  0.00    +0.000 A 
ATOM      9  C   UNL     1       2.792   7.022  17.990  0.00  0.00    +0.000 A 
BRANCH   7  10
ATOM     10  O   UNL     1       1.088   9.585  19.940  0.00  0.00    +0.000 OA
ATOM     11  H   UNL     1       0.132   9.453  20.061  0.00  0.00    +0.000 HD
ENDBRANCH   7  10
BRANCH   8  12
ATOM     12  O   UNL     1       2.169   9.253  17.471  0.00  0.00    +0.000 OA
ATOM     13  H   UNL     1       2.898   9.057  16.849  0.00  0.00    +0.000 HD
ENDBRANCH   8  12
ENDBRANCH   3   4
ENDBRANCH   2   3
BRANCH   2  14
ATOM     14  O   UNL     1       5.490   5.518  19.572  0.00  0.00    +0.000 OA
BRANCH  14  15
ATOM     15  C   UNL     1       6.925   5.443  19.484  0.00  0.00    +0.000 C 
BRANCH  15  16
ATOM     16  C   UNL     1       7.330   6.230  18.236  0.00  0.00    +0.000 C 
BRANCH  16  17
ATOM     17  C   UNL     1       6.753   5.685  16.962  0.00  0.00    +0.000 A 
ATOM     18  C   UNL     1       7.150   4.425  16.490  0.00  0.00    +0.000 A 
ATOM     19  C   UNL     1       6.591   3.905  15.325  0.00  0.00    +0.000 A 
ATOM     20  C   UNL     1       5.643   4.644  14.629  0.00  0.00    +0.000 A 
ATOM     21  F   UNL     1       5.097   4.135  13.515  0.00  0.00    +0.000 F 
ATOM     22  C   UNL     1       5.248   5.901  15.071  0.00  0.00    +0.000 A 
ATOM     23  C   UNL     1       5.807   6.425  16.237  0.00  0.00    +0.000 A 
ENDBRANCH  16  17
ENDBRANCH  15  16
ENDBRANCH  14  15
ENDBRANCH   2  14
TORSDOF 8
ENDMDL
MODEL 9
REMARK VINA RESULT:      -6.7      1.949      4.753
REMARK  Name = 
REMARK  8 active torsions:
REMARK  status: ('A' for Active; 'I' for Inactive)
REMARK    1  A    between atoms: C_2  and  C_3
REMARK    2  A    between atoms: C_2  and  O_12
REMARK    3  A    between atoms: C_3  and  C_4
REMARK    4  A    between atoms: C_7  and  O_8
REMARK    5  A    between atoms: C_9  and  O_10
REMARK    6  A    between atoms: O_12  and  C_13
REMARK    7  A    between atoms: C_13  and  C_14
REMARK    8  A    between atoms: C_14  and  C_15
REMARK                            x       y       z     vdW  Elec       q    Type
REMARK                         _______ _______ _______ _____ _____    ______ ____
ROOT
ATOM      1  O   UNL     1       0.685   3.785  20.422  0.00  0.00    +0.000 OA
ATOM      2  C   UNL     1       1.658   4.287  19.893  0.00  0.00    +0.000 C 
ENDROOT
BRANCH   2   3
ATOM      3  C   UNL     1       2.446   5.461  20.458  0.00  0.00    +0.000 C 
BRANCH   3   4
ATOM      4  C   UNL     1       2.315   6.741  19.677  0.00  0.00    +0.000 A 
ATOM      5  C   UNL     1       2.984   6.898  18.452  0.00  0.00    +0.000 A 
ATOM      6  C   UNL     1       2.841   8.072  17.704  0.00  0.00    +0.000 A 
ATOM      7  C   UNL     1       2.036   9.094  18.191  0.00  0.00    +0.000 A 
ATOM      8  C   UNL     1       1.388   8.954  19.416  0.00  0.00    +0.000 A 
ATOM      9  C   UNL     1       1.526   7.793  20.164  0.00  0.00    +0.000 A 
BRANCH   7  10
ATOM     10  O   UNL     1       1.843  10.255  17.496  0.00  0.00    +0.000 OA
ATOM     11  H   UNL     1       2.405  10.941  17.896  0.00  0.00    +0.000 HD
ENDBRANCH   7  10
BRANCH   8  12
ATOM     12  O   UNL     1       0.586   9.955  19.885  0.00  0.00    +0.000 OA
ATOM     13  H   UNL     1       0.347   9.673  20.790  0.00  0.00    +0.000 HD
ENDBRANCH   8  12
ENDBRANCH   3   4
ENDBRANCH   2   3
BRANCH   2  14
ATOM     14  O   UNL     1       2.156   3.937  18.668  0.00  0.00    +0.000 OA
BRANCH  14  15
ATOM     15  C   UNL     1       2.937   2.728  18.611  0.00  0.00    +0.000 C 
BRANCH  15  16
ATOM     16  C   UNL     1       3.787   2.813  17.342  0.00  0.00    +0.000 C 
BRANCH  16  17
ATOM     17  C   UNL     1       4.759   3.957  17.338  0.00  0.00    +0.000 A 
ATOM     18  C   UNL     1       5.561   4.204  18.463  0.00  0.00    +0.000 A 
ATOM     19  C   UNL     1       6.486   5.245  18.449  0.00  0.00    +0.000 A 
ATOM     20  C   UNL     1       6.606   6.041  17.318  0.00  0.00    +0.000 A 
ATOM     21  F   UNL     1       7.507   7.034  17.302  0.00  0.00    +0.000 F 
ATOM     22  C   UNL     1       5.811   5.823  16.199  0.00  0.00    +0.000 A 
ATOM     23  C   UNL     1       4.882   4.782  16.210  0.00  0.00    +0.000 A 
ENDBRANCH  16  17
ENDBRANCH  15  16
ENDBRANCH  14  15
ENDBRANCH   2  14
TORSDOF 8
ENDMDL
