MODEL 1
REMARK VINA RESULT:      -8.4      0.000      0.000
REMARK  Name = 
REMARK  5 active torsions:
REMARK  status: ('A' for Active; 'I' for Inactive)
REMARK    1  A    between atoms: C_1  and  C_2
REMARK    2  A    between atoms: C_5  and  C_6
REMARK    3  A    between atoms: C_10  and  N_11
REMARK    4  A    between atoms: C_16  and  C_17
REMARK    5  A    between atoms: C_21  and  N_22
REMARK                            x       y       z     vdW  Elec       q    Type
REMARK                         _______ _______ _______ _____ _____    ______ ____
ROOT
ATOM      1  C   UNL     1       5.439   7.179  16.553  0.00  0.00    +0.000 C 
ATOM      2  C   UNL     1       6.069   6.214  17.567  0.00  0.00    +0.000 C 
ATOM      3  C   UNL     1       5.131   5.897  18.739  0.00  0.00    +0.000 C 
ATOM      4  C   UNL     1       3.920   5.122  18.291  0.00  0.00    +0.000 C 
ATOM      5  C   UNL     1       2.629   5.464  18.471  0.00  0.00    +0.000 C 
ATOM      6  C   UNL     1       4.199   3.907  17.459  0.00  0.00    +0.000 C 
ATOM      7  O   UNL     1       3.548   2.875  17.548  0.00  0.00    +0.000 OA
ATOM      8  C   UNL     1       5.287   4.105  16.448  0.00  0.00    +0.000 C 
ATOM      9  C   UNL     1       5.035   3.664  15.201  0.00  0.00    +0.000 C 
ATOM     10  C   UNL     1       6.486   4.901  16.897  0.00  0.00    +0.000 C 
ENDROOT
BRANCH   5  11
ATOM     11  C   UNL     1       2.221   6.730  19.090  0.00  0.00    +0.000 A 
ATOM     12  C   UNL     1       1.849   6.749  20.440  0.00  0.00    +0.000 A 
ATOM     13  C   UNL     1       1.287   7.899  20.995  0.00  0.00    +0.000 A 
ATOM     14  C   UNL     1       1.143   9.047  20.219  0.00  0.00    +0.000 A 
ATOM     15  C   UNL     1       1.618   9.080  18.900  0.00  0.00    +0.000 A 
ATOM     16  C   UNL     1       2.104   7.899  18.331  0.00  0.00    +0.000 A 
BRANCH  15  17
ATOM     17  N   UNL     1       1.389  10.209  18.105  0.00  0.00    +0.000 N 
ATOM     18  H   UNL     1       0.416  10.502  18.086  0.00  0.00    +0.000 HD
ATOM     19  H   UNL     1       2.013  10.984  18.317  0.00  0.00    +0.000 HD
ENDBRANCH  15  17
ENDBRANCH   5  11
BRANCH   9  20
ATOM     20  C   UNL     1       5.887   3.962  14.046  0.00  0.00    +0.000 A 
ATOM     21  C   UNL     1       5.714   3.296  12.832  0.00  0.00    +0.000 A 
ATOM     22  C   UNL     1       6.597   3.534  11.777  0.00  0.00    +0.000 A 
ATOM     23  C   UNL     1       7.641   4.452  11.928  0.00  0.00    +0.000 A 
ATOM     24  C   UNL     1       7.785   5.179  13.111  0.00  0.00    +0.000 A 
ATOM     25  C   UNL     1       6.932   4.890  14.180  0.00  0.00    +0.000 A 
BRANCH  24  26
ATOM     26  N   UNL     1       8.907   5.997  13.301  0.00  0.00    +0.000 N 
ATOM     27  H   UNL     1       9.118   6.591  12.506  0.00  0.00    +0.000 HD
ATOM     28  H   UNL     1       8.890   6.518  14.173  0.00  0.00    +0.000 HD
ENDBRANCH  24  26
ENDBRANCH   9  20
TORSDOF 4
ENDMDL
MODEL 2
REMARK VINA RESULT:      -8.1      4.761      8.767
REMARK  Name = 
REMARK  5 active torsions:
REMARK  status: ('A' for Active; 'I' for Inactive)
REMARK    1  A    between atoms: C_1  and  C_2
REMARK    2  A    between atoms: C_5  and  C_6
REMARK    3  A    between atoms: C_10  and  N_11
REMARK    4  A    between atoms: C_16  and  C_17
REMARK    5  A    between atoms: C_21  and  N_22
REMARK                            x       y       z     vdW  Elec       q    Type
REMARK                         _______ _______ _______ _____ _____    ______ ____
ROOT
ATOM      1  C   UNL     1      -0.369   7.565  20.934  0.00  0.00    +0.000 C 
ATOM      2  C   UNL     1       0.891   8.422  21.120  0.00  0.00    +0.000 C 
ATOM      3  C   UNL     1       2.170   7.686  20.699  0.00  0.00    +0.000 C 
ATOM      4  C   UNL     1       2.198   7.419  19.218  0.00  0.00    +0.000 C 
ATOM      5  C   UNL     1       2.338   6.221  18.615  0.00  0.00    +0.000 C 
ATOM      6  C   UNL     1       1.923   8.601  18.339  0.00  0.00    +0.000 C 
ATOM      7  O   UNL     1       2.493   8.785  17.272  0.00  0.00    +0.000 OA
ATOM      8  C   UNL     1       0.826   9.486  18.845  0.00  0.00    +0.000 C 
ATOM      9  C   UNL     1      -0.097   9.874  17.944  0.00  0.00    +0.000 C 
ATOM     10  C   UNL     1       0.792   9.733  20.332  0.00  0.00    +0.000 C 
ENDROOT
BRANCH   5  11
ATOM     11  C   UNL     1       2.411   4.960  19.361  0.00  0.00    +0.000 A 
ATOM     12  C   UNL     1       1.381   4.623  20.249  0.00  0.00    +0.000 A 
ATOM     13  C   UNL     1       1.520   3.525  21.097  0.00  0.00    +0.000 A 
ATOM     14  C   UNL     1       2.662   2.730  21.027  0.00  0.00    +0.000 A 
ATOM     15  C   UNL     1       3.648   2.986  20.063  0.00  0.00    +0.000 A 
ATOM     16  C   UNL     1       3.537   4.135  19.275  0.00  0.00    +0.000 A 
BRANCH  15  17
ATOM     17  N   UNL     1       4.830   2.235  20.061  0.00  0.00    +0.000 N 
ATOM     18  H   UNL     1       5.643   2.755  20.381  0.00  0.00    +0.000 HD
ATOM     19  H   UNL     1       4.740   1.342  20.539  0.00  0.00    +0.000 HD
ENDBRANCH  15  17
ENDBRANCH   5  11
BRANCH   9  20
ATOM     20  C   UNL     1      -1.344  10.556  18.300  0.00  0.00    +0.000 A 
ATOM     21  C   UNL     1      -2.578  10.084  17.849  0.00  0.00    +0.000 A 
ATOM     22  C   UNL     1      -3.741  10.805  18.129  0.00  0.00    +0.000 A 
ATOM     23  C   UNL     1      -3.674  11.985  18.875  0.00  0.00    +0.000 A 
ATOM     24  C   UNL     1      -2.458  12.432  19.394  0.00  0.00    +0.000 A 
ATOM     25  C   UNL     1      -1.293  11.736  19.059  0.00  0.00    +0.000 A 
BRANCH  24  26
ATOM     26  N   UNL     1      -2.380  13.681  20.027  0.00  0.00    +0.000 N 
ATOM     27  H   UNL     1      -2.276  13.620  21.035  0.00  0.00    +0.000 HD
ATOM     28  H   UNL     1      -1.699  14.309  19.610  0.00  0.00    +0.000 HD
ENDBRANCH  24  26
ENDBRANCH   9  20
TORSDOF 4
ENDMDL
MODEL 3
REMARK VINA RESULT:      -7.9      4.842      8.902
REMARK  Name = 
REMARK  5 active torsions:
REMARK  status: ('A' for Active; 'I' for Inactive)
REMARK    1  A    between atoms: C_1  and  C_2
REMARK    2  A    between atoms: C_5  and  C_6
REMARK    3  A    between atoms: C_10  and  N_11
REMARK    4  A    between atoms: C_16  and  C_17
REMARK    5  A    between atoms: C_21  and  N_22
REMARK                            x       y       z     vdW  Elec       q    Type
REMARK                         _______ _______ _______ _____ _____    ______ ____
ROOT
ATOM      1  C   UNL     1      -0.323   7.726  21.026  0.00  0.00    +0.000 C 
ATOM      2  C   UNL     1       0.982   8.519  21.175  0.00  0.00    +0.000 C 
ATOM      3  C   UNL     1       2.206   7.734  20.687  0.00  0.00    +0.000 C 
ATOM      4  C   UNL     1       2.161   7.495  19.202  0.00  0.00    +0.000 C 
ATOM      5  C   UNL     1       2.219   6.306  18.571  0.00  0.00    +0.000 C 
ATOM      6  C   UNL     1       1.907   8.707  18.357  0.00  0.00    +0.000 C 
ATOM      7  O   UNL     1       2.440   8.886  17.271  0.00  0.00    +0.000 OA
ATOM      8  C   UNL     1       0.874   9.632  18.926  0.00  0.00    +0.000 C 
ATOM      9  C   UNL     1      -0.065  10.081  18.071  0.00  0.00    +0.000 C 
ATOM     10  C   UNL     1       0.913   9.849  20.417  0.00  0.00    +0.000 C 
ENDROOT
BRANCH   5  11
ATOM     11  C   UNL     1       2.263   5.027  19.290  0.00  0.00    +0.000 A 
ATOM     12  C   UNL     1       1.187   4.658  20.107  0.00  0.00    +0.000 A 
ATOM     13  C   UNL     1       1.288   3.541  20.935  0.00  0.00    +0.000 A 
ATOM     14  C   UNL     1       2.441   2.760  20.913  0.00  0.00    +0.000 A 
ATOM     15  C   UNL     1       3.479   3.049  20.016  0.00  0.00    +0.000 A 
ATOM     16  C   UNL     1       3.401   4.216  19.250  0.00  0.00    +0.000 A 
BRANCH  15  17
ATOM     17  N   UNL     1       4.668   2.311  20.065  0.00  0.00    +0.000 N 
ATOM     18  H   UNL     1       4.659   1.485  19.472  0.00  0.00    +0.000 HD
ATOM     19  H   UNL     1       5.499   2.877  19.912  0.00  0.00    +0.000 HD
ENDBRANCH  15  17
ENDBRANCH   5  11
BRANCH   9  20
ATOM     20  C   UNL     1      -1.263  10.813  18.492  0.00  0.00    +0.000 A 
ATOM     21  C   UNL     1      -1.209  11.749  19.526  0.00  0.00    +0.000 A 
ATOM     22  C   UNL     1      -2.381  12.367  19.966  0.00  0.00    +0.000 A 
ATOM     23  C   UNL     1      -3.604  12.064  19.360  0.00  0.00    +0.000 A 
ATOM     24  C   UNL     1      -3.665  11.185  18.277  0.00  0.00    +0.000 A 
ATOM     25  C   UNL     1      -2.496  10.529  17.884  0.00  0.00    +0.000 A 
BRANCH  24  26
ATOM     26  N   UNL     1      -4.908  10.789  17.763  0.00  0.00    +0.000 N 
ATOM     27  H   UNL     1      -4.931  10.737  16.749  0.00  0.00    +0.000 HD
ATOM     28  H   UNL     1      -5.281   9.950  18.197  0.00  0.00    +0.000 HD
ENDBRANCH  24  26
ENDBRANCH   9  20
TORSDOF 4
ENDMDL
MODEL 4
REMARK VINA RESULT:      -7.8      0.936      1.354
REMARK  Name = 
REMARK  5 active torsions:
REMARK  status: ('A' for Active; 'I' for Inactive)
REMARK    1  A    between atoms: C_1  and  C_2
REMARK    2  A    between atoms: C_5  and  C_6
REMARK    3  A    between atoms: C_10  and  N_11
REMARK    4  A    between atoms: C_16  and  C_17
REMARK    5  A    between atoms: C_21  and  N_22
REMARK                            x       y       z     vdW  Elec       q    Type
REMARK                         _______ _______ _______ _____ _____    ______ ____
ROOT
ATOM      1  C   UNL     1       5.181   7.349  16.221  0.00  0.00    +0.000 C 
ATOM      2  C   UNL     1       5.924   6.565  17.312  0.00  0.00    +0.000 C 
ATOM      3  C   UNL     1       5.043   6.280  18.534  0.00  0.00    +0.000 C 
ATOM      4  C   UNL     1       3.912   5.343  18.201  0.00  0.00    +0.000 C 
ATOM      5  C   UNL     1       2.596   5.569  18.380  0.00  0.00    +0.000 C 
ATOM      6  C   UNL     1       4.302   4.082  17.491  0.00  0.00    +0.000 C 
ATOM      7  O   UNL     1       3.764   3.004  17.704  0.00  0.00    +0.000 OA
ATOM      8  C   UNL     1       5.347   4.282  16.437  0.00  0.00    +0.000 C 
ATOM      9  C   UNL     1       5.122   3.689  15.249  0.00  0.00    +0.000 C 
ATOM     10  C   UNL     1       6.465   5.238  16.770  0.00  0.00    +0.000 C 
ENDROOT
BRANCH   5  11
ATOM     11  C   UNL     1       2.069   6.845  18.876  0.00  0.00    +0.000 A 
ATOM     12  C   UNL     1       1.839   7.893  17.976  0.00  0.00    +0.000 A 
ATOM     13  C   UNL     1       1.514   9.164  18.450  0.00  0.00    +0.000 A 
ATOM     14  C   UNL     1       1.368   9.380  19.818  0.00  0.00    +0.000 A 
ATOM     15  C   UNL     1       1.480   8.315  20.723  0.00  0.00    +0.000 A 
ATOM     16  C   UNL     1       1.885   7.066  20.245  0.00  0.00    +0.000 A 
BRANCH  15  17
ATOM     17  N   UNL     1       1.418   8.562  22.100  0.00  0.00    +0.000 N 
ATOM     18  H   UNL     1       0.692   8.034  22.576  0.00  0.00    +0.000 HD
ATOM     19  H   UNL     1       2.318   8.471  22.566  0.00  0.00    +0.000 HD
ENDBRANCH  15  17
ENDBRANCH   5  11
BRANCH   9  20
ATOM     20  C   UNL     1       5.921   3.948  14.048  0.00  0.00    +0.000 A 
ATOM     21  C   UNL     1       5.700   3.235  12.868  0.00  0.00    +0.000 A 
ATOM     22  C   UNL     1       6.534   3.439  11.767  0.00  0.00    +0.000 A 
ATOM     23  C   UNL     1       7.575   4.369  11.838  0.00  0.00    +0.000 A 
ATOM     24  C   UNL     1       7.765   5.142  12.984  0.00  0.00    +0.000 A 
ATOM     25  C   UNL     1       6.962   4.888  14.100  0.00  0.00    +0.000 A 
BRANCH  24  26
ATOM     26  N   UNL     1       8.888   5.974  13.094  0.00  0.00    +0.000 N 
ATOM     27  H   UNL     1       9.739   5.560  12.729  0.00  0.00    +0.000 HD
ATOM     28  H   UNL     1       8.736   6.914  12.739  0.00  0.00    +0.000 HD
ENDBRANCH  24  26
ENDBRANCH   9  20
TORSDOF 4
ENDMDL
MODEL 5
REMARK VINA RESULT:      -7.7      5.081      9.080
REMARK  Name = 
REMARK  5 active torsions:
REMARK  status: ('A' for Active; 'I' for Inactive)
REMARK    1  A    between atoms: C_1  and  C_2
REMARK    2  A    between atoms: C_5  and  C_6
REMARK    3  A    between atoms: C_10  and  N_11
REMARK    4  A    between atoms: C_16  and  C_17
REMARK    5  A    between atoms: C_21  and  N_22
REMARK                            x       y       z     vdW  Elec       q    Type
REMARK                         _______ _______ _______ _____ _____    ______ ____
ROOT
ATOM      1  C   UNL     1      -0.602   7.795  20.879  0.00  0.00    +0.000 C 
ATOM      2  C   UNL     1       0.499   8.834  21.128  0.00  0.00    +0.000 C 
ATOM      3  C   UNL     1       1.891   8.322  20.738  0.00  0.00    +0.000 C 
ATOM      4  C   UNL     1       2.009   8.102  19.254  0.00  0.00    +0.000 C 
ATOM      5  C   UNL     1       2.357   6.959  18.631  0.00  0.00    +0.000 C 
ATOM      6  C   UNL     1       1.579   9.250  18.391  0.00  0.00    +0.000 C 
ATOM      7  O   UNL     1       2.146   9.550  17.350  0.00  0.00    +0.000 OA
ATOM      8  C   UNL     1       0.339   9.936  18.877  0.00  0.00    +0.000 C 
ATOM      9  C   UNL     1      -0.604  10.197  17.951  0.00  0.00    +0.000 C 
ATOM     10  C   UNL     1       0.218  10.134  20.366  0.00  0.00    +0.000 C 
ENDROOT
BRANCH   5  11
ATOM     11  C   UNL     1       2.606   5.705  19.352  0.00  0.00    +0.000 A 
ATOM     12  C   UNL     1       3.905   5.186  19.406  0.00  0.00    +0.000 A 
ATOM     13  C   UNL     1       4.129   3.912  19.926  0.00  0.00    +0.000 A 
ATOM     14  C   UNL     1       3.065   3.173  20.439  0.00  0.00    +0.000 A 
ATOM     15  C   UNL     1       1.777   3.725  20.498  0.00  0.00    +0.000 A 
ATOM     16  C   UNL     1       1.551   4.969  19.901  0.00  0.00    +0.000 A 
BRANCH  15  17
ATOM     17  N   UNL     1       0.702   2.941  20.934  0.00  0.00    +0.000 N 
ATOM     18  H   UNL     1       0.984   2.135  21.485  0.00  0.00    +0.000 HD
ATOM     19  H   UNL     1      -0.026   3.480  21.397  0.00  0.00    +0.000 HD
ENDBRANCH  15  17
ENDBRANCH   5  11
BRANCH   9  20
ATOM     20  C   UNL     1      -1.955  10.664  18.276  0.00  0.00    +0.000 A 
ATOM     21  C   UNL     1      -3.082  10.042  17.737  0.00  0.00    +0.000 A 
ATOM     22  C   UNL     1      -4.352  10.563  17.993  0.00  0.00    +0.000 A 
ATOM     23  C   UNL     1      -4.497  11.693  18.802  0.00  0.00    +0.000 A 
ATOM     24  C   UNL     1      -3.387  12.285  19.407  0.00  0.00    +0.000 A 
ATOM     25  C   UNL     1      -2.116  11.791  19.098  0.00  0.00    +0.000 A 
BRANCH  24  26
ATOM     26  N   UNL     1      -3.527  13.491  20.108  0.00  0.00    +0.000 N 
ATOM     27  H   UNL     1      -4.283  13.483  20.786  0.00  0.00    +0.000 HD
ATOM     28  H   UNL     1      -2.659  13.835  20.508  0.00  0.00    +0.000 HD
ENDBRANCH  24  26
ENDBRANCH   9  20
TORSDOF 4
ENDMDL
MODEL 6
REMARK VINA RESULT:      -7.4      4.923      6.192
REMARK  Name = 
REMARK  5 active torsions:
REMARK  status: ('A' for Active; 'I' for Inactive)
REMARK    1  A    between atoms: C_1  and  C_2
REMARK    2  A    between atoms: C_5  and  C_6
REMARK    3  A    between atoms: C_10  and  N_11
REMARK    4  A    between atoms: C_16  and  C_17
REMARK    5  A    between atoms: C_21  and  N_22
REMARK                            x       y       z     vdW  Elec       q    Type
REMARK                         _______ _______ _______ _____ _____    ______ ____
ROOT
ATOM      1  C   UNL     1       1.118   7.282  17.355  0.00  0.00    +0.000 C 
ATOM      2  C   UNL     1       2.329   7.969  18.001  0.00  0.00    +0.000 C 
ATOM      3  C   UNL     1       1.950   9.263  18.733  0.00  0.00    +0.000 C 
ATOM      4  C   UNL     1       1.078   8.993  19.930  0.00  0.00    +0.000 C 
ATOM      5  C   UNL     1      -0.141   9.511  20.176  0.00  0.00    +0.000 C 
ATOM      6  C   UNL     1       1.582   7.947  20.877  0.00  0.00    +0.000 C 
ATOM      7  O   UNL     1       1.449   8.027  22.091  0.00  0.00    +0.000 OA
ATOM      8  C   UNL     1       2.184   6.756  20.196  0.00  0.00    +0.000 C 
ATOM      9  C   UNL     1       1.803   5.547  20.652  0.00  0.00    +0.000 C 
ATOM     10  C   UNL     1       3.039   7.034  18.985  0.00  0.00    +0.000 C 
ENDROOT
BRANCH   5  11
ATOM     11  C   UNL     1      -0.837  10.389  19.228  0.00  0.00    +0.000 A 
ATOM     12  C   UNL     1      -1.697   9.831  18.274  0.00  0.00    +0.000 A 
ATOM     13  C   UNL     1      -2.222  10.625  17.255  0.00  0.00    +0.000 A 
ATOM     14  C   UNL     1      -1.932  11.987  17.214  0.00  0.00    +0.000 A 
ATOM     15  C   UNL     1      -1.168  12.583  18.228  0.00  0.00    +0.000 A 
ATOM     16  C   UNL     1      -0.581  11.764  19.198  0.00  0.00    +0.000 A 
BRANCH  15  17
ATOM     17  N   UNL     1      -0.810  13.933  18.129  0.00  0.00    +0.000 N 
ATOM     18  H   UNL     1      -1.560  14.529  17.789  0.00  0.00    +0.000 HD
ATOM     19  H   UNL     1      -0.391  14.301  18.979  0.00  0.00    +0.000 HD
ENDBRANCH  15  17
ENDBRANCH   5  11
BRANCH   9  20
ATOM     20  C   UNL     1       2.120   4.287  19.975  0.00  0.00    +0.000 A 
ATOM     21  C   UNL     1       1.167   3.626  19.199  0.00  0.00    +0.000 A 
ATOM     22  C   UNL     1       1.468   2.383  18.639  0.00  0.00    +0.000 A 
ATOM     23  C   UNL     1       2.726   1.809  18.839  0.00  0.00    +0.000 A 
ATOM     24  C   UNL     1       3.715   2.488  19.552  0.00  0.00    +0.000 A 
ATOM     25  C   UNL     1       3.385   3.705  20.157  0.00  0.00    +0.000 A 
BRANCH  24  26
ATOM     26  N   UNL     1       4.926   1.851  19.857  0.00  0.00    +0.000 N 
ATOM     27  H   UNL     1       5.707   2.490  19.965  0.00  0.00    +0.000 HD
ATOM     28  H   UNL     1       4.859   1.195  20.631  0.00  0.00    +0.000 HD
ENDBRANCH  24  26
ENDBRANCH   9  20
TORSDOF 4
ENDMDL
MODEL 7
REMARK VINA RESULT:      -7.4      5.197      8.989
REMARK  Name = 
REMARK  5 active torsions:
REMARK  status: ('A' for Active; 'I' for Inactive)
REMARK    1  A    between atoms: C_1  and  C_2
REMARK    2  A    between atoms: C_5  and  C_6
REMARK    3  A    between atoms: C_10  and  N_11
REMARK    4  A    between atoms: C_16  and  C_17
REMARK    5  A    between atoms: C_21  and  N_22
REMARK                            x       y       z     vdW  Elec       q    Type
REMARK                         _______ _______ _______ _____ _____    ______ ____
ROOT
ATOM      1  C   UNL     1       1.759  10.383  17.902  0.00  0.00    +0.000 C 
ATOM      2  C   UNL     1       0.290  10.418  18.345  0.00  0.00    +0.000 C 
ATOM      3  C   UNL     1      -0.078   9.239  19.254  0.00  0.00    +0.000 C 
ATOM      4  C   UNL     1       0.640   9.307  20.575  0.00  0.00    +0.000 C 
ATOM      5  C   UNL     1       1.433   8.361  21.114  0.00  0.00    +0.000 C 
ATOM      6  C   UNL     1       0.546  10.616  21.299  0.00  0.00    +0.000 C 
ATOM      7  O   UNL     1       0.454  10.700  22.516  0.00  0.00    +0.000 OA
ATOM      8  C   UNL     1       0.665  11.810  20.402  0.00  0.00    +0.000 C 
ATOM      9  C   UNL     1       1.492  12.791  20.814  0.00  0.00    +0.000 C 
ATOM     10  C   UNL     1      -0.039  11.727  19.071  0.00  0.00    +0.000 C 
ENDROOT
BRANCH   5  11
ATOM     11  C   UNL     1       1.772   7.115  20.414  0.00  0.00    +0.000 A 
ATOM     12  C   UNL     1       2.545   7.168  19.247  0.00  0.00    +0.000 A 
ATOM     13  C   UNL     1       2.722   6.022  18.473  0.00  0.00    +0.000 A 
ATOM     14  C   UNL     1       2.172   4.810  18.887  0.00  0.00    +0.000 A 
ATOM     15  C   UNL     1       1.495   4.717  20.111  0.00  0.00    +0.000 A 
ATOM     16  C   UNL     1       1.254   5.887  20.838  0.00  0.00    +0.000 A 
BRANCH  15  17
ATOM     17  N   UNL     1       0.873   3.516  20.473  0.00  0.00    +0.000 N 
ATOM     18  H   UNL     1       1.173   2.719  19.919  0.00  0.00    +0.000 HD
ATOM     19  H   UNL     1       0.922   3.323  21.471  0.00  0.00    +0.000 HD
ENDBRANCH  15  17
ENDBRANCH   5  11
BRANCH   9  20
ATOM     20  C   UNL     1       1.892  13.923  19.974  0.00  0.00    +0.000 A 
ATOM     21  C   UNL     1       1.097  15.067  19.880  0.00  0.00    +0.000 A 
ATOM     22  C   UNL     1       1.458  16.092  19.003  0.00  0.00    +0.000 A 
ATOM     23  C   UNL     1       2.621  15.984  18.236  0.00  0.00    +0.000 A 
ATOM     24  C   UNL     1       3.465  14.880  18.372  0.00  0.00    +0.000 A 
ATOM     25  C   UNL     1       3.065  13.833  19.207  0.00  0.00    +0.000 A 
BRANCH  24  26
ATOM     26  N   UNL     1       4.557  14.719  17.507  0.00  0.00    +0.000 N 
ATOM     27  H   UNL     1       5.121  13.901  17.712  0.00  0.00    +0.000 HD
ATOM     28  H   UNL     1       4.311  14.776  16.523  0.00  0.00    +0.000 HD
ENDBRANCH  24  26
ENDBRANCH   9  20
TORSDOF 4
ENDMDL
MODEL 8
REMARK VINA RESULT:      -7.3      3.740      6.454
REMARK  Name = 
REMARK  5 active torsions:
REMARK  status: ('A' for Active; 'I' for Inactive)
REMARK    1  A    between atoms: C_1  and  C_2
REMARK    2  A    between atoms: C_5  and  C_6
REMARK    3  A    between atoms: C_10  and  N_11
REMARK    4  A    between atoms: C_16  and  C_17
REMARK    5  A    between atoms: C_21  and  N_22
REMARK                            x       y       z     vdW  Elec       q    Type
REMARK                         _______ _______ _______ _____ _____    ______ ____
ROOT
ATOM      1  C   UNL     1       4.461   7.346  17.695  0.00  0.00    +0.000 C 
ATOM      2  C   UNL     1       5.172   6.685  16.506  0.00  0.00    +0.000 C 
ATOM      3  C   UNL     1       6.661   7.046  16.437  0.00  0.00    +0.000 C 
ATOM      4  C   UNL     1       7.427   6.480  17.603  0.00  0.00    +0.000 C 
ATOM      5  C   UNL     1       8.184   7.166  18.482  0.00  0.00    +0.000 C 
ATOM      6  C   UNL     1       7.222   5.020  17.868  0.00  0.00    +0.000 C 
ATOM      7  O   UNL     1       8.118   4.278  18.246  0.00  0.00    +0.000 OA
ATOM      8  C   UNL     1       5.800   4.573  17.712  0.00  0.00    +0.000 C 
ATOM      9  C   UNL     1       5.306   3.791  18.691  0.00  0.00    +0.000 C 
ATOM     10  C   UNL     1       5.033   5.160  16.554  0.00  0.00    +0.000 C 
ENDROOT
BRANCH   5  11
ATOM     11  C   UNL     1       8.304   8.629  18.456  0.00  0.00    +0.000 A 
ATOM     12  C   UNL     1       7.639   9.358  17.462  0.00  0.00    +0.000 A 
ATOM     13  C   UNL     1       7.886  10.722  17.312  0.00  0.00    +0.000 A 
ATOM     14  C   UNL     1       8.757  11.372  18.184  0.00  0.00    +0.000 A 
ATOM     15  C   UNL     1       9.339  10.680  19.255  0.00  0.00    +0.000 A 
ATOM     16  C   UNL     1       9.149   9.298  19.347  0.00  0.00    +0.000 A 
BRANCH  15  17
ATOM     17  N   UNL     1      10.280  11.322  20.070  0.00  0.00    +0.000 N 
ATOM     18  H   UNL     1      11.107  11.635  19.569  0.00  0.00    +0.000 HD
ATOM     19  H   UNL     1       9.879  12.065  20.637  0.00  0.00    +0.000 HD
ENDBRANCH  15  17
ENDBRANCH   5  11
BRANCH   9  20
ATOM     20  C   UNL     1       3.888   3.440  18.813  0.00  0.00    +0.000 A 
ATOM     21  C   UNL     1       3.333   2.409  18.052  0.00  0.00    +0.000 A 
ATOM     22  C   UNL     1       1.962   2.156  18.122  0.00  0.00    +0.000 A 
ATOM     23  C   UNL     1       1.149   2.917  18.966  0.00  0.00    +0.000 A 
ATOM     24  C   UNL     1       1.699   3.903  19.787  0.00  0.00    +0.000 A 
ATOM     25  C   UNL     1       3.062   4.188  19.666  0.00  0.00    +0.000 A 
BRANCH  24  26
ATOM     26  N   UNL     1       0.862   4.747  20.531  0.00  0.00    +0.000 N 
ATOM     27  H   UNL     1      -0.026   4.940  20.079  0.00  0.00    +0.000 HD
ATOM     28  H   UNL     1       0.745   4.458  21.498  0.00  0.00    +0.000 HD
ENDBRANCH  24  26
ENDBRANCH   9  20
TORSDOF 4
ENDMDL
MODEL 9
REMARK VINA RESULT:      -7.3      5.235      9.015
REMARK  Name = 
REMARK  5 active torsions:
REMARK  status: ('A' for Active; 'I' for Inactive)
REMARK    1  A    between atoms: C_1  and  C_2
REMARK    2  A    between atoms: C_5  and  C_6
REMARK    3  A    between atoms: C_10  and  N_11
REMARK    4  A    between atoms: C_16  and  C_17
REMARK    5  A    between atoms: C_21  and  N_22
REMARK                            x       y       z     vdW  Elec       q    Type
REMARK                         _______ _______ _______ _____ _____    ______ ____
ROOT
ATOM      1  C   UNL     1      -0.464   7.694  20.893  0.00  0.00    +0.000 C 
ATOM      2  C   UNL     1       0.897   8.348  21.166  0.00  0.00    +0.000 C 
ATOM      3  C   UNL     1       2.066   7.530  20.604  0.00  0.00    +0.000 C 
ATOM      4  C   UNL     1       2.045   7.487  19.100  0.00  0.00    +0.000 C 
ATOM      5  C   UNL     1       2.025   6.387  18.322  0.00  0.00    +0.000 C 
ATOM      6  C   UNL     1       1.916   8.813  18.414  0.00  0.00    +0.000 C 
ATOM      7  O   UNL     1       2.493   9.083  17.369  0.00  0.00    +0.000 OA
ATOM      8  C   UNL     1       0.946   9.743  19.078  0.00  0.00    +0.000 C 
ATOM      9  C   UNL     1       0.071  10.374  18.271  0.00  0.00    +0.000 C 
ATOM     10  C   UNL     1       0.959   9.765  20.585  0.00  0.00    +0.000 C 
ENDROOT
BRANCH   5  11
ATOM     11  C   UNL     1       1.943   5.028  18.871  0.00  0.00    +0.000 A 
ATOM     12  C   UNL     1       1.486   3.982  18.059  0.00  0.00    +0.000 A 
ATOM     13  C   UNL     1       1.229   2.728  18.611  0.00  0.00    +0.000 A 
ATOM     14  C   UNL     1       1.475   2.499  19.964  0.00  0.00    +0.000 A 
ATOM     15  C   UNL     1       2.042   3.502  20.763  0.00  0.00    +0.000 A 
ATOM     16  C   UNL     1       2.219   4.777  20.219  0.00  0.00    +0.000 A 
BRANCH  15  17
ATOM     17  N   UNL     1       2.203   3.288  22.138  0.00  0.00    +0.000 N 
ATOM     18  H   UNL     1       1.425   2.793  22.566  0.00  0.00    +0.000 HD
ATOM     19  H   UNL     1       3.097   2.867  22.377  0.00  0.00    +0.000 HD
ENDBRANCH  15  17
ENDBRANCH   5  11
BRANCH   9  20
ATOM     20  C   UNL     1      -1.074  11.146  18.760  0.00  0.00    +0.000 A 
ATOM     21  C   UNL     1      -0.923  12.097  19.772  0.00  0.00    +0.000 A 
ATOM     22  C   UNL     1      -2.046  12.753  20.280  0.00  0.00    +0.000 A 
ATOM     23  C   UNL     1      -3.315  12.475  19.766  0.00  0.00    +0.000 A 
ATOM     24  C   UNL     1      -3.475  11.581  18.706  0.00  0.00    +0.000 A 
ATOM     25  C   UNL     1      -2.353  10.886  18.244  0.00  0.00    +0.000 A 
BRANCH  24  26
ATOM     26  N   UNL     1      -4.760  11.211  18.286  0.00  0.00    +0.000 N 
ATOM     27  H   UNL     1      -5.294  10.717  18.994  0.00  0.00    +0.000 HD
ATOM     28  H   UNL     1      -5.289  11.972  17.869  0.00  0.00    +0.000 HD
ENDBRANCH  24  26
ENDBRANCH   9  20
TORSDOF 4
ENDMDL
