MODEL 1
REMARK VINA RESULT:      -7.7      0.000      0.000
REMARK  Name = 
REMARK  2 active torsions:
REMARK  status: ('A' for Active; 'I' for Inactive)
REMARK    1  A    between atoms: C_7  and  C_8
REMARK    2  A    between atoms: C_8  and  N_9
REMARK                            x       y       z     vdW  Elec       q    Type
REMARK                         _______ _______ _______ _____ _____    ______ ____
ROOT
ATOM      1  C   UNL     1       5.069   4.021  18.010  0.00  0.00    +0.000 C 
ENDROOT
BRANCH   1   8
ATOM      2 CL   UNL     1       7.425   6.119  18.192  0.00  0.00    +0.000 Cl
ATOM      3  C   UNL     1       6.915   5.305  16.756  0.00  0.00    +0.000 A 
ATOM      4  C   UNL     1       7.530   5.673  15.553  0.00  0.00    +0.000 A 
ATOM      5  C   UNL     1       7.158   5.001  14.408  0.00  0.00    +0.000 A 
ATOM      6  C   UNL     1       6.249   3.974  14.435  0.00  0.00    +0.000 A 
ATOM      7  C   UNL     1       5.623   3.591  15.601  0.00  0.00    +0.000 A 
ATOM      8  C   UNL     1       5.920   4.298  16.786  0.00  0.00    +0.000 A 
ATOM      9  O   UNL     1       6.033   3.433  13.208  0.00  0.00    +0.000 OA
ATOM     10  C   UNL     1       6.907   4.246  12.397  0.00  0.00    +0.000 C 
ATOM     11  O   UNL     1       7.608   5.258  13.152  0.00  0.00    +0.000 OA
ENDBRANCH   1   8
BRANCH   1  12
ATOM     12  N   UNL     1       3.630   3.870  17.737  0.00  0.00    +0.000 NA
ATOM     13  C   UNL     1       2.835   5.002  18.207  0.00  0.00    +0.000 C 
ATOM     14  C   UNL     1       2.854   5.282  19.724  0.00  0.00    +0.000 C 
ATOM     15  C   UNL     1       2.347   4.175  20.665  0.00  0.00    +0.000 C 
ATOM     16  C   UNL     1       0.879   3.832  20.476  0.00  0.00    +0.000 C 
ATOM     17  C   UNL     1       0.872   2.746  19.413  0.00  0.00    +0.000 C 
ATOM     18  C   UNL     1       2.322   2.252  19.332  0.00  0.00    +0.000 C 
ATOM     19  C   UNL     1       3.005   2.557  17.969  0.00  0.00    +0.000 C 
ATOM     20  N   UNL     1       2.997   2.877  20.479  0.00  0.00    +0.000 NA
ATOM     21  H   UNL     1       3.987   2.990  20.281  0.00  0.00    +0.000 HD
ENDBRANCH   1  12
TORSDOF 2
ENDMDL
MODEL 2
REMARK VINA RESULT:      -7.4      1.127      1.615
REMARK  Name = 
REMARK  2 active torsions:
REMARK  status: ('A' for Active; 'I' for Inactive)
REMARK    1  A    between atoms: C_7  and  C_8
REMARK    2  A    between atoms: C_8  and  N_9
REMARK                            x       y       z     vdW  Elec       q    Type
REMARK                         _______ _______ _______ _____ _____    ______ ____
ROOT
ATOM      1  C   UNL     1       3.599   4.334  17.360  0.00  0.00    +0.000 C 
ENDROOT
BRANCH   1   8
ATOM      2 CL   UNL     1       6.035   5.858  18.676  0.00  0.00    +0.000 Cl
ATOM      3  C   UNL     1       5.973   5.281  17.049  0.00  0.00    +0.000 A 
ATOM      4  C   UNL     1       7.050   5.596  16.211  0.00  0.00    +0.000 A 
ATOM      5  C   UNL     1       7.028   5.106  14.923  0.00  0.00    +0.000 A 
ATOM      6  C   UNL     1       6.015   4.299  14.473  0.00  0.00    +0.000 A 
ATOM      7  C   UNL     1       4.939   3.975  15.270  0.00  0.00    +0.000 A 
ATOM      8  C   UNL     1       4.883   4.512  16.574  0.00  0.00    +0.000 A 
ATOM      9  O   UNL     1       6.189   3.909  13.184  0.00  0.00    +0.000 OA
ATOM     10  C   UNL     1       7.431   4.573  12.866  0.00  0.00    +0.000 C 
ATOM     11  O   UNL     1       7.957   5.353  13.962  0.00  0.00    +0.000 OA
ENDBRANCH   1   8
BRANCH   1  12
ATOM     12  N   UNL     1       3.602   3.193  18.291  0.00  0.00    +0.000 NA
ATOM     13  C   UNL     1       2.359   2.426  18.263  0.00  0.00    +0.000 C 
ATOM     14  C   UNL     1       1.072   3.174  18.666  0.00  0.00    +0.000 C 
ATOM     15  C   UNL     1       1.000   3.770  20.082  0.00  0.00    +0.000 C 
ATOM     16  C   UNL     1       1.061   2.731  21.190  0.00  0.00    +0.000 C 
ATOM     17  C   UNL     1       2.543   2.566  21.480  0.00  0.00    +0.000 C 
ATOM     18  C   UNL     1       3.220   3.773  20.819  0.00  0.00    +0.000 C 
ATOM     19  C   UNL     1       4.158   3.389  19.641  0.00  0.00    +0.000 C 
ATOM     20  N   UNL     1       2.114   4.656  20.424  0.00  0.00    +0.000 NA
ATOM     21  H   UNL     1       2.388   5.222  19.626  0.00  0.00    +0.000 HD
ENDBRANCH   1  12
TORSDOF 2
ENDMDL
MODEL 3
REMARK VINA RESULT:      -7.4      0.956      1.040
REMARK  Name = 
REMARK  2 active torsions:
REMARK  status: ('A' for Active; 'I' for Inactive)
REMARK    1  A    between atoms: C_7  and  C_8
REMARK    2  A    between atoms: C_8  and  N_9
REMARK                            x       y       z     vdW  Elec       q    Type
REMARK                         _______ _______ _______ _____ _____    ______ ____
ROOT
ATOM      1  C   UNL     1       5.220   4.373  18.730  0.00  0.00    +0.000 C 
ENDROOT
BRANCH   1   8
ATOM      2 CL   UNL     1       7.653   6.385  18.584  0.00  0.00    +0.000 Cl
ATOM      3  C   UNL     1       7.000   5.501  17.251  0.00  0.00    +0.000 A 
ATOM      4  C   UNL     1       7.528   5.765  15.980  0.00  0.00    +0.000 A 
ATOM      5  C   UNL     1       7.041   5.035  14.916  0.00  0.00    +0.000 A 
ATOM      6  C   UNL     1       6.103   4.049  15.085  0.00  0.00    +0.000 A 
ATOM      7  C   UNL     1       5.561   3.768  16.320  0.00  0.00    +0.000 A 
ATOM      8  C   UNL     1       5.977   4.537  17.427  0.00  0.00    +0.000 A 
ATOM      9  O   UNL     1       5.769   3.439  13.918  0.00  0.00    +0.000 OA
ATOM     10  C   UNL     1       6.602   4.163  12.988  0.00  0.00    +0.000 C 
ATOM     11  O   UNL     1       7.396   5.193  13.615  0.00  0.00    +0.000 OA
ENDBRANCH   1   8
BRANCH   1  12
ATOM     12  N   UNL     1       4.103   3.416  18.675  0.00  0.00    +0.000 NA
ATOM     13  C   UNL     1       2.897   3.975  18.068  0.00  0.00    +0.000 C 
ATOM     14  C   UNL     1       2.258   5.185  18.782  0.00  0.00    +0.000 C 
ATOM     15  C   UNL     1       1.778   4.993  20.231  0.00  0.00    +0.000 C 
ATOM     16  C   UNL     1       0.659   3.976  20.380  0.00  0.00    +0.000 C 
ATOM     17  C   UNL     1       1.372   2.649  20.582  0.00  0.00    +0.000 C 
ATOM     18  C   UNL     1       2.821   3.018  20.927  0.00  0.00    +0.000 C 
ATOM     19  C   UNL     1       3.847   2.566  19.851  0.00  0.00    +0.000 C 
ATOM     20  N   UNL     1       2.798   4.472  21.142  0.00  0.00    +0.000 NA
ATOM     21  H   UNL     1       3.710   4.868  20.936  0.00  0.00    +0.000 HD
ENDBRANCH   1  12
TORSDOF 2
ENDMDL
MODEL 4
REMARK VINA RESULT:      -7.2      1.190      1.414
REMARK  Name = 
REMARK  2 active torsions:
REMARK  status: ('A' for Active; 'I' for Inactive)
REMARK    1  A    between atoms: C_7  and  C_8
REMARK    2  A    between atoms: C_8  and  N_9
REMARK                            x       y       z     vdW  Elec       q    Type
REMARK                         _______ _______ _______ _____ _____    ______ ____
ROOT
ATOM      1  C   UNL     1       4.076   5.588  18.776  0.00  0.00    +0.000 C 
ENDROOT
BRANCH   1   8
ATOM      2 CL   UNL     1       7.127   5.538  19.598  0.00  0.00    +0.000 Cl
ATOM      3  C   UNL     1       6.511   5.255  18.009  0.00  0.00    +0.000 A 
ATOM      4  C   UNL     1       7.443   5.083  16.977  0.00  0.00    +0.000 A 
ATOM      5  C   UNL     1       6.961   4.817  15.713  0.00  0.00    +0.000 A 
ATOM      6  C   UNL     1       5.620   4.678  15.465  0.00  0.00    +0.000 A 
ATOM      7  C   UNL     1       4.678   4.846  16.456  0.00  0.00    +0.000 A 
ATOM      8  C   UNL     1       5.121   5.189  17.751  0.00  0.00    +0.000 A 
ATOM      9  O   UNL     1       5.354   4.401  14.161  0.00  0.00    +0.000 OA
ATOM     10  C   UNL     1       6.689   4.390  13.611  0.00  0.00    +0.000 C 
ATOM     11  O   UNL     1       7.712   4.675  14.589  0.00  0.00    +0.000 OA
ENDBRANCH   1   8
BRANCH   1  12
ATOM     12  N   UNL     1       2.779   4.906  18.627  0.00  0.00    +0.000 NA
ATOM     13  C   UNL     1       1.809   5.290  19.650  0.00  0.00    +0.000 C 
ATOM     14  C   UNL     1       2.181   4.972  21.114  0.00  0.00    +0.000 C 
ATOM     15  C   UNL     1       2.418   3.500  21.492  0.00  0.00    +0.000 C 
ATOM     16  C   UNL     1       1.191   2.618  21.332  0.00  0.00    +0.000 C 
ATOM     17  C   UNL     1       1.259   2.121  19.898  0.00  0.00    +0.000 C 
ATOM     18  C   UNL     1       2.693   2.415  19.437  0.00  0.00    +0.000 C 
ATOM     19  C   UNL     1       2.773   3.470  18.299  0.00  0.00    +0.000 C 
ATOM     20  N   UNL     1       3.407   2.813  20.659  0.00  0.00    +0.000 NA
ATOM     21  H   UNL     1       4.179   3.429  20.425  0.00  0.00    +0.000 HD
ENDBRANCH   1  12
TORSDOF 2
ENDMDL
MODEL 5
REMARK VINA RESULT:      -7.0      5.198      7.400
REMARK  Name = 
REMARK  2 active torsions:
REMARK  status: ('A' for Active; 'I' for Inactive)
REMARK    1  A    between atoms: C_7  and  C_8
REMARK    2  A    between atoms: C_8  and  N_9
REMARK                            x       y       z     vdW  Elec       q    Type
REMARK                         _______ _______ _______ _____ _____    ______ ____
ROOT
ATOM      1  C   UNL     1       2.677   6.534  19.823  0.00  0.00    +0.000 C 
ENDROOT
BRANCH   1   8
ATOM      2 CL   UNL     1       2.230   8.717  17.582  0.00  0.00    +0.000 Cl
ATOM      3  C   UNL     1       1.602   8.787  19.190  0.00  0.00    +0.000 A 
ATOM      4  C   UNL     1       0.917   9.949  19.565  0.00  0.00    +0.000 A 
ATOM      5  C   UNL     1       0.378   9.998  20.834  0.00  0.00    +0.000 A 
ATOM      6  C   UNL     1       0.462   8.935  21.695  0.00  0.00    +0.000 A 
ATOM      7  C   UNL     1       1.132   7.779  21.359  0.00  0.00    +0.000 A 
ATOM      8  C   UNL     1       1.761   7.711  20.097  0.00  0.00    +0.000 A 
ATOM      9  O   UNL     1      -0.147   9.176  22.886  0.00  0.00    +0.000 OA
ATOM     10  C   UNL     1      -0.619  10.525  22.678  0.00  0.00    +0.000 C 
ATOM     11  O   UNL     1      -0.269  11.058  21.383  0.00  0.00    +0.000 OA
ENDBRANCH   1   8
BRANCH   1  12
ATOM     12  N   UNL     1       2.083   5.475  18.990  0.00  0.00    +0.000 NA
ATOM     13  C   UNL     1       1.536   4.368  19.772  0.00  0.00    +0.000 C 
ATOM     14  C   UNL     1       2.533   3.578  20.647  0.00  0.00    +0.000 C 
ATOM     15  C   UNL     1       3.704   2.872  19.943  0.00  0.00    +0.000 C 
ATOM     16  C   UNL     1       3.273   1.779  18.979  0.00  0.00    +0.000 C 
ATOM     17  C   UNL     1       3.082   2.493  17.652  0.00  0.00    +0.000 C 
ATOM     18  C   UNL     1       3.775   3.851  17.820  0.00  0.00    +0.000 C 
ATOM     19  C   UNL     1       2.796   5.057  17.771  0.00  0.00    +0.000 C 
ATOM     20  N   UNL     1       4.511   3.743  19.088  0.00  0.00    +0.000 NA
ATOM     21  H   UNL     1       4.622   4.663  19.505  0.00  0.00    +0.000 HD
ENDBRANCH   1  12
TORSDOF 2
ENDMDL
MODEL 6
REMARK VINA RESULT:      -7.0      1.825      2.463
REMARK  Name = 
REMARK  2 active torsions:
REMARK  status: ('A' for Active; 'I' for Inactive)
REMARK    1  A    between atoms: C_7  and  C_8
REMARK    2  A    between atoms: C_8  and  N_9
REMARK                            x       y       z     vdW  Elec       q    Type
REMARK                         _______ _______ _______ _____ _____    ______ ____
ROOT
ATOM      1  C   UNL     1       2.200   4.014  17.342  0.00  0.00    +0.000 C 
ENDROOT
BRANCH   1   8
ATOM      2 CL   UNL     1       2.989   6.815  18.575  0.00  0.00    +0.000 Cl
ATOM      3  C   UNL     1       3.968   5.878  17.503  0.00  0.00    +0.000 A 
ATOM      4  C   UNL     1       5.172   6.446  17.067  0.00  0.00    +0.000 A 
ATOM      5  C   UNL     1       5.980   5.689  16.244  0.00  0.00    +0.000 A 
ATOM      6  C   UNL     1       5.651   4.406  15.891  0.00  0.00    +0.000 A 
ATOM      7  C   UNL     1       4.473   3.820  16.299  0.00  0.00    +0.000 A 
ATOM      8  C   UNL     1       3.582   4.582  17.084  0.00  0.00    +0.000 A 
ATOM      9  O   UNL     1       6.585   3.827  15.091  0.00  0.00    +0.000 OA
ATOM     10  C   UNL     1       7.541   4.903  14.972  0.00  0.00    +0.000 C 
ATOM     11  O   UNL     1       7.150   6.095  15.686  0.00  0.00    +0.000 OA
ENDBRANCH   1   8
BRANCH   1  12
ATOM     12  N   UNL     1       2.178   2.810  18.189  0.00  0.00    +0.000 NA
ATOM     13  C   UNL     1       0.955   2.684  18.978  0.00  0.00    +0.000 C 
ATOM     14  C   UNL     1       0.668   3.807  19.997  0.00  0.00    +0.000 C 
ATOM     15  C   UNL     1       1.698   4.044  21.114  0.00  0.00    +0.000 C 
ATOM     16  C   UNL     1       1.864   2.865  22.058  0.00  0.00    +0.000 C 
ATOM     17  C   UNL     1       2.950   2.014  21.422  0.00  0.00    +0.000 C 
ATOM     18  C   UNL     1       3.615   2.921  20.379  0.00  0.00    +0.000 C 
ATOM     19  C   UNL     1       3.405   2.441  18.916  0.00  0.00    +0.000 C 
ATOM     20  N   UNL     1       3.066   4.260  20.641  0.00  0.00    +0.000 NA
ATOM     21  H   UNL     1       3.075   4.812  19.789  0.00  0.00    +0.000 HD
ENDBRANCH   1  12
TORSDOF 2
ENDMDL
MODEL 7
REMARK VINA RESULT:      -7.0      2.054      2.747
REMARK  Name = 
REMARK  2 active torsions:
REMARK  status: ('A' for Active; 'I' for Inactive)
REMARK    1  A    between atoms: C_7  and  C_8
REMARK    2  A    between atoms: C_8  and  N_9
REMARK                            x       y       z     vdW  Elec       q    Type
REMARK                         _______ _______ _______ _____ _____    ______ ____
ROOT
ATOM      1  C   UNL     1       3.493   6.017  19.609  0.00  0.00    +0.000 C 
ENDROOT
BRANCH   1   8
ATOM      2 CL   UNL     1       2.925   8.340  17.543  0.00  0.00    +0.000 Cl
ATOM      3  C   UNL     1       4.061   7.057  17.324  0.00  0.00    +0.000 A 
ATOM      4  C   UNL     1       4.719   6.982  16.089  0.00  0.00    +0.000 A 
ATOM      5  C   UNL     1       5.657   5.985  15.920  0.00  0.00    +0.000 A 
ATOM      6  C   UNL     1       5.979   5.116  16.930  0.00  0.00    +0.000 A 
ATOM      7  C   UNL     1       5.347   5.160  18.153  0.00  0.00    +0.000 A 
ATOM      8  C   UNL     1       4.330   6.118  18.349  0.00  0.00    +0.000 A 
ATOM      9  O   UNL     1       6.936   4.222  16.567  0.00  0.00    +0.000 OA
ATOM     10  C   UNL     1       7.176   4.625  15.201  0.00  0.00    +0.000 C 
ATOM     11  O   UNL     1       6.350   5.731  14.779  0.00  0.00    +0.000 OA
ENDBRANCH   1   8
BRANCH   1  12
ATOM     12  N   UNL     1       2.136   5.481  19.403  0.00  0.00    +0.000 NA
ATOM     13  C   UNL     1       1.565   4.888  20.610  0.00  0.00    +0.000 C 
ATOM     14  C   UNL     1       2.309   3.675  21.207  0.00  0.00    +0.000 C 
ATOM     15  C   UNL     1       2.466   2.423  20.327  0.00  0.00    +0.000 C 
ATOM     16  C   UNL     1       1.148   1.766  19.951  0.00  0.00    +0.000 C 
ATOM     17  C   UNL     1       0.730   2.455  18.663  0.00  0.00    +0.000 C 
ATOM     18  C   UNL     1       1.988   3.176  18.164  0.00  0.00    +0.000 C 
ATOM     19  C   UNL     1       1.859   4.725  18.170  0.00  0.00    +0.000 C 
ATOM     20  N   UNL     1       3.074   2.675  19.019  0.00  0.00    +0.000 NA
ATOM     21  H   UNL     1       3.812   3.368  19.087  0.00  0.00    +0.000 HD
ENDBRANCH   1  12
TORSDOF 2
ENDMDL
MODEL 8
REMARK VINA RESULT:      -7.0      1.398      2.068
REMARK  Name = 
REMARK  2 active torsions:
REMARK  status: ('A' for Active; 'I' for Inactive)
REMARK    1  A    between atoms: C_7  and  C_8
REMARK    2  A    between atoms: C_8  and  N_9
REMARK                            x       y       z     vdW  Elec       q    Type
REMARK                         _______ _______ _______ _____ _____    ______ ____
ROOT
ATOM      1  C   UNL     1       3.996   5.702  18.638  0.00  0.00    +0.000 C 
ENDROOT
BRANCH   1   8
ATOM      2 CL   UNL     1       7.015   5.591  19.563  0.00  0.00    +0.000 Cl
ATOM      3  C   UNL     1       6.448   5.314  17.955  0.00  0.00    +0.000 A 
ATOM      4  C   UNL     1       7.410   5.118  16.956  0.00  0.00    +0.000 A 
ATOM      5  C   UNL     1       6.965   4.857  15.677  0.00  0.00    +0.000 A 
ATOM      6  C   UNL     1       5.631   4.746  15.384  0.00  0.00    +0.000 A 
ATOM      7  C   UNL     1       4.660   4.938  16.342  0.00  0.00    +0.000 A 
ATOM      8  C   UNL     1       5.065   5.277  17.651  0.00  0.00    +0.000 A 
ATOM      9  O   UNL     1       5.403   4.469  14.074  0.00  0.00    +0.000 OA
ATOM     10  C   UNL     1       6.755   4.427  13.569  0.00  0.00    +0.000 C 
ATOM     11  O   UNL     1       7.750   4.694  14.580  0.00  0.00    +0.000 OA
ENDBRANCH   1   8
BRANCH   1  12
ATOM     12  N   UNL     1       3.805   4.780  19.770  0.00  0.00    +0.000 NA
ATOM     13  C   UNL     1       4.006   3.378  19.409  0.00  0.00    +0.000 C 
ATOM     14  C   UNL     1       3.055   2.792  18.344  0.00  0.00    +0.000 C 
ATOM     15  C   UNL     1       1.548   2.788  18.651  0.00  0.00    +0.000 C 
ATOM     16  C   UNL     1       1.165   1.933  19.847  0.00  0.00    +0.000 C 
ATOM     17  C   UNL     1       1.269   2.871  21.038  0.00  0.00    +0.000 C 
ATOM     18  C   UNL     1       1.319   4.282  20.437  0.00  0.00    +0.000 C 
ATOM     19  C   UNL     1       2.670   5.011  20.680  0.00  0.00    +0.000 C 
ATOM     20  N   UNL     1       1.000   4.096  19.014  0.00  0.00    +0.000 NA
ATOM     21  H   UNL     1       1.425   4.836  18.463  0.00  0.00    +0.000 HD
ENDBRANCH   1  12
TORSDOF 2
ENDMDL
MODEL 9
REMARK VINA RESULT:      -6.9      3.483      6.493
REMARK  Name = 
REMARK  2 active torsions:
REMARK  status: ('A' for Active; 'I' for Inactive)
REMARK    1  A    between atoms: C_7  and  C_8
REMARK    2  A    between atoms: C_8  and  N_9
REMARK                            x       y       z     vdW  Elec       q    Type
REMARK                         _______ _______ _______ _____ _____    ______ ____
ROOT
ATOM      1  C   UNL     1       3.143   6.189  17.507  0.00  0.00    +0.000 C 
ENDROOT
BRANCH   1   8
ATOM      2 CL   UNL     1       2.023   7.913  19.907  0.00  0.00    +0.000 Cl
ATOM      3  C   UNL     1       2.163   6.191  19.888  0.00  0.00    +0.000 A 
ATOM      4  C   UNL     1       1.844   5.504  21.067  0.00  0.00    +0.000 A 
ATOM      5  C   UNL     1       1.915   4.127  21.049  0.00  0.00    +0.000 A 
ATOM      6  C   UNL     1       2.242   3.435  19.911  0.00  0.00    +0.000 A 
ATOM      7  C   UNL     1       2.566   4.080  18.737  0.00  0.00    +0.000 A 
ATOM      8  C   UNL     1       2.576   5.491  18.728  0.00  0.00    +0.000 A 
ATOM      9  O   UNL     1       2.239   2.089  20.097  0.00  0.00    +0.000 OA
ATOM     10  C   UNL     1       1.879   2.012  21.494  0.00  0.00    +0.000 C 
ATOM     11  O   UNL     1       1.694   3.305  22.108  0.00  0.00    +0.000 OA
ENDBRANCH   1   8
BRANCH   1  12
ATOM     12  N   UNL     1       4.577   6.512  17.596  0.00  0.00    +0.000 NA
ATOM     13  C   UNL     1       5.203   6.712  16.291  0.00  0.00    +0.000 C 
ATOM     14  C   UNL     1       5.197   5.507  15.327  0.00  0.00    +0.000 C 
ATOM     15  C   UNL     1       5.904   4.219  15.782  0.00  0.00    +0.000 C 
ATOM     16  C   UNL     1       7.400   4.381  15.995  0.00  0.00    +0.000 C 
ATOM     17  C   UNL     1       7.537   4.809  17.446  0.00  0.00    +0.000 C 
ATOM     18  C   UNL     1       6.179   4.496  18.089  0.00  0.00    +0.000 C 
ATOM     19  C   UNL     1       5.408   5.763  18.554  0.00  0.00    +0.000 C 
ATOM     20  N   UNL     1       5.458   3.708  17.079  0.00  0.00    +0.000 NA
ATOM     21  H   UNL     1       4.456   3.830  17.194  0.00  0.00    +0.000 HD
ENDBRANCH   1  12
TORSDOF 2
ENDMDL
