MODEL 1
REMARK VINA RESULT:      -7.4      0.000      0.000
REMARK  Name = 
REMARK  8 active torsions:
REMARK  status: ('A' for Active; 'I' for Inactive)
REMARK    1  A    between atoms: C_2  and  O_3
REMARK    2  A    between atoms: C_2  and  C_4
REMARK    3  A    between atoms: C_4  and  C_5
REMARK    4  A    between atoms: C_4  and  C_18
REMARK    5  A    between atoms: C_5  and  C_6
REMARK    6  A    between atoms: C_6  and  O_7
REMARK    7  A    between atoms: O_7  and  C_8
REMARK    8  A    between atoms: C_18  and  N_19
REMARK                            x       y       z     vdW  Elec       q    Type
REMARK                         _______ _______ _______ _____ _____    ______ ____
ROOT
ATOM      1  C   UNL     1       5.985   6.142  16.310  0.00  0.00    +0.000 C 
ENDROOT
BRANCH   1   2
ATOM      2  C   UNL     1       6.006   4.617  16.523  0.00  0.00    +0.000 C 
BRANCH   2   4
ATOM      3  O   UNL     1       8.208   4.226  17.489  0.00  0.00    +0.000 OA
ATOM      4  C   UNL     1       6.993   4.264  17.621  0.00  0.00    +0.000 C 
BRANCH   4   5
ATOM      5  O   UNL     1       6.406   4.102  18.834  0.00  0.00    +0.000 OA
ATOM      6  H   UNL     1       5.997   4.907  19.203  0.00  0.00    +0.000 HD
ENDBRANCH   4   5
ENDBRANCH   2   4
BRANCH   2   7
ATOM      7  C   UNL     1       6.376   3.906  15.206  0.00  0.00    +0.000 C 
BRANCH   7   8
ATOM      8  N   UNL     1       6.123   4.696  13.986  0.00  0.00    +0.000 NA
ATOM      9  C   UNL     1       5.135   4.018  13.123  0.00  0.00    +0.000 C 
ATOM     10  C   UNL     1       5.961   3.076  12.266  0.00  0.00    +0.000 C 
ATOM     11  C   UNL     1       7.205   3.892  11.976  0.00  0.00    +0.000 C 
ATOM     12  C   UNL     1       7.306   4.883  13.130  0.00  0.00    +0.000 C 
ENDBRANCH   7   8
ENDBRANCH   2   7
ENDBRANCH   1   2
BRANCH   1  13
ATOM     13  C   UNL     1       4.781   6.793  16.989  0.00  0.00    +0.000 C 
BRANCH  13  14
ATOM     14  O   UNL     1       3.705   5.859  17.053  0.00  0.00    +0.000 OA
BRANCH  14  15
ATOM     15  C   UNL     1       3.004   5.843  18.240  0.00  0.00    +0.000 A 
ATOM     16  C   UNL     1       2.826   6.983  19.038  0.00  0.00    +0.000 A 
ATOM     17  C   UNL     1       2.102   6.911  20.225  0.00  0.00    +0.000 A 
ATOM     18  C   UNL     1       1.540   5.703  20.624  0.00  0.00    +0.000 A 
ATOM     19  C   UNL     1       1.682   4.552  19.837  0.00  0.00    +0.000 A 
ATOM     20  C   UNL     1       1.097   3.344  20.246  0.00  0.00    +0.000 A 
ATOM     21  C   UNL     1       1.223   2.190  19.473  0.00  0.00    +0.000 A 
ATOM     22  C   UNL     1       1.938   2.234  18.280  0.00  0.00    +0.000 A 
ATOM     23  C   UNL     1       2.529   3.430  17.864  0.00  0.00    +0.000 A 
ATOM     24  C   UNL     1       2.416   4.611  18.626  0.00  0.00    +0.000 A 
ENDBRANCH  14  15
ENDBRANCH  13  14
ENDBRANCH   1  13
TORSDOF 8
ENDMDL
MODEL 2
REMARK VINA RESULT:      -7.2      2.658      5.049
REMARK  Name = 
REMARK  8 active torsions:
REMARK  status: ('A' for Active; 'I' for Inactive)
REMARK    1  A    between atoms: C_2  and  O_3
REMARK    2  A    between atoms: C_2  and  C_4
REMARK    3  A    between atoms: C_4  and  C_5
REMARK    4  A    between atoms: C_4  and  C_18
REMARK    5  A    between atoms: C_5  and  C_6
REMARK    6  A    between atoms: C_6  and  O_7
REMARK    7  A    between atoms: O_7  and  C_8
REMARK    8  A    between atoms: C_18  and  N_19
REMARK                            x       y       z     vdW  Elec       q    Type
REMARK                         _______ _______ _______ _____ _____    ______ ____
ROOT
ATOM      1  C   UNL     1       2.884   4.182  20.227  0.00  0.00    +0.000 C 
ENDROOT
BRANCH   1   2
ATOM      2  C   UNL     1       3.034   3.310  18.965  0.00  0.00    +0.000 C 
BRANCH   2   4
ATOM      3  O   UNL     1       4.800   2.163  20.192  0.00  0.00    +0.000 OA
ATOM      4  C   UNL     1       4.093   2.248  19.197  0.00  0.00    +0.000 C 
BRANCH   4   5
ATOM      5  O   UNL     1       4.115   1.296  18.228  0.00  0.00    +0.000 OA
ATOM      6  H   UNL     1       3.993   1.632  17.321  0.00  0.00    +0.000 HD
ENDBRANCH   4   5
ENDBRANCH   2   4
BRANCH   2   7
ATOM      7  C   UNL     1       3.401   4.193  17.756  0.00  0.00    +0.000 C 
BRANCH   7   8
ATOM      8  N   UNL     1       4.850   4.334  17.511  0.00  0.00    +0.000 NA
ATOM      9  C   UNL     1       5.290   5.719  17.772  0.00  0.00    +0.000 C 
ATOM     10  C   UNL     1       5.061   6.443  16.458  0.00  0.00    +0.000 C 
ATOM     11  C   UNL     1       5.460   5.405  15.429  0.00  0.00    +0.000 C 
ATOM     12  C   UNL     1       5.258   4.062  16.124  0.00  0.00    +0.000 C 
ENDBRANCH   7   8
ENDBRANCH   2   7
ENDBRANCH   1   2
BRANCH   1  13
ATOM     13  C   UNL     1       1.873   5.309  20.020  0.00  0.00    +0.000 C 
BRANCH  13  14
ATOM     14  O   UNL     1       2.447   6.547  20.436  0.00  0.00    +0.000 OA
BRANCH  14  15
ATOM     15  C   UNL     1       2.015   7.661  19.747  0.00  0.00    +0.000 A 
ATOM     16  C   UNL     1       2.263   7.858  18.380  0.00  0.00    +0.000 A 
ATOM     17  C   UNL     1       1.797   8.999  17.733  0.00  0.00    +0.000 A 
ATOM     18  C   UNL     1       1.069   9.950  18.439  0.00  0.00    +0.000 A 
ATOM     19  C   UNL     1       0.786   9.771  19.800  0.00  0.00    +0.000 A 
ATOM     20  C   UNL     1       0.039  10.733  20.496  0.00  0.00    +0.000 A 
ATOM     21  C   UNL     1      -0.258  10.568  21.849  0.00  0.00    +0.000 A 
ATOM     22  C   UNL     1       0.194   9.436  22.521  0.00  0.00    +0.000 A 
ATOM     23  C   UNL     1       0.942   8.472  21.840  0.00  0.00    +0.000 A 
ATOM     24  C   UNL     1       1.255   8.614  20.472  0.00  0.00    +0.000 A 
ENDBRANCH  14  15
ENDBRANCH  13  14
ENDBRANCH   1  13
TORSDOF 8
ENDMDL
MODEL 3
REMARK VINA RESULT:      -7.1      3.014      6.021
REMARK  Name = 
REMARK  8 active torsions:
REMARK  status: ('A' for Active; 'I' for Inactive)
REMARK    1  A    between atoms: C_2  and  O_3
REMARK    2  A    between atoms: C_2  and  C_4
REMARK    3  A    between atoms: C_4  and  C_5
REMARK    4  A    between atoms: C_4  and  C_18
REMARK    5  A    between atoms: C_5  and  C_6
REMARK    6  A    between atoms: C_6  and  O_7
REMARK    7  A    between atoms: O_7  and  C_8
REMARK    8  A    between atoms: C_18  and  N_19
REMARK                            x       y       z     vdW  Elec       q    Type
REMARK                         _______ _______ _______ _____ _____    ______ ____
ROOT
ATOM      1  C   UNL     1       4.136   5.775  18.986  0.00  0.00    +0.000 C 
ENDROOT
BRANCH   1   2
ATOM      2  C   UNL     1       4.414   4.272  18.799  0.00  0.00    +0.000 C 
BRANCH   2   4
ATOM      3  O   UNL     1       5.342   3.959  16.568  0.00  0.00    +0.000 OA
ATOM      4  C   UNL     1       5.515   4.076  17.773  0.00  0.00    +0.000 C 
BRANCH   4   5
ATOM      5  O   UNL     1       6.761   4.159  18.306  0.00  0.00    +0.000 OA
ATOM      6  H   UNL     1       7.418   3.557  17.910  0.00  0.00    +0.000 HD
ENDBRANCH   4   5
ENDBRANCH   2   4
BRANCH   2   7
ATOM      7  C   UNL     1       3.125   3.548  18.360  0.00  0.00    +0.000 C 
BRANCH   7   8
ATOM      8  N   UNL     1       2.677   2.479  19.274  0.00  0.00    +0.000 NA
ATOM      9  C   UNL     1       1.218   2.555  19.488  0.00  0.00    +0.000 C 
ATOM     10  C   UNL     1       1.054   3.525  20.645  0.00  0.00    +0.000 C 
ATOM     11  C   UNL     1       2.219   3.169  21.547  0.00  0.00    +0.000 C 
ATOM     12  C   UNL     1       3.262   2.551  20.622  0.00  0.00    +0.000 C 
ENDBRANCH   7   8
ENDBRANCH   2   7
ENDBRANCH   1   2
BRANCH   1  13
ATOM     13  C   UNL     1       2.668   6.117  18.732  0.00  0.00    +0.000 C 
BRANCH  13  14
ATOM     14  O   UNL     1       2.175   6.929  19.796  0.00  0.00    +0.000 OA
BRANCH  14  15
ATOM     15  C   UNL     1       1.810   8.211  19.442  0.00  0.00    +0.000 A 
ATOM     16  C   UNL     1       2.089   8.766  18.185  0.00  0.00    +0.000 A 
ATOM     17  C   UNL     1       1.691  10.064  17.879  0.00  0.00    +0.000 A 
ATOM     18  C   UNL     1       1.001  10.820  18.821  0.00  0.00    +0.000 A 
ATOM     19  C   UNL     1       0.689  10.286  20.079  0.00  0.00    +0.000 A 
ATOM     20  C   UNL     1      -0.020  11.055  21.013  0.00  0.00    +0.000 A 
ATOM     21  C   UNL     1      -0.346  10.537  22.267  0.00  0.00    +0.000 A 
ATOM     22  C   UNL     1       0.038   9.241  22.599  0.00  0.00    +0.000 A 
ATOM     23  C   UNL     1       0.747   8.466  21.678  0.00  0.00    +0.000 A 
ATOM     24  C   UNL     1       1.088   8.965  20.403  0.00  0.00    +0.000 A 
ENDBRANCH  14  15
ENDBRANCH  13  14
ENDBRANCH   1  13
TORSDOF 8
ENDMDL
MODEL 4
REMARK VINA RESULT:      -7.0      3.068      5.355
REMARK  Name = 
REMARK  8 active torsions:
REMARK  status: ('A' for Active; 'I' for Inactive)
REMARK    1  A    between atoms: C_2  and  O_3
REMARK    2  A    between atoms: C_2  and  C_4
REMARK    3  A    between atoms: C_4  and  C_5
REMARK    4  A    between atoms: C_4  and  C_18
REMARK    5  A    between atoms: C_5  and  C_6
REMARK    6  A    between atoms: C_6  and  O_7
REMARK    7  A    between atoms: O_7  and  C_8
REMARK    8  A    between atoms: C_18  and  N_19
REMARK                            x       y       z     vdW  Elec       q    Type
REMARK                         _______ _______ _______ _____ _____    ______ ____
ROOT
ATOM      1  C   UNL     1       2.858   5.075  18.709  0.00  0.00    +0.000 C 
ENDROOT
BRANCH   1   2
ATOM      2  C   UNL     1       4.192   4.362  18.419  0.00  0.00    +0.000 C 
BRANCH   2   4
ATOM      3  O   UNL     1       3.258   2.115  18.301  0.00  0.00    +0.000 OA
ATOM      4  C   UNL     1       4.078   2.891  18.773  0.00  0.00    +0.000 C 
BRANCH   4   5
ATOM      5  O   UNL     1       5.068   2.461  19.596  0.00  0.00    +0.000 OA
ATOM      6  H   UNL     1       5.917   2.932  19.498  0.00  0.00    +0.000 HD
ENDBRANCH   4   5
ENDBRANCH   2   4
BRANCH   2   7
ATOM      7  C   UNL     1       5.330   5.029  19.217  0.00  0.00    +0.000 C 
BRANCH   7   8
ATOM      8  N   UNL     1       6.685   4.776  18.690  0.00  0.00    +0.000 NA
ATOM      9  C   UNL     1       7.611   5.852  19.096  0.00  0.00    +0.000 C 
ATOM     10  C   UNL     1       7.457   6.912  18.020  0.00  0.00    +0.000 C 
ATOM     11  C   UNL     1       7.315   6.088  16.756  0.00  0.00    +0.000 C 
ATOM     12  C   UNL     1       6.765   4.743  17.221  0.00  0.00    +0.000 C 
ENDBRANCH   7   8
ENDBRANCH   2   7
ENDBRANCH   1   2
BRANCH   1  13
ATOM     13  C   UNL     1       3.038   6.586  18.839  0.00  0.00    +0.000 C 
BRANCH  13  14
ATOM     14  O   UNL     1       2.016   7.119  19.680  0.00  0.00    +0.000 OA
BRANCH  14  15
ATOM     15  C   UNL     1       1.638   8.416  19.403  0.00  0.00    +0.000 A 
ATOM     16  C   UNL     1       1.855   9.027  18.159  0.00  0.00    +0.000 A 
ATOM     17  C   UNL     1       1.445  10.337  17.932  0.00  0.00    +0.000 A 
ATOM     18  C   UNL     1       0.805  11.050  18.940  0.00  0.00    +0.000 A 
ATOM     19  C   UNL     1       0.554  10.460  20.187  0.00  0.00    +0.000 A 
ATOM     20  C   UNL     1      -0.105  11.187  21.189  0.00  0.00    +0.000 A 
ATOM     21  C   UNL     1      -0.369  10.614  22.433  0.00  0.00    +0.000 A 
ATOM     22  C   UNL     1       0.028   9.304  22.687  0.00  0.00    +0.000 A 
ATOM     23  C   UNL     1       0.688   8.571  21.698  0.00  0.00    +0.000 A 
ATOM     24  C   UNL     1       0.967   9.126  20.431  0.00  0.00    +0.000 A 
ENDBRANCH  14  15
ENDBRANCH  13  14
ENDBRANCH   1  13
TORSDOF 8
ENDMDL
MODEL 5
REMARK VINA RESULT:      -7.0      0.959      1.157
REMARK  Name = 
REMARK  8 active torsions:
REMARK  status: ('A' for Active; 'I' for Inactive)
REMARK    1  A    between atoms: C_2  and  O_3
REMARK    2  A    between atoms: C_2  and  C_4
REMARK    3  A    between atoms: C_4  and  C_5
REMARK    4  A    between atoms: C_4  and  C_18
REMARK    5  A    between atoms: C_5  and  C_6
REMARK    6  A    between atoms: C_6  and  O_7
REMARK    7  A    between atoms: O_7  and  C_8
REMARK    8  A    between atoms: C_18  and  N_19
REMARK                            x       y       z     vdW  Elec       q    Type
REMARK                         _______ _______ _______ _____ _____    ______ ____
ROOT
ATOM      1  C   UNL     1       5.019   5.774  15.592  0.00  0.00    +0.000 C 
ENDROOT
BRANCH   1   2
ATOM      2  C   UNL     1       5.861   4.525  15.913  0.00  0.00    +0.000 C 
BRANCH   2   4
ATOM      3  O   UNL     1       8.000   4.338  17.065  0.00  0.00    +0.000 OA
ATOM      4  C   UNL     1       7.274   4.937  16.284  0.00  0.00    +0.000 C 
BRANCH   4   5
ATOM      5  O   UNL     1       7.727   5.997  15.565  0.00  0.00    +0.000 OA
ATOM      6  H   UNL     1       8.389   5.777  14.884  0.00  0.00    +0.000 HD
ENDBRANCH   4   5
ENDBRANCH   2   4
BRANCH   2   7
ATOM      7  C   UNL     1       5.871   3.570  14.702  0.00  0.00    +0.000 C 
BRANCH   7   8
ATOM      8  N   UNL     1       5.868   4.242  13.387  0.00  0.00    +0.000 NA
ATOM      9  C   UNL     1       4.901   3.597  12.476  0.00  0.00    +0.000 C 
ATOM     10  C   UNL     1       5.684   2.469  11.829  0.00  0.00    +0.000 C 
ATOM     11  C   UNL     1       7.052   3.086  11.621  0.00  0.00    +0.000 C 
ATOM     12  C   UNL     1       7.155   4.183  12.675  0.00  0.00    +0.000 C 
ENDBRANCH   7   8
ENDBRANCH   2   7
ENDBRANCH   1   2
BRANCH   1  13
ATOM     13  C   UNL     1       4.495   6.445  16.860  0.00  0.00    +0.000 C 
BRANCH  13  14
ATOM     14  O   UNL     1       4.611   5.545  17.961  0.00  0.00    +0.000 OA
BRANCH  14  15
ATOM     15  C   UNL     1       3.511   5.477  18.789  0.00  0.00    +0.000 A 
ATOM     16  C   UNL     1       3.094   6.545  19.597  0.00  0.00    +0.000 A 
ATOM     17  C   UNL     1       1.970   6.423  20.409  0.00  0.00    +0.000 A 
ATOM     18  C   UNL     1       1.244   5.237  20.417  0.00  0.00    +0.000 A 
ATOM     19  C   UNL     1       1.622   4.159  19.605  0.00  0.00    +0.000 A 
ATOM     20  C   UNL     1       0.871   2.975  19.613  0.00  0.00    +0.000 A 
ATOM     21  C   UNL     1       1.229   1.894  18.807  0.00  0.00    +0.000 A 
ATOM     22  C   UNL     1       2.347   1.989  17.983  0.00  0.00    +0.000 A 
ATOM     23  C   UNL     1       3.105   3.162  17.968  0.00  0.00    +0.000 A 
ATOM     24  C   UNL     1       2.765   4.270  18.773  0.00  0.00    +0.000 A 
ENDBRANCH  14  15
ENDBRANCH  13  14
ENDBRANCH   1  13
TORSDOF 8
ENDMDL
MODEL 6
REMARK VINA RESULT:      -7.0      1.853      3.310
REMARK  Name = 
REMARK  8 active torsions:
REMARK  status: ('A' for Active; 'I' for Inactive)
REMARK    1  A    between atoms: C_2  and  O_3
REMARK    2  A    between atoms: C_2  and  C_4
REMARK    3  A    between atoms: C_4  and  C_5
REMARK    4  A    between atoms: C_4  and  C_18
REMARK    5  A    between atoms: C_5  and  C_6
REMARK    6  A    between atoms: C_6  and  O_7
REMARK    7  A    between atoms: O_7  and  C_8
REMARK    8  A    between atoms: C_18  and  N_19
REMARK                            x       y       z     vdW  Elec       q    Type
REMARK                         _______ _______ _______ _____ _____    ______ ____
ROOT
ATOM      1  C   UNL     1       5.155   6.528  15.626  0.00  0.00    +0.000 C 
ENDROOT
BRANCH   1   2
ATOM      2  C   UNL     1       6.218   5.428  15.809  0.00  0.00    +0.000 C 
BRANCH   2   4
ATOM      3  O   UNL     1       6.048   4.116  13.763  0.00  0.00    +0.000 OA
ATOM      4  C   UNL     1       6.667   4.914  14.453  0.00  0.00    +0.000 C 
BRANCH   4   5
ATOM      5  O   UNL     1       7.793   5.521  13.999  0.00  0.00    +0.000 OA
ATOM      6  H   UNL     1       8.534   5.538  14.633  0.00  0.00    +0.000 HD
ENDBRANCH   4   5
ENDBRANCH   2   4
BRANCH   2   7
ATOM      7  C   UNL     1       5.647   4.281  16.666  0.00  0.00    +0.000 C 
BRANCH   7   8
ATOM      8  N   UNL     1       6.478   3.904  17.826  0.00  0.00    +0.000 NA
ATOM      9  C   UNL     1       5.720   4.067  19.084  0.00  0.00    +0.000 C 
ATOM     10  C   UNL     1       5.940   5.516  19.475  0.00  0.00    +0.000 C 
ATOM     11  C   UNL     1       7.390   5.748  19.101  0.00  0.00    +0.000 C 
ATOM     12  C   UNL     1       7.682   4.732  18.001  0.00  0.00    +0.000 C 
ENDBRANCH   7   8
ENDBRANCH   2   7
ENDBRANCH   1   2
BRANCH   1  13
ATOM     13  C   UNL     1       4.535   6.945  16.958  0.00  0.00    +0.000 C 
BRANCH  13  14
ATOM     14  O   UNL     1       3.169   6.535  16.999  0.00  0.00    +0.000 OA
BRANCH  14  15
ATOM     15  C   UNL     1       2.641   6.359  18.261  0.00  0.00    +0.000 A 
ATOM     16  C   UNL     1       2.498   7.407  19.183  0.00  0.00    +0.000 A 
ATOM     17  C   UNL     1       1.951   7.173  20.441  0.00  0.00    +0.000 A 
ATOM     18  C   UNL     1       1.533   5.894  20.791  0.00  0.00    +0.000 A 
ATOM     19  C   UNL     1       1.643   4.831  19.884  0.00  0.00    +0.000 A 
ATOM     20  C   UNL     1       1.203   3.549  20.246  0.00  0.00    +0.000 A 
ATOM     21  C   UNL     1       1.299   2.481  19.354  0.00  0.00    +0.000 A 
ATOM     22  C   UNL     1       1.839   2.686  18.088  0.00  0.00    +0.000 A 
ATOM     23  C   UNL     1       2.284   3.957  17.716  0.00  0.00    +0.000 A 
ATOM     24  C   UNL     1       2.198   5.055  18.599  0.00  0.00    +0.000 A 
ENDBRANCH  14  15
ENDBRANCH  13  14
ENDBRANCH   1  13
TORSDOF 8
ENDMDL
MODEL 7
REMARK VINA RESULT:      -7.0      2.835      5.067
REMARK  Name = 
REMARK  8 active torsions:
REMARK  status: ('A' for Active; 'I' for Inactive)
REMARK    1  A    between atoms: C_2  and  O_3
REMARK    2  A    between atoms: C_2  and  C_4
REMARK    3  A    between atoms: C_4  and  C_5
REMARK    4  A    between atoms: C_4  and  C_18
REMARK    5  A    between atoms: C_5  and  C_6
REMARK    6  A    between atoms: C_6  and  O_7
REMARK    7  A    between atoms: O_7  and  C_8
REMARK    8  A    between atoms: C_18  and  N_19
REMARK                            x       y       z     vdW  Elec       q    Type
REMARK                         _______ _______ _______ _____ _____    ______ ____
ROOT
ATOM      1  C   UNL     1       2.468   4.592  18.890  0.00  0.00    +0.000 C 
ENDROOT
BRANCH   1   2
ATOM      2  C   UNL     1       3.840   3.899  18.790  0.00  0.00    +0.000 C 
BRANCH   2   4
ATOM      3  O   UNL     1       3.072   2.519  20.646  0.00  0.00    +0.000 OA
ATOM      4  C   UNL     1       3.965   2.845  19.875  0.00  0.00    +0.000 C 
BRANCH   4   5
ATOM      5  O   UNL     1       5.152   2.187  19.846  0.00  0.00    +0.000 OA
ATOM      6  H   UNL     1       5.864   2.602  20.367  0.00  0.00    +0.000 HD
ENDBRANCH   4   5
ENDBRANCH   2   4
BRANCH   2   7
ATOM      7  C   UNL     1       4.968   4.944  18.912  0.00  0.00    +0.000 C 
BRANCH   7   8
ATOM      8  N   UNL     1       6.030   4.827  17.895  0.00  0.00    +0.000 NA
ATOM      9  C   UNL     1       6.466   6.162  17.441  0.00  0.00    +0.000 C 
ATOM     10  C   UNL     1       5.512   6.511  16.314  0.00  0.00    +0.000 C 
ATOM     11  C   UNL     1       5.330   5.184  15.606  0.00  0.00    +0.000 C 
ATOM     12  C   UNL     1       5.617   4.127  16.667  0.00  0.00    +0.000 C 
ENDBRANCH   7   8
ENDBRANCH   2   7
ENDBRANCH   1   2
BRANCH   1  13
ATOM     13  C   UNL     1       2.548   6.067  18.501  0.00  0.00    +0.000 C 
BRANCH  13  14
ATOM     14  O   UNL     1       2.196   6.877  19.623  0.00  0.00    +0.000 OA
BRANCH  14  15
ATOM     15  C   UNL     1       1.861   8.182  19.329  0.00  0.00    +0.000 A 
ATOM     16  C   UNL     1       2.201   8.805  18.119  0.00  0.00    +0.000 A 
ATOM     17  C   UNL     1       1.831  10.124  17.872  0.00  0.00    +0.000 A 
ATOM     18  C   UNL     1       1.110  10.833  18.826  0.00  0.00    +0.000 A 
ATOM     19  C   UNL     1       0.737  10.232  20.036  0.00  0.00    +0.000 A 
ATOM     20  C   UNL     1      -0.004  10.955  20.982  0.00  0.00    +0.000 A 
ATOM     21  C   UNL     1      -0.390  10.371  22.190  0.00  0.00    +0.000 A 
ATOM     22  C   UNL     1      -0.035   9.053  22.461  0.00  0.00    +0.000 A 
ATOM     23  C   UNL     1       0.704   8.322  21.528  0.00  0.00    +0.000 A 
ATOM     24  C   UNL     1       1.107   8.889  20.300  0.00  0.00    +0.000 A 
ENDBRANCH  14  15
ENDBRANCH  13  14
ENDBRANCH   1  13
TORSDOF 8
ENDMDL
MODEL 8
REMARK VINA RESULT:      -6.9      1.337      2.829
REMARK  Name = 
REMARK  8 active torsions:
REMARK  status: ('A' for Active; 'I' for Inactive)
REMARK    1  A    between atoms: C_2  and  O_3
REMARK    2  A    between atoms: C_2  and  C_4
REMARK    3  A    between atoms: C_4  and  C_5
REMARK    4  A    between atoms: C_4  and  C_18
REMARK    5  A    between atoms: C_5  and  C_6
REMARK    6  A    between atoms: C_6  and  O_7
REMARK    7  A    between atoms: O_7  and  C_8
REMARK    8  A    between atoms: C_18  and  N_19
REMARK                            x       y       z     vdW  Elec       q    Type
REMARK                         _______ _______ _______ _____ _____    ______ ____
ROOT
ATOM      1  C   UNL     1       5.678   4.437  17.989  0.00  0.00    +0.000 C 
ENDROOT
BRANCH   1   2
ATOM      2  C   UNL     1       6.837   4.958  17.118  0.00  0.00    +0.000 C 
BRANCH   2   4
ATOM      3  O   UNL     1       5.696   7.110  17.176  0.00  0.00    +0.000 OA
ATOM      4  C   UNL     1       6.696   6.455  16.916  0.00  0.00    +0.000 C 
BRANCH   4   5
ATOM      5  O   UNL     1       7.850   7.051  16.519  0.00  0.00    +0.000 OA
ATOM      6  H   UNL     1       7.748   7.962  16.188  0.00  0.00    +0.000 HD
ENDBRANCH   4   5
ENDBRANCH   2   4
BRANCH   2   7
ATOM      7  C   UNL     1       6.849   4.223  15.763  0.00  0.00    +0.000 C 
BRANCH   7   8
ATOM      8  N   UNL     1       6.511   5.066  14.600  0.00  0.00    +0.000 NA
ATOM      9  C   UNL     1       5.304   4.555  13.920  0.00  0.00    +0.000 C 
ATOM     10  C   UNL     1       5.830   3.523  12.939  0.00  0.00    +0.000 C 
ATOM     11  C   UNL     1       7.112   4.158  12.439  0.00  0.00    +0.000 C 
ATOM     12  C   UNL     1       7.547   5.101  13.556  0.00  0.00    +0.000 C 
ENDBRANCH   7   8
ENDBRANCH   2   7
ENDBRANCH   1   2
BRANCH   1  13
ATOM     13  C   UNL     1       4.735   3.534  17.196  0.00  0.00    +0.000 C 
BRANCH  13  14
ATOM     14  O   UNL     1       3.422   4.094  17.198  0.00  0.00    +0.000 OA
BRANCH  14  15
ATOM     15  C   UNL     1       2.748   4.020  18.398  0.00  0.00    +0.000 A 
ATOM     16  C   UNL     1       2.439   2.805  19.028  0.00  0.00    +0.000 A 
ATOM     17  C   UNL     1       1.762   2.789  20.244  0.00  0.00    +0.000 A 
ATOM     18  C   UNL     1       1.395   3.985  20.850  0.00  0.00    +0.000 A 
ATOM     19  C   UNL     1       1.708   5.216  20.257  0.00  0.00    +0.000 A 
ATOM     20  C   UNL     1       1.344   6.414  20.888  0.00  0.00    +0.000 A 
ATOM     21  C   UNL     1       1.653   7.648  20.315  0.00  0.00    +0.000 A 
ATOM     22  C   UNL     1       2.332   7.694  19.101  0.00  0.00    +0.000 A 
ATOM     23  C   UNL     1       2.698   6.507  18.461  0.00  0.00    +0.000 A 
ATOM     24  C   UNL     1       2.397   5.246  19.018  0.00  0.00    +0.000 A 
ENDBRANCH  14  15
ENDBRANCH  13  14
ENDBRANCH   1  13
TORSDOF 8
ENDMDL
MODEL 9
REMARK VINA RESULT:      -6.9      4.347      7.658
REMARK  Name = 
REMARK  8 active torsions:
REMARK  status: ('A' for Active; 'I' for Inactive)
REMARK    1  A    between atoms: C_2  and  O_3
REMARK    2  A    between atoms: C_2  and  C_4
REMARK    3  A    between atoms: C_4  and  C_5
REMARK    4  A    between atoms: C_4  and  C_18
REMARK    5  A    between atoms: C_5  and  C_6
REMARK    6  A    between atoms: C_6  and  O_7
REMARK    7  A    between atoms: O_7  and  C_8
REMARK    8  A    between atoms: C_18  and  N_19
REMARK                            x       y       z     vdW  Elec       q    Type
REMARK                         _______ _______ _______ _____ _____    ______ ____
ROOT
ATOM      1  C   UNL     1       1.421   8.993  21.910  0.00  0.00    +0.000 C 
ENDROOT
BRANCH   1   2
ATOM      2  C   UNL     1       0.405  10.140  21.755  0.00  0.00    +0.000 C 
BRANCH   2   4
ATOM      3  O   UNL     1      -1.486  10.862  23.112  0.00  0.00    +0.000 OA
ATOM      4  C   UNL     1      -0.415  10.277  23.025  0.00  0.00    +0.000 C 
BRANCH   4   5
ATOM      5  O   UNL     1       0.094   9.573  24.068  0.00  0.00    +0.000 OA
ATOM      6  H   UNL     1      -0.262   9.819  24.942  0.00  0.00    +0.000 HD
ENDBRANCH   4   5
ENDBRANCH   2   4
BRANCH   2   7
ATOM      7  C   UNL     1      -0.508   9.875  20.541  0.00  0.00    +0.000 C 
BRANCH   7   8
ATOM      8  N   UNL     1      -0.309  10.798  19.407  0.00  0.00    +0.000 NA
ATOM      9  C   UNL     1      -0.418  10.076  18.123  0.00  0.00    +0.000 C 
ATOM     10  C   UNL     1       0.982   9.552  17.862  0.00  0.00    +0.000 C 
ATOM     11  C   UNL     1       1.861  10.691  18.340  0.00  0.00    +0.000 C 
ATOM     12  C   UNL     1       1.017  11.435  19.371  0.00  0.00    +0.000 C 
ENDBRANCH   7   8
ENDBRANCH   2   7
ENDBRANCH   1   2
BRANCH   1  13
ATOM     13  C   UNL     1       1.052   7.788  21.047  0.00  0.00    +0.000 C 
BRANCH  13  14
ATOM     14  O   UNL     1       2.171   7.412  20.246  0.00  0.00    +0.000 OA
BRANCH  14  15
ATOM     15  C   UNL     1       2.212   6.086  19.871  0.00  0.00    +0.000 A 
ATOM     16  C   UNL     1       1.475   5.084  20.519  0.00  0.00    +0.000 A 
ATOM     17  C   UNL     1       1.549   3.761  20.093  0.00  0.00    +0.000 A 
ATOM     18  C   UNL     1       2.352   3.424  19.009  0.00  0.00    +0.000 A 
ATOM     19  C   UNL     1       3.084   4.406  18.327  0.00  0.00    +0.000 A 
ATOM     20  C   UNL     1       3.878   4.052  17.226  0.00  0.00    +0.000 A 
ATOM     21  C   UNL     1       4.608   5.017  16.531  0.00  0.00    +0.000 A 
ATOM     22  C   UNL     1       4.551   6.348  16.933  0.00  0.00    +0.000 A 
ATOM     23  C   UNL     1       3.766   6.712  18.030  0.00  0.00    +0.000 A 
ATOM     24  C   UNL     1       3.017   5.757  18.750  0.00  0.00    +0.000 A 
ENDBRANCH  14  15
ENDBRANCH  13  14
ENDBRANCH   1  13
TORSDOF 8
ENDMDL
