MODEL 1
REMARK VINA RESULT:      -7.1      0.000      0.000
REMARK  Name = 
REMARK  3 active torsions:
REMARK  status: ('A' for Active; 'I' for Inactive)
REMARK    1  A    between atoms: C_1  and  C_2
REMARK    2  A    between atoms: C_4  and  C_5
REMARK    3  A    between atoms: N_8  and  C_9
REMARK                            x       y       z     vdW  Elec       q    Type
REMARK                         _______ _______ _______ _____ _____    ______ ____
ROOT
ATOM      1  C   UNL     1       7.667   7.204  17.843  0.00  0.00    +0.000 C 
ATOM      2  C   UNL     1       6.696   6.145  17.419  0.00  0.00    +0.000 A 
ATOM      3  C   UNL     1       6.841   5.507  16.206  0.00  0.00    +0.000 A 
ATOM      4  C   UNL     1       5.880   4.569  15.890  0.00  0.00    +0.000 A 
ATOM      5  C   UNL     1       5.946   3.800  14.605  0.00  0.00    +0.000 C 
ATOM      6  N   UNL     1       4.846   4.298  16.705  0.00  0.00    +0.000 NA
ATOM      7  C   UNL     1       4.768   4.965  17.869  0.00  0.00    +0.000 A 
ATOM      8  N   UNL     1       3.726   4.731  18.752  0.00  0.00    +0.000 N 
ATOM      9  N   UNL     1       5.674   5.874  18.259  0.00  0.00    +0.000 NA
ATOM     10  H   UNL     1       4.004   5.042  19.673  0.00  0.00    +0.000 HD
ENDROOT
BRANCH   8  11
ATOM     11  C   UNL     1       2.981   3.483  18.630  0.00  0.00    +0.000 C 
ATOM     12  C   UNL     1       3.411   2.449  19.677  0.00  0.00    +0.000 C 
ATOM     13  C   UNL     1       2.874   2.736  21.075  0.00  0.00    +0.000 C 
ATOM     14  C   UNL     1       1.358   2.870  21.068  0.00  0.00    +0.000 C 
ATOM     15  C   UNL     1       0.899   3.953  20.099  0.00  0.00    +0.000 C 
ATOM     16  C   UNL     1       1.468   3.771  18.693  0.00  0.00    +0.000 C 
ENDBRANCH   8  11
TORSDOF 1
ENDMDL
MODEL 2
REMARK VINA RESULT:      -6.8      1.217      2.836
REMARK  Name = 
REMARK  3 active torsions:
REMARK  status: ('A' for Active; 'I' for Inactive)
REMARK    1  A    between atoms: C_1  and  C_2
REMARK    2  A    between atoms: C_4  and  C_5
REMARK    3  A    between atoms: N_8  and  C_9
REMARK                            x       y       z     vdW  Elec       q    Type
REMARK                         _______ _______ _______ _____ _____    ______ ____
ROOT
ATOM      1  C   UNL     1       6.581   3.996  13.471  0.00  0.00    +0.000 C 
ATOM      2  C   UNL     1       6.341   4.396  14.896  0.00  0.00    +0.000 A 
ATOM      3  C   UNL     1       7.017   5.464  15.447  0.00  0.00    +0.000 A 
ATOM      4  C   UNL     1       6.752   5.737  16.772  0.00  0.00    +0.000 A 
ATOM      5  C   UNL     1       7.415   6.884  17.471  0.00  0.00    +0.000 C 
ATOM      6  N   UNL     1       5.897   4.996  17.500  0.00  0.00    +0.000 NA
ATOM      7  C   UNL     1       5.280   3.968  16.895  0.00  0.00    +0.000 A 
ATOM      8  N   UNL     1       4.389   3.168  17.592  0.00  0.00    +0.000 N 
ATOM      9  N   UNL     1       5.466   3.652  15.605  0.00  0.00    +0.000 NA
ATOM     10  H   UNL     1       3.790   2.694  16.930  0.00  0.00    +0.000 HD
ENDROOT
BRANCH   8  11
ATOM     11  C   UNL     1       3.797   3.693  18.818  0.00  0.00    +0.000 C 
ATOM     12  C   UNL     1       2.655   4.675  18.533  0.00  0.00    +0.000 C 
ATOM     13  C   UNL     1       1.361   3.997  18.096  0.00  0.00    +0.000 C 
ATOM     14  C   UNL     1       0.912   2.956  19.110  0.00  0.00    +0.000 C 
ATOM     15  C   UNL     1       1.994   1.911  19.353  0.00  0.00    +0.000 C 
ATOM     16  C   UNL     1       3.344   2.528  19.719  0.00  0.00    +0.000 C 
ENDBRANCH   8  11
TORSDOF 1
ENDMDL
MODEL 3
REMARK VINA RESULT:      -6.5      1.758      5.803
REMARK  Name = 
REMARK  3 active torsions:
REMARK  status: ('A' for Active; 'I' for Inactive)
REMARK    1  A    between atoms: C_1  and  C_2
REMARK    2  A    between atoms: C_4  and  C_5
REMARK    3  A    between atoms: N_8  and  C_9
REMARK                            x       y       z     vdW  Elec       q    Type
REMARK                         _______ _______ _______ _____ _____    ______ ____
ROOT
ATOM      1  C   UNL     1       1.682   2.933  21.415  0.00  0.00    +0.000 C 
ATOM      2  C   UNL     1       2.205   4.119  20.663  0.00  0.00    +0.000 A 
ATOM      3  C   UNL     1       1.681   5.375  20.883  0.00  0.00    +0.000 A 
ATOM      4  C   UNL     1       2.205   6.398  20.121  0.00  0.00    +0.000 A 
ATOM      5  C   UNL     1       1.724   7.807  20.287  0.00  0.00    +0.000 C 
ATOM      6  N   UNL     1       3.162   6.189  19.199  0.00  0.00    +0.000 NA
ATOM      7  C   UNL     1       3.619   4.936  19.038  0.00  0.00    +0.000 A 
ATOM      8  N   UNL     1       4.605   4.656  18.104  0.00  0.00    +0.000 N 
ATOM      9  N   UNL     1       3.178   3.892  19.755  0.00  0.00    +0.000 NA
ATOM     10  H   UNL     1       5.049   3.783  18.352  0.00  0.00    +0.000 HD
ENDROOT
BRANCH   8  11
ATOM     11  C   UNL     1       5.437   5.753  17.625  0.00  0.00    +0.000 C 
ATOM     12  C   UNL     1       6.933   5.431  17.729  0.00  0.00    +0.000 C 
ATOM     13  C   UNL     1       7.427   4.470  16.653  0.00  0.00    +0.000 C 
ATOM     14  C   UNL     1       7.102   4.985  15.259  0.00  0.00    +0.000 C 
ATOM     15  C   UNL     1       5.607   5.235  15.092  0.00  0.00    +0.000 C 
ATOM     16  C   UNL     1       5.028   6.129  16.188  0.00  0.00    +0.000 C 
ENDBRANCH   8  11
TORSDOF 1
ENDMDL
MODEL 4
REMARK VINA RESULT:      -6.4      1.546      1.938
REMARK  Name = 
REMARK  3 active torsions:
REMARK  status: ('A' for Active; 'I' for Inactive)
REMARK    1  A    between atoms: C_1  and  C_2
REMARK    2  A    between atoms: C_4  and  C_5
REMARK    3  A    between atoms: N_8  and  C_9
REMARK                            x       y       z     vdW  Elec       q    Type
REMARK                         _______ _______ _______ _____ _____    ______ ____
ROOT
ATOM      1  C   UNL     1       8.183   5.513  19.346  0.00  0.00    +0.000 C 
ATOM      2  C   UNL     1       6.812   5.663  18.759  0.00  0.00    +0.000 A 
ATOM      3  C   UNL     1       6.648   6.093  17.460  0.00  0.00    +0.000 A 
ATOM      4  C   UNL     1       5.348   6.229  17.020  0.00  0.00    +0.000 A 
ATOM      5  C   UNL     1       5.050   6.673  15.621  0.00  0.00    +0.000 C 
ATOM      6  N   UNL     1       4.292   5.975  17.814  0.00  0.00    +0.000 NA
ATOM      7  C   UNL     1       4.531   5.564  19.070  0.00  0.00    +0.000 A 
ATOM      8  N   UNL     1       3.485   5.287  19.936  0.00  0.00    +0.000 N 
ATOM      9  N   UNL     1       5.765   5.385  19.565  0.00  0.00    +0.000 NA
ATOM     10  H   UNL     1       3.825   4.688  20.676  0.00  0.00    +0.000 HD
ENDROOT
BRANCH   8  11
ATOM     11  C   UNL     1       2.168   5.017  19.369  0.00  0.00    +0.000 C 
ATOM     12  C   UNL     1       2.225   3.968  18.252  0.00  0.00    +0.000 C 
ATOM     13  C   UNL     1       2.394   2.542  18.762  0.00  0.00    +0.000 C 
ATOM     14  C   UNL     1       1.305   2.179  19.761  0.00  0.00    +0.000 C 
ATOM     15  C   UNL     1       1.278   3.154  20.933  0.00  0.00    +0.000 C 
ATOM     16  C   UNL     1       1.191   4.613  20.489  0.00  0.00    +0.000 C 
ENDBRANCH   8  11
TORSDOF 1
ENDMDL
MODEL 5
REMARK VINA RESULT:      -6.4      1.206      1.286
REMARK  Name = 
REMARK  3 active torsions:
REMARK  status: ('A' for Active; 'I' for Inactive)
REMARK    1  A    between atoms: C_1  and  C_2
REMARK    2  A    between atoms: C_4  and  C_5
REMARK    3  A    between atoms: N_8  and  C_9
REMARK                            x       y       z     vdW  Elec       q    Type
REMARK                         _______ _______ _______ _____ _____    ______ ____
ROOT
ATOM      1  C   UNL     1       8.092   5.794  19.201  0.00  0.00    +0.000 C 
ATOM      2  C   UNL     1       7.066   5.303  18.226  0.00  0.00    +0.000 A 
ATOM      3  C   UNL     1       7.415   5.018  16.924  0.00  0.00    +0.000 A 
ATOM      4  C   UNL     1       6.396   4.600  16.094  0.00  0.00    +0.000 A 
ATOM      5  C   UNL     1       6.662   4.247  14.663  0.00  0.00    +0.000 C 
ATOM      6  N   UNL     1       5.124   4.492  16.519  0.00  0.00    +0.000 NA
ATOM      7  C   UNL     1       4.859   4.792  17.801  0.00  0.00    +0.000 A 
ATOM      8  N   UNL     1       3.569   4.700  18.298  0.00  0.00    +0.000 N 
ATOM      9  N   UNL     1       5.798   5.182  18.676  0.00  0.00    +0.000 NA
ATOM     10  H   UNL     1       3.613   4.625  19.305  0.00  0.00    +0.000 HD
ENDROOT
BRANCH   8  11
ATOM     11  C   UNL     1       2.605   3.876  17.577  0.00  0.00    +0.000 C 
ATOM     12  C   UNL     1       2.946   2.383  17.660  0.00  0.00    +0.000 C 
ATOM     13  C   UNL     1       2.609   1.754  19.007  0.00  0.00    +0.000 C 
ATOM     14  C   UNL     1       1.148   1.975  19.371  0.00  0.00    +0.000 C 
ATOM     15  C   UNL     1       0.796   3.458  19.383  0.00  0.00    +0.000 C 
ATOM     16  C   UNL     1       1.182   4.171  18.088  0.00  0.00    +0.000 C 
ENDBRANCH   8  11
TORSDOF 1
ENDMDL
MODEL 6
REMARK VINA RESULT:      -6.3      1.245      1.452
REMARK  Name = 
REMARK  3 active torsions:
REMARK  status: ('A' for Active; 'I' for Inactive)
REMARK    1  A    between atoms: C_1  and  C_2
REMARK    2  A    between atoms: C_4  and  C_5
REMARK    3  A    between atoms: N_8  and  C_9
REMARK                            x       y       z     vdW  Elec       q    Type
REMARK                         _______ _______ _______ _____ _____    ______ ____
ROOT
ATOM      1  C   UNL     1       8.260   6.218  19.297  0.00  0.00    +0.000 C 
ATOM      2  C   UNL     1       7.289   5.512  18.399  0.00  0.00    +0.000 A 
ATOM      3  C   UNL     1       7.462   5.524  17.032  0.00  0.00    +0.000 A 
ATOM      4  C   UNL     1       6.501   4.872  16.288  0.00  0.00    +0.000 A 
ATOM      5  C   UNL     1       6.596   4.805  14.795  0.00  0.00    +0.000 C 
ATOM      6  N   UNL     1       5.440   4.271  16.856  0.00  0.00    +0.000 NA
ATOM      7  C   UNL     1       5.336   4.307  18.194  0.00  0.00    +0.000 A 
ATOM      8  N   UNL     1       4.266   3.706  18.838  0.00  0.00    +0.000 N 
ATOM      9  N   UNL     1       6.240   4.899  18.989  0.00  0.00    +0.000 NA
ATOM     10  H   UNL     1       4.520   3.535  19.802  0.00  0.00    +0.000 HD
ENDROOT
BRANCH   8  11
ATOM     11  C   UNL     1       3.510   2.684  18.122  0.00  0.00    +0.000 C 
ATOM     12  C   UNL     1       2.912   1.638  19.070  0.00  0.00    +0.000 C 
ATOM     13  C   UNL     1       1.689   2.134  19.832  0.00  0.00    +0.000 C 
ATOM     14  C   UNL     1       0.616   2.648  18.883  0.00  0.00    +0.000 C 
ATOM     15  C   UNL     1       1.155   3.754  17.982  0.00  0.00    +0.000 C 
ATOM     16  C   UNL     1       2.432   3.351  17.246  0.00  0.00    +0.000 C 
ENDBRANCH   8  11
TORSDOF 1
ENDMDL
MODEL 7
REMARK VINA RESULT:      -6.3      0.981      2.676
REMARK  Name = 
REMARK  3 active torsions:
REMARK  status: ('A' for Active; 'I' for Inactive)
REMARK    1  A    between atoms: C_1  and  C_2
REMARK    2  A    between atoms: C_4  and  C_5
REMARK    3  A    between atoms: N_8  and  C_9
REMARK                            x       y       z     vdW  Elec       q    Type
REMARK                         _______ _______ _______ _____ _____    ______ ____
ROOT
ATOM      1  C   UNL     1       6.282   4.137  14.562  0.00  0.00    +0.000 C 
ATOM      2  C   UNL     1       6.127   4.449  16.019  0.00  0.00    +0.000 A 
ATOM      3  C   UNL     1       7.138   5.077  16.713  0.00  0.00    +0.000 A 
ATOM      4  C   UNL     1       6.915   5.295  18.057  0.00  0.00    +0.000 A 
ATOM      5  C   UNL     1       7.938   5.985  18.907  0.00  0.00    +0.000 C 
ATOM      6  N   UNL     1       5.783   4.903  18.668  0.00  0.00    +0.000 NA
ATOM      7  C   UNL     1       4.844   4.291  17.927  0.00  0.00    +0.000 A 
ATOM      8  N   UNL     1       3.657   3.864  18.500  0.00  0.00    +0.000 N 
ATOM      9  N   UNL     1       4.976   4.064  16.612  0.00  0.00    +0.000 NA
ATOM     10  H   UNL     1       2.965   3.753  17.771  0.00  0.00    +0.000 HD
ENDROOT
BRANCH   8  11
ATOM     11  C   UNL     1       3.246   4.455  19.768  0.00  0.00    +0.000 C 
ATOM     12  C   UNL     1       1.776   4.892  19.752  0.00  0.00    +0.000 C 
ATOM     13  C   UNL     1       0.793   3.734  19.874  0.00  0.00    +0.000 C 
ATOM     14  C   UNL     1       1.074   2.897  21.114  0.00  0.00    +0.000 C 
ATOM     15  C   UNL     1       2.505   2.372  21.119  0.00  0.00    +0.000 C 
ATOM     16  C   UNL     1       3.543   3.476  20.920  0.00  0.00    +0.000 C 
ENDBRANCH   8  11
TORSDOF 1
ENDMDL
MODEL 8
REMARK VINA RESULT:      -6.1      1.726      5.573
REMARK  Name = 
REMARK  3 active torsions:
REMARK  status: ('A' for Active; 'I' for Inactive)
REMARK    1  A    between atoms: C_1  and  C_2
REMARK    2  A    between atoms: C_4  and  C_5
REMARK    3  A    between atoms: N_8  and  C_9
REMARK                            x       y       z     vdW  Elec       q    Type
REMARK                         _______ _______ _______ _____ _____    ______ ____
ROOT
ATOM      1  C   UNL     1       1.334   7.674  20.547  0.00  0.00    +0.000 C 
ATOM      2  C   UNL     1       2.099   6.413  20.284  0.00  0.00    +0.000 A 
ATOM      3  C   UNL     1       1.723   5.228  20.881  0.00  0.00    +0.000 A 
ATOM      4  C   UNL     1       2.506   4.128  20.601  0.00  0.00    +0.000 A 
ATOM      5  C   UNL     1       2.183   2.784  21.181  0.00  0.00    +0.000 C 
ATOM      6  N   UNL     1       3.589   4.200  19.807  0.00  0.00    +0.000 NA
ATOM      7  C   UNL     1       3.895   5.391  19.265  0.00  0.00    +0.000 A 
ATOM      8  N   UNL     1       4.998   5.530  18.438  0.00  0.00    +0.000 N 
ATOM      9  N   UNL     1       3.171   6.502  19.469  0.00  0.00    +0.000 NA
ATOM     10  H   UNL     1       4.879   6.360  17.874  0.00  0.00    +0.000 HD
ENDROOT
BRANCH   8  11
ATOM     11  C   UNL     1       5.553   4.334  17.814  0.00  0.00    +0.000 C 
ATOM     12  C   UNL     1       4.798   3.947  16.536  0.00  0.00    +0.000 C 
ATOM     13  C   UNL     1       5.130   4.832  15.340  0.00  0.00    +0.000 C 
ATOM     14  C   UNL     1       6.628   4.860  15.071  0.00  0.00    +0.000 C 
ATOM     15  C   UNL     1       7.405   5.325  16.298  0.00  0.00    +0.000 C 
ATOM     16  C   UNL     1       7.059   4.530  17.556  0.00  0.00    +0.000 C 
ENDBRANCH   8  11
TORSDOF 1
ENDMDL
MODEL 9
REMARK VINA RESULT:      -6.0      2.687      4.768
REMARK  Name = 
REMARK  3 active torsions:
REMARK  status: ('A' for Active; 'I' for Inactive)
REMARK    1  A    between atoms: C_1  and  C_2
REMARK    2  A    between atoms: C_4  and  C_5
REMARK    3  A    between atoms: N_8  and  C_9
REMARK                            x       y       z     vdW  Elec       q    Type
REMARK                         _______ _______ _______ _____ _____    ______ ____
ROOT
ATOM      1  C   UNL     1       5.388   2.534  11.595  0.00  0.00    +0.000 C 
ATOM      2  C   UNL     1       6.071   3.487  12.529  0.00  0.00    +0.000 A 
ATOM      3  C   UNL     1       7.103   4.285  12.085  0.00  0.00    +0.000 A 
ATOM      4  C   UNL     1       7.689   5.106  13.025  0.00  0.00    +0.000 A 
ATOM      5  C   UNL     1       8.808   6.029  12.652  0.00  0.00    +0.000 C 
ATOM      6  N   UNL     1       7.293   5.122  14.310  0.00  0.00    +0.000 NA
ATOM      7  C   UNL     1       6.284   4.312  14.670  0.00  0.00    +0.000 A 
ATOM      8  N   UNL     1       5.831   4.282  15.979  0.00  0.00    +0.000 N 
ATOM      9  N   UNL     1       5.647   3.501  13.811  0.00  0.00    +0.000 NA
ATOM     10  H   UNL     1       4.894   3.903  15.991  0.00  0.00    +0.000 HD
ENDROOT
BRANCH   8  11
ATOM     11  C   UNL     1       6.138   5.415  16.845  0.00  0.00    +0.000 C 
ATOM     12  C   UNL     1       5.000   6.443  16.875  0.00  0.00    +0.000 C 
ATOM     13  C   UNL     1       3.807   6.009  17.718  0.00  0.00    +0.000 C 
ATOM     14  C   UNL     1       4.230   5.661  19.137  0.00  0.00    +0.000 C 
ATOM     15  C   UNL     1       5.301   4.576  19.149  0.00  0.00    +0.000 C 
ATOM     16  C   UNL     1       6.495   4.911  18.256  0.00  0.00    +0.000 C 
ENDBRANCH   8  11
TORSDOF 1
ENDMDL
