MODEL 1
REMARK VINA RESULT:      -7.2      0.000      0.000
REMARK  Name = 
REMARK  14 active torsions:
REMARK  status: ('A' for Active; 'I' for Inactive)
REMARK    1  A    between atoms: C_1  and  C_2
REMARK    2  A    between atoms: C_2  and  O_3
REMARK    3  A    between atoms: O_3  and  C_4
REMARK    4  A    between atoms: C_6  and  C_7
REMARK    5  A    between atoms: C_7  and  C_8
REMARK    6  A    between atoms: C_11  and  O_12
REMARK    7  A    between atoms: C_13  and  C_14
REMARK    8  A    between atoms: C_14  and  C_15
REMARK    9  A    between atoms: C_17  and  O_18
REMARK   10  A    between atoms: O_18  and  C_19
REMARK   11  A    between atoms: C_20  and  O_21
REMARK   12  A    between atoms: O_21  and  C_22
REMARK   13  A    between atoms: C_23  and  O_24
REMARK   14  A    between atoms: O_24  and  C_25
REMARK                            x       y       z     vdW  Elec       q    Type
REMARK                         _______ _______ _______ _____ _____    ______ ____
ROOT
ATOM      1  C   UNL     1       2.899   4.223  19.461  0.00  0.00    +0.000 C 
ATOM      2  C   UNL     1       2.114   2.995  19.012  0.00  0.00    +0.000 C 
ATOM      3  O   UNL     1       1.646   2.308  20.181  0.00  0.00    +0.000 OA
ATOM      4  C   UNL     1       1.926   3.095  21.332  0.00  0.00    +0.000 C 
ATOM      5  C   UNL     1       2.307   4.494  20.852  0.00  0.00    +0.000 C 
ENDROOT
BRANCH   4   6
ATOM      6  O   UNL     1       3.010   2.498  22.013  0.00  0.00    +0.000 OA
ATOM      7  H   UNL     1       3.021   1.588  21.675  0.00  0.00    +0.000 HD
ENDBRANCH   4   6
BRANCH   1   8
ATOM      8  C   UNL     1       4.427   3.986  19.463  0.00  0.00    +0.000 C 
BRANCH   8  11
ATOM      9  C   UNL     1       6.314   6.270  16.988  0.00  0.00    +0.000 A 
ATOM     10  C   UNL     1       5.703   5.781  18.154  0.00  0.00    +0.000 A 
ATOM     11  C   UNL     1       5.123   4.491  18.208  0.00  0.00    +0.000 A 
ATOM     12  C   UNL     1       5.195   3.676  17.072  0.00  0.00    +0.000 A 
ATOM     13  C   UNL     1       5.807   4.166  15.939  0.00  0.00    +0.000 A 
ATOM     14  C   UNL     1       6.348   5.434  15.890  0.00  0.00    +0.000 A 
ATOM     15  O   UNL     1       6.882   5.693  14.659  0.00  0.00    +0.000 OA
ATOM     16  C   UNL     1       6.685   4.440  13.984  0.00  0.00    +0.000 C 
ATOM     17  O   UNL     1       5.946   3.489  14.761  0.00  0.00    +0.000 OA
BRANCH   9  18
ATOM     18  O   UNL     1       6.818   7.543  17.074  0.00  0.00    +0.000 OA
BRANCH  18  20
ATOM     19  C   UNL     1       8.301   9.186  18.013  0.00  0.00    +0.000 C 
ATOM     20  C   UNL     1       7.956   7.714  17.922  0.00  0.00    +0.000 C 
ENDBRANCH  18  20
ENDBRANCH   9  18
ENDBRANCH   8  11
ENDBRANCH   1   8
BRANCH   5  21
ATOM     21  C   UNL     1       1.022   5.345  20.770  0.00  0.00    +0.000 C 
BRANCH  21  22
ATOM     22  C   UNL     1       1.243   6.819  20.543  0.00  0.00    +0.000 A 
ATOM     23  C   UNL     1       1.726   7.273  19.317  0.00  0.00    +0.000 A 
ATOM     24  C   UNL     1       1.841   8.642  19.041  0.00  0.00    +0.000 A 
ATOM     25  C   UNL     1       1.427   9.596  20.004  0.00  0.00    +0.000 A 
ATOM     26  C   UNL     1       0.969   9.138  21.257  0.00  0.00    +0.000 A 
ATOM     27  C   UNL     1       0.922   7.760  21.521  0.00  0.00    +0.000 A 
BRANCH  24  28
ATOM     28  O   UNL     1       2.355   9.102  17.847  0.00  0.00    +0.000 OA
ATOM     29  C   UNL     1       3.202   8.191  17.149  0.00  0.00    +0.000 C 
ENDBRANCH  24  28
BRANCH  25  30
ATOM     30  O   UNL     1       1.553  10.918  19.638  0.00  0.00    +0.000 OA
ATOM     31  C   UNL     1       0.379  11.585  19.178  0.00  0.00    +0.000 C 
ENDBRANCH  25  30
BRANCH  26  32
ATOM     32  O   UNL     1       0.645  10.046  22.234  0.00  0.00    +0.000 OA
ATOM     33  C   UNL     1      -0.448   9.683  23.076  0.00  0.00    +0.000 C 
ENDBRANCH  26  32
ENDBRANCH  21  22
ENDBRANCH   5  21
TORSDOF 10
ENDMDL
MODEL 2
REMARK VINA RESULT:      -7.2      1.360      1.867
REMARK  Name = 
REMARK  14 active torsions:
REMARK  status: ('A' for Active; 'I' for Inactive)
REMARK    1  A    between atoms: C_1  and  C_2
REMARK    2  A    between atoms: C_2  and  O_3
REMARK    3  A    between atoms: O_3  and  C_4
REMARK    4  A    between atoms: C_6  and  C_7
REMARK    5  A    between atoms: C_7  and  C_8
REMARK    6  A    between atoms: C_11  and  O_12
REMARK    7  A    between atoms: C_13  and  C_14
REMARK    8  A    between atoms: C_14  and  C_15
REMARK    9  A    between atoms: C_17  and  O_18
REMARK   10  A    between atoms: O_18  and  C_19
REMARK   11  A    between atoms: C_20  and  O_21
REMARK   12  A    between atoms: O_21  and  C_22
REMARK   13  A    between atoms: C_23  and  O_24
REMARK   14  A    between atoms: O_24  and  C_25
REMARK                            x       y       z     vdW  Elec       q    Type
REMARK                         _______ _______ _______ _____ _____    ______ ____
ROOT
ATOM      1  C   UNL     1       2.580   5.125  18.448  0.00  0.00    +0.000 C 
ATOM      2  C   UNL     1       1.398   4.207  18.744  0.00  0.00    +0.000 C 
ATOM      3  O   UNL     1       0.955   4.463  20.084  0.00  0.00    +0.000 OA
ATOM      4  C   UNL     1       1.651   5.589  20.603  0.00  0.00    +0.000 C 
ATOM      5  C   UNL     1       2.345   6.281  19.432  0.00  0.00    +0.000 C 
ENDROOT
BRANCH   4   6
ATOM      6  O   UNL     1       2.607   5.119  21.530  0.00  0.00    +0.000 OA
ATOM      7  H   UNL     1       2.976   4.330  21.100  0.00  0.00    +0.000 HD
ENDBRANCH   4   6
BRANCH   1   8
ATOM      8  C   UNL     1       3.943   4.417  18.624  0.00  0.00    +0.000 C 
BRANCH   8  11
ATOM      9  C   UNL     1       6.640   6.286  16.590  0.00  0.00    +0.000 A 
ATOM     10  C   UNL     1       5.733   5.941  17.605  0.00  0.00    +0.000 A 
ATOM     11  C   UNL     1       4.953   4.762  17.539  0.00  0.00    +0.000 A 
ATOM     12  C   UNL     1       5.121   3.907  16.444  0.00  0.00    +0.000 A 
ATOM     13  C   UNL     1       6.022   4.254  15.461  0.00  0.00    +0.000 A 
ATOM     14  C   UNL     1       6.761   5.419  15.523  0.00  0.00    +0.000 A 
ATOM     15  O   UNL     1       7.569   5.547  14.429  0.00  0.00    +0.000 OA
ATOM     16  C   UNL     1       7.313   4.318  13.729  0.00  0.00    +0.000 C 
ATOM     17  O   UNL     1       6.286   3.524  14.338  0.00  0.00    +0.000 OA
BRANCH   9  18
ATOM     18  O   UNL     1       7.316   7.466  16.777  0.00  0.00    +0.000 OA
BRANCH  18  20
ATOM     19  C   UNL     1       8.490   9.038  18.165  0.00  0.00    +0.000 C 
ATOM     20  C   UNL     1       7.976   7.620  18.036  0.00  0.00    +0.000 C 
ENDBRANCH  18  20
ENDBRANCH   9  18
ENDBRANCH   8  11
ENDBRANCH   1   8
BRANCH   5  21
ATOM     21  C   UNL     1       1.380   7.337  18.851  0.00  0.00    +0.000 C 
BRANCH  21  22
ATOM     22  C   UNL     1       1.337   8.646  19.598  0.00  0.00    +0.000 A 
ATOM     23  C   UNL     1       1.392   9.851  18.899  0.00  0.00    +0.000 A 
ATOM     24  C   UNL     1       1.248  11.081  19.554  0.00  0.00    +0.000 A 
ATOM     25  C   UNL     1       1.004  11.115  20.950  0.00  0.00    +0.000 A 
ATOM     26  C   UNL     1       0.980   9.898  21.663  0.00  0.00    +0.000 A 
ATOM     27  C   UNL     1       1.187   8.688  20.983  0.00  0.00    +0.000 A 
BRANCH  24  28
ATOM     28  O   UNL     1       1.341  12.279  18.880  0.00  0.00    +0.000 OA
ATOM     29  C   UNL     1       2.457  12.406  18.000  0.00  0.00    +0.000 C 
ENDBRANCH  24  28
BRANCH  25  30
ATOM     30  O   UNL     1       0.850  12.366  21.506  0.00  0.00    +0.000 OA
ATOM     31  C   UNL     1      -0.480  12.804  21.774  0.00  0.00    +0.000 C 
ENDBRANCH  25  30
BRANCH  26  32
ATOM     32  O   UNL     1       0.831   9.914  23.027  0.00  0.00    +0.000 OA
ATOM     33  C   UNL     1      -0.463   9.559  23.512  0.00  0.00    +0.000 C 
ENDBRANCH  26  32
ENDBRANCH  21  22
ENDBRANCH   5  21
TORSDOF 10
ENDMDL
MODEL 3
REMARK VINA RESULT:      -7.2      1.441      2.769
REMARK  Name = 
REMARK  14 active torsions:
REMARK  status: ('A' for Active; 'I' for Inactive)
REMARK    1  A    between atoms: C_1  and  C_2
REMARK    2  A    between atoms: C_2  and  O_3
REMARK    3  A    between atoms: O_3  and  C_4
REMARK    4  A    between atoms: C_6  and  C_7
REMARK    5  A    between atoms: C_7  and  C_8
REMARK    6  A    between atoms: C_11  and  O_12
REMARK    7  A    between atoms: C_13  and  C_14
REMARK    8  A    between atoms: C_14  and  C_15
REMARK    9  A    between atoms: C_17  and  O_18
REMARK   10  A    between atoms: O_18  and  C_19
REMARK   11  A    between atoms: C_20  and  O_21
REMARK   12  A    between atoms: O_21  and  C_22
REMARK   13  A    between atoms: C_23  and  O_24
REMARK   14  A    between atoms: O_24  and  C_25
REMARK                            x       y       z     vdW  Elec       q    Type
REMARK                         _______ _______ _______ _____ _____    ______ ____
ROOT
ATOM      1  C   UNL     1       1.789   3.996  19.189  0.00  0.00    +0.000 C 
ATOM      2  C   UNL     1       0.702   3.102  19.779  0.00  0.00    +0.000 C 
ATOM      3  O   UNL     1       1.206   2.519  20.988  0.00  0.00    +0.000 OA
ATOM      4  C   UNL     1       2.463   3.104  21.304  0.00  0.00    +0.000 C 
ATOM      5  C   UNL     1       2.626   4.345  20.429  0.00  0.00    +0.000 C 
ENDROOT
BRANCH   4   6
ATOM      6  O   UNL     1       3.469   2.159  21.006  0.00  0.00    +0.000 OA
ATOM      7  H   UNL     1       4.294   2.665  21.091  0.00  0.00    +0.000 HD
ENDBRANCH   4   6
BRANCH   1   8
ATOM      8  C   UNL     1       2.589   3.299  18.065  0.00  0.00    +0.000 C 
BRANCH   8  11
ATOM      9  C   UNL     1       5.976   4.281  16.494  0.00  0.00    +0.000 A 
ATOM     10  C   UNL     1       4.657   3.823  16.646  0.00  0.00    +0.000 A 
ATOM     11  C   UNL     1       4.003   3.836  17.902  0.00  0.00    +0.000 A 
ATOM     12  C   UNL     1       4.688   4.351  19.008  0.00  0.00    +0.000 A 
ATOM     13  C   UNL     1       5.977   4.805  18.841  0.00  0.00    +0.000 A 
ATOM     14  C   UNL     1       6.614   4.767  17.616  0.00  0.00    +0.000 A 
ATOM     15  O   UNL     1       7.886   5.258  17.708  0.00  0.00    +0.000 OA
ATOM     16  C   UNL     1       7.943   5.670  19.084  0.00  0.00    +0.000 C 
ATOM     17  O   UNL     1       6.766   5.327  19.826  0.00  0.00    +0.000 OA
BRANCH   9  18
ATOM     18  O   UNL     1       6.489   4.193  15.224  0.00  0.00    +0.000 OA
BRANCH  18  20
ATOM     19  C   UNL     1       6.194   3.640  12.903  0.00  0.00    +0.000 C 
ATOM     20  C   UNL     1       5.534   4.167  14.160  0.00  0.00    +0.000 C 
ENDBRANCH  18  20
ENDBRANCH   9  18
ENDBRANCH   8  11
ENDBRANCH   1   8
BRANCH   5  21
ATOM     21  C   UNL     1       2.044   5.555  21.189  0.00  0.00    +0.000 C 
BRANCH  21  22
ATOM     22  C   UNL     1       1.943   6.828  20.388  0.00  0.00    +0.000 A 
ATOM     23  C   UNL     1       2.550   6.915  19.136  0.00  0.00    +0.000 A 
ATOM     24  C   UNL     1       2.385   8.045  18.323  0.00  0.00    +0.000 A 
ATOM     25  C   UNL     1       1.558   9.112  18.754  0.00  0.00    +0.000 A 
ATOM     26  C   UNL     1       0.970   9.039  20.033  0.00  0.00    +0.000 A 
ATOM     27  C   UNL     1       1.204   7.918  20.845  0.00  0.00    +0.000 A 
BRANCH  24  28
ATOM     28  O   UNL     1       3.014   8.159  17.102  0.00  0.00    +0.000 OA
ATOM     29  C   UNL     1       4.228   7.424  16.962  0.00  0.00    +0.000 C 
ENDBRANCH  24  28
BRANCH  25  30
ATOM     30  O   UNL     1       1.433  10.170  17.880  0.00  0.00    +0.000 OA
ATOM     31  C   UNL     1       2.247  11.317  18.120  0.00  0.00    +0.000 C 
ENDBRANCH  25  30
BRANCH  26  32
ATOM     32  O   UNL     1       0.235  10.098  20.505  0.00  0.00    +0.000 OA
ATOM     33  C   UNL     1       0.184  10.231  21.925  0.00  0.00    +0.000 C 
ENDBRANCH  26  32
ENDBRANCH  21  22
ENDBRANCH   5  21
TORSDOF 10
ENDMDL
MODEL 4
REMARK VINA RESULT:      -7.2      1.492      2.704
REMARK  Name = 
REMARK  14 active torsions:
REMARK  status: ('A' for Active; 'I' for Inactive)
REMARK    1  A    between atoms: C_1  and  C_2
REMARK    2  A    between atoms: C_2  and  O_3
REMARK    3  A    between atoms: O_3  and  C_4
REMARK    4  A    between atoms: C_6  and  C_7
REMARK    5  A    between atoms: C_7  and  C_8
REMARK    6  A    between atoms: C_11  and  O_12
REMARK    7  A    between atoms: C_13  and  C_14
REMARK    8  A    between atoms: C_14  and  C_15
REMARK    9  A    between atoms: C_17  and  O_18
REMARK   10  A    between atoms: O_18  and  C_19
REMARK   11  A    between atoms: C_20  and  O_21
REMARK   12  A    between atoms: O_21  and  C_22
REMARK   13  A    between atoms: C_23  and  O_24
REMARK   14  A    between atoms: O_24  and  C_25
REMARK                            x       y       z     vdW  Elec       q    Type
REMARK                         _______ _______ _______ _____ _____    ______ ____
ROOT
ATOM      1  C   UNL     1       2.666   5.147  18.162  0.00  0.00    +0.000 C 
ATOM      2  C   UNL     1       1.473   4.263  18.512  0.00  0.00    +0.000 C 
ATOM      3  O   UNL     1       1.028   4.610  19.831  0.00  0.00    +0.000 OA
ATOM      4  C   UNL     1       1.734   5.761  20.278  0.00  0.00    +0.000 C 
ATOM      5  C   UNL     1       2.439   6.368  19.067  0.00  0.00    +0.000 C 
ENDROOT
BRANCH   4   6
ATOM      6  O   UNL     1       2.681   5.342  21.238  0.00  0.00    +0.000 OA
ATOM      7  H   UNL     1       2.682   4.374  21.155  0.00  0.00    +0.000 HD
ENDBRANCH   4   6
BRANCH   1   8
ATOM      8  C   UNL     1       4.020   4.439  18.390  0.00  0.00    +0.000 C 
BRANCH   8  11
ATOM      9  C   UNL     1       6.974   6.031  16.480  0.00  0.00    +0.000 A 
ATOM     10  C   UNL     1       6.043   5.727  17.487  0.00  0.00    +0.000 A 
ATOM     11  C   UNL     1       5.051   4.733  17.309  0.00  0.00    +0.000 A 
ATOM     12  C   UNL     1       5.026   4.018  16.107  0.00  0.00    +0.000 A 
ATOM     13  C   UNL     1       5.953   4.321  15.133  0.00  0.00    +0.000 A 
ATOM     14  C   UNL     1       6.901   5.308  15.307  0.00  0.00    +0.000 A 
ATOM     15  O   UNL     1       7.692   5.431  14.199  0.00  0.00    +0.000 OA
ATOM     16  C   UNL     1       7.190   4.377  13.362  0.00  0.00    +0.000 C 
ATOM     17  O   UNL     1       6.046   3.712  13.914  0.00  0.00    +0.000 OA
BRANCH   9  18
ATOM     18  O   UNL     1       7.866   7.029  16.783  0.00  0.00    +0.000 OA
BRANCH  18  20
ATOM     19  C   UNL     1       8.457   8.852  18.235  0.00  0.00    +0.000 C 
ATOM     20  C   UNL     1       7.338   8.153  17.492  0.00  0.00    +0.000 C 
ENDBRANCH  18  20
ENDBRANCH   9  18
ENDBRANCH   8  11
ENDBRANCH   1   8
BRANCH   5  21
ATOM     21  C   UNL     1       1.487   7.393  18.415  0.00  0.00    +0.000 C 
BRANCH  21  22
ATOM     22  C   UNL     1       1.233   8.638  19.226  0.00  0.00    +0.000 A 
ATOM     23  C   UNL     1       1.287   8.589  20.617  0.00  0.00    +0.000 A 
ATOM     24  C   UNL     1       1.162   9.749  21.393  0.00  0.00    +0.000 A 
ATOM     25  C   UNL     1       1.012  11.010  20.763  0.00  0.00    +0.000 A 
ATOM     26  C   UNL     1       0.926  11.057  19.356  0.00  0.00    +0.000 A 
ATOM     27  C   UNL     1       0.997   9.868  18.613  0.00  0.00    +0.000 A 
BRANCH  24  28
ATOM     28  O   UNL     1       1.172   9.708  22.771  0.00  0.00    +0.000 OA
ATOM     29  C   UNL     1      -0.087   9.446  23.390  0.00  0.00    +0.000 C 
ENDBRANCH  24  28
BRANCH  25  30
ATOM     30  O   UNL     1       0.921  12.099  21.602  0.00  0.00    +0.000 OA
ATOM     31  C   UNL     1      -0.379  12.634  21.842  0.00  0.00    +0.000 C 
ENDBRANCH  25  30
BRANCH  26  32
ATOM     32  O   UNL     1       0.695  12.256  18.730  0.00  0.00    +0.000 OA
ATOM     33  C   UNL     1      -0.638  12.465  18.266  0.00  0.00    +0.000 C 
ENDBRANCH  26  32
ENDBRANCH  21  22
ENDBRANCH   5  21
TORSDOF 10
ENDMDL
MODEL 5
REMARK VINA RESULT:      -7.1      0.860      2.499
REMARK  Name = 
REMARK  14 active torsions:
REMARK  status: ('A' for Active; 'I' for Inactive)
REMARK    1  A    between atoms: C_1  and  C_2
REMARK    2  A    between atoms: C_2  and  O_3
REMARK    3  A    between atoms: O_3  and  C_4
REMARK    4  A    between atoms: C_6  and  C_7
REMARK    5  A    between atoms: C_7  and  C_8
REMARK    6  A    between atoms: C_11  and  O_12
REMARK    7  A    between atoms: C_13  and  C_14
REMARK    8  A    between atoms: C_14  and  C_15
REMARK    9  A    between atoms: C_17  and  O_18
REMARK   10  A    between atoms: O_18  and  C_19
REMARK   11  A    between atoms: C_20  and  O_21
REMARK   12  A    between atoms: O_21  and  C_22
REMARK   13  A    between atoms: C_23  and  O_24
REMARK   14  A    between atoms: O_24  and  C_25
REMARK                            x       y       z     vdW  Elec       q    Type
REMARK                         _______ _______ _______ _____ _____    ______ ____
ROOT
ATOM      1  C   UNL     1       2.971   3.486  19.343  0.00  0.00    +0.000 C 
ATOM      2  C   UNL     1       2.138   2.228  19.117  0.00  0.00    +0.000 C 
ATOM      3  O   UNL     1       1.694   1.748  20.394  0.00  0.00    +0.000 OA
ATOM      4  C   UNL     1       2.035   2.696  21.398  0.00  0.00    +0.000 C 
ATOM      5  C   UNL     1       2.435   3.990  20.692  0.00  0.00    +0.000 C 
ENDROOT
BRANCH   4   6
ATOM      6  O   UNL     1       3.126   2.179  22.130  0.00  0.00    +0.000 OA
ATOM      7  H   UNL     1       3.574   2.972  22.467  0.00  0.00    +0.000 HD
ENDBRANCH   4   6
BRANCH   1   8
ATOM      8  C   UNL     1       4.491   3.204  19.336  0.00  0.00    +0.000 C 
BRANCH   8  11
ATOM      9  C   UNL     1       5.989   5.114  16.334  0.00  0.00    +0.000 A 
ATOM     10  C   UNL     1       5.224   4.220  17.101  0.00  0.00    +0.000 A 
ATOM     11  C   UNL     1       5.292   4.204  18.515  0.00  0.00    +0.000 A 
ATOM     12  C   UNL     1       6.122   5.129  19.157  0.00  0.00    +0.000 A 
ATOM     13  C   UNL     1       6.858   6.007  18.391  0.00  0.00    +0.000 A 
ATOM     14  C   UNL     1       6.803   5.998  17.011  0.00  0.00    +0.000 A 
ATOM     15  O   UNL     1       7.631   6.947  16.481  0.00  0.00    +0.000 OA
ATOM     16  C   UNL     1       8.139   7.587  17.663  0.00  0.00    +0.000 C 
ATOM     17  O   UNL     1       7.710   6.957  18.876  0.00  0.00    +0.000 OA
BRANCH   9  18
ATOM     18  O   UNL     1       5.837   5.006  14.974  0.00  0.00    +0.000 OA
BRANCH  18  20
ATOM     19  C   UNL     1       6.334   3.820  12.943  0.00  0.00    +0.000 C 
ATOM     20  C   UNL     1       6.029   3.701  14.421  0.00  0.00    +0.000 C 
ENDBRANCH  18  20
ENDBRANCH   9  18
ENDBRANCH   8  11
ENDBRANCH   1   8
BRANCH   5  21
ATOM     21  C   UNL     1       1.172   4.858  20.516  0.00  0.00    +0.000 C 
BRANCH  21  22
ATOM     22  C   UNL     1       1.430   6.317  20.236  0.00  0.00    +0.000 A 
ATOM     23  C   UNL     1       1.904   6.715  18.988  0.00  0.00    +0.000 A 
ATOM     24  C   UNL     1       2.052   8.070  18.663  0.00  0.00    +0.000 A 
ATOM     25  C   UNL     1       1.682   9.068  19.600  0.00  0.00    +0.000 A 
ATOM     26  C   UNL     1       1.232   8.665  20.874  0.00  0.00    +0.000 A 
ATOM     27  C   UNL     1       1.151   7.299  21.186  0.00  0.00    +0.000 A 
BRANCH  24  28
ATOM     28  O   UNL     1       2.559   8.476  17.447  0.00  0.00    +0.000 OA
ATOM     29  C   UNL     1       3.761   7.827  17.033  0.00  0.00    +0.000 C 
ENDBRANCH  24  28
BRANCH  25  30
ATOM     30  O   UNL     1       1.837  10.373  19.187  0.00  0.00    +0.000 OA
ATOM     31  C   UNL     1       0.661  11.086  18.811  0.00  0.00    +0.000 C 
ENDBRANCH  25  30
BRANCH  26  32
ATOM     32  O   UNL     1       0.950   9.614  21.826  0.00  0.00    +0.000 OA
ATOM     33  C   UNL     1      -0.421   9.717  22.207  0.00  0.00    +0.000 C 
ENDBRANCH  26  32
ENDBRANCH  21  22
ENDBRANCH   5  21
TORSDOF 10
ENDMDL
MODEL 6
REMARK VINA RESULT:      -7.0      1.348      3.514
REMARK  Name = 
REMARK  14 active torsions:
REMARK  status: ('A' for Active; 'I' for Inactive)
REMARK    1  A    between atoms: C_1  and  C_2
REMARK    2  A    between atoms: C_2  and  O_3
REMARK    3  A    between atoms: O_3  and  C_4
REMARK    4  A    between atoms: C_6  and  C_7
REMARK    5  A    between atoms: C_7  and  C_8
REMARK    6  A    between atoms: C_11  and  O_12
REMARK    7  A    between atoms: C_13  and  C_14
REMARK    8  A    between atoms: C_14  and  C_15
REMARK    9  A    between atoms: C_17  and  O_18
REMARK   10  A    between atoms: O_18  and  C_19
REMARK   11  A    between atoms: C_20  and  O_21
REMARK   12  A    between atoms: O_21  and  C_22
REMARK   13  A    between atoms: C_23  and  O_24
REMARK   14  A    between atoms: O_24  and  C_25
REMARK                            x       y       z     vdW  Elec       q    Type
REMARK                         _______ _______ _______ _____ _____    ______ ____
ROOT
ATOM      1  C   UNL     1       1.795   4.141  19.305  0.00  0.00    +0.000 C 
ATOM      2  C   UNL     1       0.679   3.265  19.868  0.00  0.00    +0.000 C 
ATOM      3  O   UNL     1       1.147   2.669  21.085  0.00  0.00    +0.000 OA
ATOM      4  C   UNL     1       2.407   3.230  21.431  0.00  0.00    +0.000 C 
ATOM      5  C   UNL     1       2.612   4.470  20.564  0.00  0.00    +0.000 C 
ENDROOT
BRANCH   4   6
ATOM      6  O   UNL     1       3.402   2.267  21.151  0.00  0.00    +0.000 OA
ATOM      7  H   UNL     1       3.329   2.132  20.191  0.00  0.00    +0.000 HD
ENDBRANCH   4   6
BRANCH   1   8
ATOM      8  C   UNL     1       2.606   3.433  18.196  0.00  0.00    +0.000 C 
BRANCH   8  11
ATOM      9  C   UNL     1       5.848   4.657  16.494  0.00  0.00    +0.000 A 
ATOM     10  C   UNL     1       4.553   4.151  16.693  0.00  0.00    +0.000 A 
ATOM     11  C   UNL     1       3.994   4.021  17.987  0.00  0.00    +0.000 A 
ATOM     12  C   UNL     1       4.748   4.441  19.088  0.00  0.00    +0.000 A 
ATOM     13  C   UNL     1       6.012   4.945  18.876  0.00  0.00    +0.000 A 
ATOM     14  C   UNL     1       6.557   5.045  17.612  0.00  0.00    +0.000 A 
ATOM     15  O   UNL     1       7.823   5.559  17.662  0.00  0.00    +0.000 OA
ATOM     16  C   UNL     1       7.973   5.834  19.064  0.00  0.00    +0.000 C 
ATOM     17  O   UNL     1       6.861   5.387  19.850  0.00  0.00    +0.000 OA
BRANCH   9  18
ATOM     18  O   UNL     1       6.267   4.710  15.189  0.00  0.00    +0.000 OA
BRANCH  18  20
ATOM     19  C   UNL     1       6.373   3.848  12.947  0.00  0.00    +0.000 C 
ATOM     20  C   UNL     1       5.765   3.687  14.324  0.00  0.00    +0.000 C 
ENDBRANCH  18  20
ENDBRANCH   9  18
ENDBRANCH   8  11
ENDBRANCH   1   8
BRANCH   5  21
ATOM     21  C   UNL     1       2.035   5.688  21.316  0.00  0.00    +0.000 C 
BRANCH  21  22
ATOM     22  C   UNL     1       1.753   6.896  20.460  0.00  0.00    +0.000 A 
ATOM     23  C   UNL     1       0.954   7.928  20.949  0.00  0.00    +0.000 A 
ATOM     24  C   UNL     1       0.761   9.109  20.220  0.00  0.00    +0.000 A 
ATOM     25  C   UNL     1       1.415   9.287  18.975  0.00  0.00    +0.000 A 
ATOM     26  C   UNL     1       2.198   8.231  18.464  0.00  0.00    +0.000 A 
ATOM     27  C   UNL     1       2.322   7.039  19.195  0.00  0.00    +0.000 A 
BRANCH  24  28
ATOM     28  O   UNL     1      -0.059  10.119  20.675  0.00  0.00    +0.000 OA
ATOM     29  C   UNL     1      -0.399  10.060  22.059  0.00  0.00    +0.000 C 
ENDBRANCH  24  28
BRANCH  25  30
ATOM     30  O   UNL     1       1.188  10.488  18.339  0.00  0.00    +0.000 OA
ATOM     31  C   UNL     1       2.259  11.429  18.316  0.00  0.00    +0.000 C 
ENDBRANCH  25  30
BRANCH  26  32
ATOM     32  O   UNL     1       2.770   8.348  17.222  0.00  0.00    +0.000 OA
ATOM     33  C   UNL     1       4.020   7.682  17.051  0.00  0.00    +0.000 C 
ENDBRANCH  26  32
ENDBRANCH  21  22
ENDBRANCH   5  21
TORSDOF 10
ENDMDL
MODEL 7
REMARK VINA RESULT:      -6.9      0.603      2.385
REMARK  Name = 
REMARK  14 active torsions:
REMARK  status: ('A' for Active; 'I' for Inactive)
REMARK    1  A    between atoms: C_1  and  C_2
REMARK    2  A    between atoms: C_2  and  O_3
REMARK    3  A    between atoms: O_3  and  C_4
REMARK    4  A    between atoms: C_6  and  C_7
REMARK    5  A    between atoms: C_7  and  C_8
REMARK    6  A    between atoms: C_11  and  O_12
REMARK    7  A    between atoms: C_13  and  C_14
REMARK    8  A    between atoms: C_14  and  C_15
REMARK    9  A    between atoms: C_17  and  O_18
REMARK   10  A    between atoms: O_18  and  C_19
REMARK   11  A    between atoms: C_20  and  O_21
REMARK   12  A    between atoms: O_21  and  C_22
REMARK   13  A    between atoms: C_23  and  O_24
REMARK   14  A    between atoms: O_24  and  C_25
REMARK                            x       y       z     vdW  Elec       q    Type
REMARK                         _______ _______ _______ _____ _____    ______ ____
ROOT
ATOM      1  C   UNL     1       3.320   4.071  19.338  0.00  0.00    +0.000 C 
ATOM      2  C   UNL     1       2.673   2.804  18.786  0.00  0.00    +0.000 C 
ATOM      3  O   UNL     1       2.262   1.991  19.893  0.00  0.00    +0.000 OA
ATOM      4  C   UNL     1       2.441   2.717  21.102  0.00  0.00    +0.000 C 
ATOM      5  C   UNL     1       2.682   4.178  20.731  0.00  0.00    +0.000 C 
ENDROOT
BRANCH   4   6
ATOM      6  O   UNL     1       3.571   2.186  21.763  0.00  0.00    +0.000 OA
ATOM      7  H   UNL     1       3.190   1.665  22.489  0.00  0.00    +0.000 HD
ENDBRANCH   4   6
BRANCH   1   8
ATOM      8  C   UNL     1       4.864   3.992  19.357  0.00  0.00    +0.000 C 
BRANCH   8  11
ATOM      9  C   UNL     1       6.968   5.912  16.752  0.00  0.00    +0.000 A 
ATOM     10  C   UNL     1       6.396   5.504  17.968  0.00  0.00    +0.000 A 
ATOM     11  C   UNL     1       5.511   4.401  18.042  0.00  0.00    +0.000 A 
ATOM     12  C   UNL     1       5.232   3.686  16.873  0.00  0.00    +0.000 A 
ATOM     13  C   UNL     1       5.809   4.092  15.690  0.00  0.00    +0.000 A 
ATOM     14  C   UNL     1       6.651   5.184  15.623  0.00  0.00    +0.000 A 
ATOM     15  O   UNL     1       7.082   5.395  14.344  0.00  0.00    +0.000 OA
ATOM     16  C   UNL     1       6.486   4.288  13.647  0.00  0.00    +0.000 C 
ATOM     17  O   UNL     1       5.624   3.497  14.475  0.00  0.00    +0.000 OA
BRANCH   9  18
ATOM     18  O   UNL     1       7.792   7.007  16.825  0.00  0.00    +0.000 OA
BRANCH  18  20
ATOM     19  C   UNL     1       8.178   9.094  17.955  0.00  0.00    +0.000 C 
ATOM     20  C   UNL     1       7.926   7.609  18.115  0.00  0.00    +0.000 C 
ENDBRANCH  18  20
ENDBRANCH   9  18
ENDBRANCH   8  11
ENDBRANCH   1   8
BRANCH   5  21
ATOM     21  C   UNL     1       1.318   4.897  20.680  0.00  0.00    +0.000 C 
BRANCH  21  22
ATOM     22  C   UNL     1       1.374   6.351  20.287  0.00  0.00    +0.000 A 
ATOM     23  C   UNL     1       0.900   7.330  21.159  0.00  0.00    +0.000 A 
ATOM     24  C   UNL     1       1.035   8.693  20.868  0.00  0.00    +0.000 A 
ATOM     25  C   UNL     1       1.698   9.102  19.684  0.00  0.00    +0.000 A 
ATOM     26  C   UNL     1       2.150   8.113  18.785  0.00  0.00    +0.000 A 
ATOM     27  C   UNL     1       1.946   6.757  19.082  0.00  0.00    +0.000 A 
BRANCH  24  28
ATOM     28  O   UNL     1       0.533   9.669  21.703  0.00  0.00    +0.000 OA
ATOM     29  C   UNL     1      -0.404   9.221  22.681  0.00  0.00    +0.000 C 
ENDBRANCH  24  28
BRANCH  25  30
ATOM     30  O   UNL     1       1.808  10.462  19.490  0.00  0.00    +0.000 OA
ATOM     31  C   UNL     1       0.773  11.103  18.748  0.00  0.00    +0.000 C 
ENDBRANCH  25  30
BRANCH  26  32
ATOM     32  O   UNL     1       2.718   8.487  17.593  0.00  0.00    +0.000 OA
ATOM     33  C   UNL     1       3.663   7.570  17.044  0.00  0.00    +0.000 C 
ENDBRANCH  26  32
ENDBRANCH  21  22
ENDBRANCH   5  21
TORSDOF 10
ENDMDL
MODEL 8
REMARK VINA RESULT:      -6.8      1.524      2.032
REMARK  Name = 
REMARK  14 active torsions:
REMARK  status: ('A' for Active; 'I' for Inactive)
REMARK    1  A    between atoms: C_1  and  C_2
REMARK    2  A    between atoms: C_2  and  O_3
REMARK    3  A    between atoms: O_3  and  C_4
REMARK    4  A    between atoms: C_6  and  C_7
REMARK    5  A    between atoms: C_7  and  C_8
REMARK    6  A    between atoms: C_11  and  O_12
REMARK    7  A    between atoms: C_13  and  C_14
REMARK    8  A    between atoms: C_14  and  C_15
REMARK    9  A    between atoms: C_17  and  O_18
REMARK   10  A    between atoms: O_18  and  C_19
REMARK   11  A    between atoms: C_20  and  O_21
REMARK   12  A    between atoms: O_21  and  C_22
REMARK   13  A    between atoms: C_23  and  O_24
REMARK   14  A    between atoms: O_24  and  C_25
REMARK                            x       y       z     vdW  Elec       q    Type
REMARK                         _______ _______ _______ _____ _____    ______ ____
ROOT
ATOM      1  C   UNL     1       2.380   4.566  18.430  0.00  0.00    +0.000 C 
ATOM      2  C   UNL     1       1.127   3.904  18.996  0.00  0.00    +0.000 C 
ATOM      3  O   UNL     1       0.852   4.483  20.278  0.00  0.00    +0.000 OA
ATOM      4  C   UNL     1       1.731   5.580  20.498  0.00  0.00    +0.000 C 
ATOM      5  C   UNL     1       2.387   5.918  19.161  0.00  0.00    +0.000 C 
ENDROOT
BRANCH   4   6
ATOM      6  O   UNL     1       2.706   5.173  21.435  0.00  0.00    +0.000 OA
ATOM      7  H   UNL     1       2.286   5.344  22.294  0.00  0.00    +0.000 HD
ENDBRANCH   4   6
BRANCH   1   8
ATOM      8  C   UNL     1       3.654   3.721  18.657  0.00  0.00    +0.000 C 
BRANCH   8  11
ATOM      9  C   UNL     1       7.077   5.000  17.412  0.00  0.00    +0.000 A 
ATOM     10  C   UNL     1       6.022   4.612  18.254  0.00  0.00    +0.000 A 
ATOM     11  C   UNL     1       4.807   4.101  17.739  0.00  0.00    +0.000 A 
ATOM     12  C   UNL     1       4.676   3.952  16.354  0.00  0.00    +0.000 A 
ATOM     13  C   UNL     1       5.724   4.327  15.542  0.00  0.00    +0.000 A 
ATOM     14  C   UNL     1       6.896   4.847  16.053  0.00  0.00    +0.000 A 
ATOM     15  O   UNL     1       7.774   5.156  15.052  0.00  0.00    +0.000 OA
ATOM     16  C   UNL     1       7.061   4.708  13.888  0.00  0.00    +0.000 C 
ATOM     17  O   UNL     1       5.736   4.244  14.179  0.00  0.00    +0.000 OA
BRANCH   9  18
ATOM     18  O   UNL     1       8.189   5.495  18.047  0.00  0.00    +0.000 OA
BRANCH  18  20
ATOM     19  C   UNL     1       7.718   7.811  17.608  0.00  0.00    +0.000 C 
ATOM     20  C   UNL     1       8.043   6.776  18.665  0.00  0.00    +0.000 C 
ENDBRANCH  18  20
ENDBRANCH   9  18
ENDBRANCH   8  11
ENDBRANCH   1   8
BRANCH   5  21
ATOM     21  C   UNL     1       1.510   6.962  18.439  0.00  0.00    +0.000 C 
BRANCH  21  22
ATOM     22  C   UNL     1       1.354   8.277  19.160  0.00  0.00    +0.000 A 
ATOM     23  C   UNL     1       0.990   9.422  18.453  0.00  0.00    +0.000 A 
ATOM     24  C   UNL     1       0.734  10.633  19.109  0.00  0.00    +0.000 A 
ATOM     25  C   UNL     1       0.807  10.702  20.523  0.00  0.00    +0.000 A 
ATOM     26  C   UNL     1       1.206   9.552  21.236  0.00  0.00    +0.000 A 
ATOM     27  C   UNL     1       1.512   8.371  20.542  0.00  0.00    +0.000 A 
BRANCH  24  28
ATOM     28  O   UNL     1       0.414  11.781  18.417  0.00  0.00    +0.000 OA
ATOM     29  C   UNL     1      -0.978  11.992  18.183  0.00  0.00    +0.000 C 
ENDBRANCH  24  28
BRANCH  25  30
ATOM     30  O   UNL     1       0.516  11.925  21.085  0.00  0.00    +0.000 OA
ATOM     31  C   UNL     1       1.509  12.943  20.989  0.00  0.00    +0.000 C 
ENDBRANCH  25  30
BRANCH  26  32
ATOM     32  O   UNL     1       1.367   9.620  22.598  0.00  0.00    +0.000 OA
ATOM     33  C   UNL     1       0.179   9.449  23.369  0.00  0.00    +0.000 C 
ENDBRANCH  26  32
ENDBRANCH  21  22
ENDBRANCH   5  21
TORSDOF 10
ENDMDL
MODEL 9
REMARK VINA RESULT:      -6.7      3.848      9.017
REMARK  Name = 
REMARK  14 active torsions:
REMARK  status: ('A' for Active; 'I' for Inactive)
REMARK    1  A    between atoms: C_1  and  C_2
REMARK    2  A    between atoms: C_2  and  O_3
REMARK    3  A    between atoms: O_3  and  C_4
REMARK    4  A    between atoms: C_6  and  C_7
REMARK    5  A    between atoms: C_7  and  C_8
REMARK    6  A    between atoms: C_11  and  O_12
REMARK    7  A    between atoms: C_13  and  C_14
REMARK    8  A    between atoms: C_14  and  C_15
REMARK    9  A    between atoms: C_17  and  O_18
REMARK   10  A    between atoms: O_18  and  C_19
REMARK   11  A    between atoms: C_20  and  O_21
REMARK   12  A    between atoms: O_21  and  C_22
REMARK   13  A    between atoms: C_23  and  O_24
REMARK   14  A    between atoms: O_24  and  C_25
REMARK                            x       y       z     vdW  Elec       q    Type
REMARK                         _______ _______ _______ _____ _____    ______ ____
ROOT
ATOM      1  C   UNL     1      -0.005  10.486  18.983  0.00  0.00    +0.000 C 
ATOM      2  C   UNL     1       0.680  11.543  19.844  0.00  0.00    +0.000 C 
ATOM      3  O   UNL     1       1.246  10.892  20.989  0.00  0.00    +0.000 OA
ATOM      4  C   UNL     1       1.123   9.484  20.839  0.00  0.00    +0.000 C 
ATOM      5  C   UNL     1       0.745   9.208  19.385  0.00  0.00    +0.000 C 
ENDROOT
BRANCH   4   6
ATOM      6  O   UNL     1       0.098   9.042  21.704  0.00  0.00    +0.000 OA
ATOM      7  H   UNL     1      -0.538   8.613  21.108  0.00  0.00    +0.000 HD
ENDBRANCH   4   6
BRANCH   1   8
ATOM      8  C   UNL     1      -1.531  10.422  19.220  0.00  0.00    +0.000 C 
BRANCH   8  11
ATOM      9  C   UNL     1      -4.328  11.435  16.760  0.00  0.00    +0.000 A 
ATOM     10  C   UNL     1      -3.544  11.329  17.920  0.00  0.00    +0.000 A 
ATOM     11  C   UNL     1      -2.352  10.565  17.947  0.00  0.00    +0.000 A 
ATOM     12  C   UNL     1      -1.936   9.930  16.772  0.00  0.00    +0.000 A 
ATOM     13  C   UNL     1      -2.710  10.052  15.639  0.00  0.00    +0.000 A 
ATOM     14  C   UNL     1      -3.883  10.779  15.629  0.00  0.00    +0.000 A 
ATOM     15  O   UNL     1      -4.477  10.739  14.399  0.00  0.00    +0.000 OA
ATOM     16  C   UNL     1      -3.521   9.983  13.637  0.00  0.00    +0.000 C 
ATOM     17  O   UNL     1      -2.433   9.486  14.428  0.00  0.00    +0.000 OA
BRANCH   9  18
ATOM     18  O   UNL     1      -5.465  12.192  16.882  0.00  0.00    +0.000 OA
BRANCH  18  20
ATOM     19  C   UNL     1      -6.517  13.529  18.581  0.00  0.00    +0.000 C 
ATOM     20  C   UNL     1      -6.128  12.132  18.148  0.00  0.00    +0.000 C 
ENDBRANCH  18  20
ENDBRANCH   9  18
ENDBRANCH   8  11
ENDBRANCH   1   8
BRANCH   5  21
ATOM     21  C   UNL     1       2.044   9.028  18.572  0.00  0.00    +0.000 C 
BRANCH  21  22
ATOM     22  C   UNL     1       2.641   7.644  18.614  0.00  0.00    +0.000 A 
ATOM     23  C   UNL     1       2.287   6.761  19.631  0.00  0.00    +0.000 A 
ATOM     24  C   UNL     1       2.741   5.436  19.638  0.00  0.00    +0.000 A 
ATOM     25  C   UNL     1       3.549   4.959  18.575  0.00  0.00    +0.000 A 
ATOM     26  C   UNL     1       3.935   5.861  17.561  0.00  0.00    +0.000 A 
ATOM     27  C   UNL     1       3.508   7.197  17.618  0.00  0.00    +0.000 A 
BRANCH  24  28
ATOM     28  O   UNL     1       2.431   4.565  20.660  0.00  0.00    +0.000 OA
ATOM     29  C   UNL     1       1.124   3.995  20.609  0.00  0.00    +0.000 C 
ENDBRANCH  24  28
BRANCH  25  30
ATOM     30  O   UNL     1       3.930   3.637  18.650  0.00  0.00    +0.000 OA
ATOM     31  C   UNL     1       3.239   2.708  17.817  0.00  0.00    +0.000 C 
ENDBRANCH  25  30
BRANCH  26  32
ATOM     32  O   UNL     1       4.787   5.443  16.569  0.00  0.00    +0.000 OA
ATOM     33  C   UNL     1       6.174   5.672  16.810  0.00  0.00    +0.000 C 
ENDBRANCH  26  32
ENDBRANCH  21  22
ENDBRANCH   5  21
TORSDOF 10
ENDMDL
