MODEL 1
REMARK VINA RESULT:      -8.1      0.000      0.000
REMARK  Name = 
REMARK  6 active torsions:
REMARK  status: ('A' for Active; 'I' for Inactive)
REMARK    1  A    between atoms: C_2  and  C_3
REMARK    2  A    between atoms: N_11  and  C_12
REMARK    3  A    between atoms: C_12  and  C_13
REMARK    4  A    between atoms: C_12  and  C_20
REMARK    5  A    between atoms: N_24  and  C_25
REMARK    6  A    between atoms: C_25  and  C_26
REMARK                            x       y       z     vdW  Elec       q    Type
REMARK                         _______ _______ _______ _____ _____    ______ ____
ROOT
ATOM      1  C   UNL     1       2.622   6.475  19.046  0.00  0.00    +0.000 C 
ENDROOT
BRANCH   1   7
ATOM      2  O   UNL     1       7.910   3.942  17.056  0.00  0.00    +0.000 OA
ATOM      3  C   UNL     1       6.987   4.511  16.464  0.00  0.00    +0.000 C 
ATOM      4  N   UNL     1       6.001   5.222  17.183  0.00  0.00    +0.000 N 
ATOM      5  C   UNL     1       5.795   4.908  18.595  0.00  0.00    +0.000 C 
ATOM      6  C   UNL     1       5.086   6.023  19.430  0.00  0.00    +0.000 C 
ATOM      7  N   UNL     1       4.043   6.904  18.827  0.00  0.00    +0.000 NA
ATOM      8  C   UNL     1       4.409   7.142  17.406  0.00  0.00    +0.000 C 
ATOM      9  C   UNL     1       4.917   5.960  16.549  0.00  0.00    +0.000 C 
BRANCH   3  10
ATOM     10  C   UNL     1       6.907   4.486  15.007  0.00  0.00    +0.000 A 
ATOM     11  C   UNL     1       6.089   3.782  14.131  0.00  0.00    +0.000 A 
ATOM     12  C   UNL     1       6.458   4.163  12.815  0.00  0.00    +0.000 A 
ATOM     13  C   UNL     1       7.421   5.131  12.958  0.00  0.00    +0.000 A 
ATOM     14  O   UNL     1       7.697   5.338  14.271  0.00  0.00    +0.000 OA
ENDBRANCH   3  10
ENDBRANCH   1   7
BRANCH   1  15
ATOM     15  C   UNL     1       2.442   5.050  19.597  0.00  0.00    +0.000 A 
ATOM     16  C   UNL     1       2.482   4.797  20.985  0.00  0.00    +0.000 A 
ATOM     17  C   UNL     1       2.254   3.514  21.508  0.00  0.00    +0.000 A 
ATOM     18  C   UNL     1       2.040   2.439  20.654  0.00  0.00    +0.000 A 
ATOM     19  C   UNL     1       2.046   2.648  19.283  0.00  0.00    +0.000 A 
ATOM     20  C   UNL     1       2.236   3.937  18.751  0.00  0.00    +0.000 A 
ATOM     21 CL   UNL     1       2.235   4.052  17.028  0.00  0.00    +0.000 Cl
ENDBRANCH   1  15
BRANCH   1  22
ATOM     22  C   UNL     1       1.746   7.521  19.764  0.00  0.00    +0.000 A 
ATOM     23  N   UNL     1       1.372   7.284  21.020  0.00  0.00    +0.000 NA
ATOM     24  N   UNL     1       0.537   8.277  21.407  0.00  0.00    +0.000 NA
ATOM     25  N   UNL     1       0.364   9.145  20.435  0.00  0.00    +0.000 NA
ATOM     26  N   UNL     1       1.130   8.718  19.394  0.00  0.00    +0.000 N 
BRANCH  26  27
ATOM     27  C   UNL     1       1.419   9.750  18.405  0.00  0.00    +0.000 C 
BRANCH  27  28
ATOM     28  C   UNL     1       0.871  11.148  18.621  0.00  0.00    +0.000 A 
ATOM     29  C   UNL     1      -0.422  11.584  18.359  0.00  0.00    +0.000 A 
ATOM     30  C   UNL     1      -0.546  13.008  18.343  0.00  0.00    +0.000 A 
ATOM     31  C   UNL     1       0.643  13.629  18.645  0.00  0.00    +0.000 A 
ATOM     32  S   UNL     1       1.885  12.496  18.970  0.00  0.00    +0.000 S 
ENDBRANCH  27  28
ENDBRANCH  26  27
ENDBRANCH   1  22
TORSDOF 6
ENDMDL
MODEL 2
REMARK VINA RESULT:      -8.0      1.808      2.178
REMARK  Name = 
REMARK  6 active torsions:
REMARK  status: ('A' for Active; 'I' for Inactive)
REMARK    1  A    between atoms: C_2  and  C_3
REMARK    2  A    between atoms: N_11  and  C_12
REMARK    3  A    between atoms: C_12  and  C_13
REMARK    4  A    between atoms: C_12  and  C_20
REMARK    5  A    between atoms: N_24  and  C_25
REMARK    6  A    between atoms: C_25  and  C_26
REMARK                            x       y       z     vdW  Elec       q    Type
REMARK                         _______ _______ _______ _____ _____    ______ ____
ROOT
ATOM      1  C   UNL     1       2.667   6.736  18.225  0.00  0.00    +0.000 C 
ENDROOT
BRANCH   1   7
ATOM      2  O   UNL     1       7.956   3.935  16.634  0.00  0.00    +0.000 OA
ATOM      3  C   UNL     1       7.139   4.599  15.986  0.00  0.00    +0.000 C 
ATOM      4  N   UNL     1       6.132   5.341  16.642  0.00  0.00    +0.000 N 
ATOM      5  C   UNL     1       5.759   4.971  18.005  0.00  0.00    +0.000 C 
ATOM      6  C   UNL     1       5.042   6.089  18.828  0.00  0.00    +0.000 C 
ATOM      7  N   UNL     1       4.128   7.072  18.175  0.00  0.00    +0.000 NA
ATOM      8  C   UNL     1       4.656   7.356  16.816  0.00  0.00    +0.000 C 
ATOM      9  C   UNL     1       5.172   6.187  15.946  0.00  0.00    +0.000 C 
BRANCH   3  10
ATOM     10  C   UNL     1       7.211   4.655  14.529  0.00  0.00    +0.000 A 
ATOM     11  C   UNL     1       6.528   3.962  13.537  0.00  0.00    +0.000 A 
ATOM     12  C   UNL     1       7.008   4.438  12.288  0.00  0.00    +0.000 A 
ATOM     13  C   UNL     1       7.896   5.443  12.583  0.00  0.00    +0.000 A 
ATOM     14  O   UNL     1       8.023   5.587  13.927  0.00  0.00    +0.000 OA
ENDBRANCH   3  10
ENDBRANCH   1   7
BRANCH   1  15
ATOM     15  C   UNL     1       2.299   5.526  19.102  0.00  0.00    +0.000 A 
ATOM     16  C   UNL     1       2.101   5.671  20.492  0.00  0.00    +0.000 A 
ATOM     17  C   UNL     1       1.699   4.592  21.297  0.00  0.00    +0.000 A 
ATOM     18  C   UNL     1       1.547   3.327  20.743  0.00  0.00    +0.000 A 
ATOM     19  C   UNL     1       1.786   3.144  19.389  0.00  0.00    +0.000 A 
ATOM     20  C   UNL     1       2.151   4.228  18.568  0.00  0.00    +0.000 A 
ATOM     21 CL   UNL     1       2.432   3.856  16.905  0.00  0.00    +0.000 Cl
ENDBRANCH   1  15
BRANCH   1  22
ATOM     22  C   UNL     1       1.742   7.950  18.442  0.00  0.00    +0.000 A 
ATOM     23  N   UNL     1       1.105   8.459  17.389  0.00  0.00    +0.000 NA
ATOM     24  N   UNL     1       0.437   9.566  17.794  0.00  0.00    +0.000 NA
ATOM     25  N   UNL     1       0.629   9.781  19.077  0.00  0.00    +0.000 NA
ATOM     26  N   UNL     1       1.422   8.771  19.525  0.00  0.00    +0.000 N 
BRANCH  26  27
ATOM     27  C   UNL     1       1.386   8.582  20.971  0.00  0.00    +0.000 C 
BRANCH  27  28
ATOM     28  C   UNL     1       0.641   9.590  21.825  0.00  0.00    +0.000 A 
ATOM     29  C   UNL     1      -0.252   9.310  22.852  0.00  0.00    +0.000 A 
ATOM     30  C   UNL     1      -1.039  10.439  23.239  0.00  0.00    +0.000 A 
ATOM     31  C   UNL     1      -0.694  11.569  22.536  0.00  0.00    +0.000 A 
ATOM     32  S   UNL     1       0.587  11.268  21.442  0.00  0.00    +0.000 S 
ENDBRANCH  27  28
ENDBRANCH  26  27
ENDBRANCH   1  22
TORSDOF 6
ENDMDL
MODEL 3
REMARK VINA RESULT:      -7.9      1.021      1.182
REMARK  Name = 
REMARK  6 active torsions:
REMARK  status: ('A' for Active; 'I' for Inactive)
REMARK    1  A    between atoms: C_2  and  C_3
REMARK    2  A    between atoms: N_11  and  C_12
REMARK    3  A    between atoms: C_12  and  C_13
REMARK    4  A    between atoms: C_12  and  C_20
REMARK    5  A    between atoms: N_24  and  C_25
REMARK    6  A    between atoms: C_25  and  C_26
REMARK                            x       y       z     vdW  Elec       q    Type
REMARK                         _______ _______ _______ _____ _____    ______ ____
ROOT
ATOM      1  C   UNL     1       2.632   6.541  19.073  0.00  0.00    +0.000 C 
ENDROOT
BRANCH   1   7
ATOM      2  O   UNL     1       7.873   3.927  17.060  0.00  0.00    +0.000 OA
ATOM      3  C   UNL     1       6.953   4.504  16.471  0.00  0.00    +0.000 C 
ATOM      4  N   UNL     1       5.981   5.233  17.193  0.00  0.00    +0.000 N 
ATOM      5  C   UNL     1       5.781   4.931  18.608  0.00  0.00    +0.000 C 
ATOM      6  C   UNL     1       5.093   6.060  19.441  0.00  0.00    +0.000 C 
ATOM      7  N   UNL     1       4.057   6.950  18.839  0.00  0.00    +0.000 NA
ATOM      8  C   UNL     1       4.415   7.174  17.415  0.00  0.00    +0.000 C 
ATOM      9  C   UNL     1       4.902   5.980  16.562  0.00  0.00    +0.000 C 
BRANCH   3  10
ATOM     10  C   UNL     1       6.862   4.470  15.015  0.00  0.00    +0.000 A 
ATOM     11  C   UNL     1       6.028   3.771  14.151  0.00  0.00    +0.000 A 
ATOM     12  C   UNL     1       6.392   4.139  12.829  0.00  0.00    +0.000 A 
ATOM     13  C   UNL     1       7.369   5.095  12.958  0.00  0.00    +0.000 A 
ATOM     14  O   UNL     1       7.657   5.307  14.268  0.00  0.00    +0.000 OA
ENDBRANCH   3  10
ENDBRANCH   1   7
BRANCH   1  15
ATOM     15  C   UNL     1       2.436   5.107  19.593  0.00  0.00    +0.000 A 
ATOM     16  C   UNL     1       2.501   4.820  20.974  0.00  0.00    +0.000 A 
ATOM     17  C   UNL     1       2.259   3.530  21.472  0.00  0.00    +0.000 A 
ATOM     18  C   UNL     1       2.005   2.480  20.598  0.00  0.00    +0.000 A 
ATOM     19  C   UNL     1       1.986   2.722  19.233  0.00  0.00    +0.000 A 
ATOM     20  C   UNL     1       2.190   4.019  18.727  0.00  0.00    +0.000 A 
ATOM     21 CL   UNL     1       2.154   4.175  17.007  0.00  0.00    +0.000 Cl
ENDBRANCH   1  15
BRANCH   1  22
ATOM     22  C   UNL     1       1.786   7.586  19.828  0.00  0.00    +0.000 A 
ATOM     23  N   UNL     1       1.752   7.534  21.158  0.00  0.00    +0.000 NA
ATOM     24  N   UNL     1       0.878   8.473  21.594  0.00  0.00    +0.000 NA
ATOM     25  N   UNL     1       0.351   9.125  20.581  0.00  0.00    +0.000 NA
ATOM     26  N   UNL     1       0.918   8.613  19.455  0.00  0.00    +0.000 N 
BRANCH  26  27
ATOM     27  C   UNL     1       0.804   9.478  18.286  0.00  0.00    +0.000 C 
BRANCH  27  28
ATOM     28  C   UNL     1      -0.532  10.128  17.980  0.00  0.00    +0.000 A 
ATOM     29  C   UNL     1      -1.505   9.657  17.107  0.00  0.00    +0.000 A 
ATOM     30  C   UNL     1      -2.490  10.639  16.777  0.00  0.00    +0.000 A 
ATOM     31  C   UNL     1      -2.278  11.822  17.445  0.00  0.00    +0.000 A 
ATOM     32  S   UNL     1      -0.918  11.730  18.481  0.00  0.00    +0.000 S 
ENDBRANCH  27  28
ENDBRANCH  26  27
ENDBRANCH   1  22
TORSDOF 6
ENDMDL
MODEL 4
REMARK VINA RESULT:      -7.6      7.481      9.805
REMARK  Name = 
REMARK  6 active torsions:
REMARK  status: ('A' for Active; 'I' for Inactive)
REMARK    1  A    between atoms: C_2  and  C_3
REMARK    2  A    between atoms: N_11  and  C_12
REMARK    3  A    between atoms: C_12  and  C_13
REMARK    4  A    between atoms: C_12  and  C_20
REMARK    5  A    between atoms: N_24  and  C_25
REMARK    6  A    between atoms: C_25  and  C_26
REMARK                            x       y       z     vdW  Elec       q    Type
REMARK                         _______ _______ _______ _____ _____    ______ ____
ROOT
ATOM      1  C   UNL     1      -0.138  12.197  20.137  0.00  0.00    +0.000 C 
ENDROOT
BRANCH   1   7
ATOM      2  O   UNL     1       2.818  17.482  18.844  0.00  0.00    +0.000 OA
ATOM      3  C   UNL     1       2.716  16.820  19.882  0.00  0.00    +0.000 C 
ATOM      4  N   UNL     1       2.184  15.512  19.852  0.00  0.00    +0.000 N 
ATOM      5  C   UNL     1       1.341  15.120  18.725  0.00  0.00    +0.000 C 
ATOM      6  C   UNL     1       1.207  13.580  18.494  0.00  0.00    +0.000 C 
ATOM      7  N   UNL     1       1.212  12.619  19.636  0.00  0.00    +0.000 NA
ATOM      8  C   UNL     1       2.126  13.150  20.679  0.00  0.00    +0.000 C 
ATOM      9  C   UNL     1       2.084  14.655  21.026  0.00  0.00    +0.000 C 
BRANCH   3  10
ATOM     10  C   UNL     1       3.168  17.361  21.160  0.00  0.00    +0.000 A 
ATOM     11  C   UNL     1       2.520  18.111  22.134  0.00  0.00    +0.000 A 
ATOM     12  C   UNL     1       3.457  18.348  23.173  0.00  0.00    +0.000 A 
ATOM     13  C   UNL     1       4.597  17.670  22.816  0.00  0.00    +0.000 A 
ATOM     14  O   UNL     1       4.434  17.067  21.610  0.00  0.00    +0.000 OA
ENDBRANCH   3  10
ENDBRANCH   1   7
BRANCH   1  15
ATOM     15  C   UNL     1      -1.042  11.511  19.099  0.00  0.00    +0.000 A 
ATOM     16  C   UNL     1      -2.375  11.931  18.905  0.00  0.00    +0.000 A 
ATOM     17  C   UNL     1      -3.193  11.361  17.916  0.00  0.00    +0.000 A 
ATOM     18  C   UNL     1      -2.719  10.313  17.137  0.00  0.00    +0.000 A 
ATOM     19  C   UNL     1      -1.429   9.843  17.341  0.00  0.00    +0.000 A 
ATOM     20  C   UNL     1      -0.590  10.435  18.303  0.00  0.00    +0.000 A 
ATOM     21 CL   UNL     1       0.985   9.743  18.462  0.00  0.00    +0.000 Cl
ENDBRANCH   1  15
BRANCH   1  22
ATOM     22  C   UNL     1      -0.113  11.474  21.499  0.00  0.00    +0.000 A 
ATOM     23  N   UNL     1       0.767  10.491  21.680  0.00  0.00    +0.000 NA
ATOM     24  N   UNL     1       0.542   9.942  22.897  0.00  0.00    +0.000 NA
ATOM     25  N   UNL     1      -0.458  10.544  23.502  0.00  0.00    +0.000 NA
ATOM     26  N   UNL     1      -0.879  11.531  22.665  0.00  0.00    +0.000 N 
BRANCH  26  27
ATOM     27  C   UNL     1      -1.664  12.572  23.318  0.00  0.00    +0.000 C 
BRANCH  27  28
ATOM     28  C   UNL     1      -3.173  12.558  23.167  0.00  0.00    +0.000 A 
ATOM     29  C   UNL     1      -3.893  12.734  21.991  0.00  0.00    +0.000 A 
ATOM     30  C   UNL     1      -5.279  13.003  22.213  0.00  0.00    +0.000 A 
ATOM     31  C   UNL     1      -5.600  12.973  23.549  0.00  0.00    +0.000 A 
ATOM     32  S   UNL     1      -4.240  12.596  24.519  0.00  0.00    +0.000 S 
ENDBRANCH  27  28
ENDBRANCH  26  27
ENDBRANCH   1  22
TORSDOF 6
ENDMDL
MODEL 5
REMARK VINA RESULT:      -7.6      7.928      9.800
REMARK  Name = 
REMARK  6 active torsions:
REMARK  status: ('A' for Active; 'I' for Inactive)
REMARK    1  A    between atoms: C_2  and  C_3
REMARK    2  A    between atoms: N_11  and  C_12
REMARK    3  A    between atoms: C_12  and  C_13
REMARK    4  A    between atoms: C_12  and  C_20
REMARK    5  A    between atoms: N_24  and  C_25
REMARK    6  A    between atoms: C_25  and  C_26
REMARK                            x       y       z     vdW  Elec       q    Type
REMARK                         _______ _______ _______ _____ _____    ______ ____
ROOT
ATOM      1  C   UNL     1      -1.903  12.914  21.242  0.00  0.00    +0.000 C 
ENDROOT
BRANCH   1   7
ATOM      2  O   UNL     1       3.068  16.547  20.581  0.00  0.00    +0.000 OA
ATOM      3  C   UNL     1       2.019  16.449  19.936  0.00  0.00    +0.000 C 
ATOM      4  N   UNL     1       0.929  15.707  20.443  0.00  0.00    +0.000 N 
ATOM      5  C   UNL     1       1.180  14.695  21.465  0.00  0.00    +0.000 C 
ATOM      6  C   UNL     1      -0.063  14.284  22.319  0.00  0.00    +0.000 C 
ATOM      7  N   UNL     1      -1.435  14.253  21.732  0.00  0.00    +0.000 NA
ATOM      8  C   UNL     1      -1.532  15.350  20.734  0.00  0.00    +0.000 C 
ATOM      9  C   UNL     1      -0.355  15.595  19.763  0.00  0.00    +0.000 C 
BRANCH   3  10
ATOM     10  C   UNL     1       1.869  17.119  18.648  0.00  0.00    +0.000 A 
ATOM     11  C   UNL     1       2.494  16.928  17.421  0.00  0.00    +0.000 A 
ATOM     12  C   UNL     1       1.940  17.872  16.517  0.00  0.00    +0.000 A 
ATOM     13  C   UNL     1       0.959  18.533  17.216  0.00  0.00    +0.000 A 
ATOM     14  O   UNL     1       0.903  18.086  18.496  0.00  0.00    +0.000 OA
ENDBRANCH   3  10
ENDBRANCH   1   7
BRANCH   1  15
ATOM     15  C   UNL     1      -1.034  11.717  21.666  0.00  0.00    +0.000 A 
ATOM     16  C   UNL     1      -1.259  11.055  22.893  0.00  0.00    +0.000 A 
ATOM     17  C   UNL     1      -0.521   9.921  23.265  0.00  0.00    +0.000 A 
ATOM     18  C   UNL     1       0.504   9.456  22.450  0.00  0.00    +0.000 A 
ATOM     19  C   UNL     1       0.782  10.118  21.263  0.00  0.00    +0.000 A 
ATOM     20  C   UNL     1       0.021  11.232  20.864  0.00  0.00    +0.000 A 
ATOM     21 CL   UNL     1       0.485  11.969  19.372  0.00  0.00    +0.000 Cl
ENDBRANCH   1  15
BRANCH   1  22
ATOM     22  C   UNL     1      -3.414  12.665  21.419  0.00  0.00    +0.000 A 
ATOM     23  N   UNL     1      -3.935  12.765  22.640  0.00  0.00    +0.000 NA
ATOM     24  N   UNL     1      -5.241  12.411  22.572  0.00  0.00    +0.000 NA
ATOM     25  N   UNL     1      -5.571  12.086  21.342  0.00  0.00    +0.000 NA
ATOM     26  N   UNL     1      -4.456  12.259  20.583  0.00  0.00    +0.000 N 
BRANCH  26  27
ATOM     27  C   UNL     1      -4.720  12.378  19.154  0.00  0.00    +0.000 C 
BRANCH  27  28
ATOM     28  C   UNL     1      -3.954  11.494  18.189  0.00  0.00    +0.000 A 
ATOM     29  C   UNL     1      -2.716  10.902  18.408  0.00  0.00    +0.000 A 
ATOM     30  C   UNL     1      -2.103  10.413  17.213  0.00  0.00    +0.000 A 
ATOM     31  C   UNL     1      -2.909  10.596  16.113  0.00  0.00    +0.000 A 
ATOM     32  S   UNL     1      -4.400  11.324  16.534  0.00  0.00    +0.000 S 
ENDBRANCH  27  28
ENDBRANCH  26  27
ENDBRANCH   1  22
TORSDOF 6
ENDMDL
MODEL 6
REMARK VINA RESULT:      -7.5      3.839      7.095
REMARK  Name = 
REMARK  6 active torsions:
REMARK  status: ('A' for Active; 'I' for Inactive)
REMARK    1  A    between atoms: C_2  and  C_3
REMARK    2  A    between atoms: N_11  and  C_12
REMARK    3  A    between atoms: C_12  and  C_13
REMARK    4  A    between atoms: C_12  and  C_20
REMARK    5  A    between atoms: N_24  and  C_25
REMARK    6  A    between atoms: C_25  and  C_26
REMARK                            x       y       z     vdW  Elec       q    Type
REMARK                         _______ _______ _______ _____ _____    ______ ____
ROOT
ATOM      1  C   UNL     1       1.304  11.089  20.127  0.00  0.00    +0.000 C 
ENDROOT
BRANCH   1   7
ATOM      2  O   UNL     1       3.321   5.807  17.601  0.00  0.00    +0.000 OA
ATOM      3  C   UNL     1       2.573   6.039  18.556  0.00  0.00    +0.000 C 
ATOM      4  N   UNL     1       2.070   7.341  18.778  0.00  0.00    +0.000 N 
ATOM      5  C   UNL     1       2.777   8.477  18.194  0.00  0.00    +0.000 C 
ATOM      6  C   UNL     1       1.933   9.785  18.047  0.00  0.00    +0.000 C 
ATOM      7  N   UNL     1       0.878  10.146  19.040  0.00  0.00    +0.000 NA
ATOM      8  C   UNL     1       0.247   8.889  19.518  0.00  0.00    +0.000 C 
ATOM      9  C   UNL     1       1.142   7.673  19.851  0.00  0.00    +0.000 C 
BRANCH   3  10
ATOM     10  C   UNL     1       2.167   4.969  19.462  0.00  0.00    +0.000 A 
ATOM     11  C   UNL     1       1.257   3.927  19.323  0.00  0.00    +0.000 A 
ATOM     12  C   UNL     1       1.280   3.187  20.534  0.00  0.00    +0.000 A 
ATOM     13  C   UNL     1       2.252   3.766  21.312  0.00  0.00    +0.000 A 
ATOM     14  O   UNL     1       2.797   4.835  20.677  0.00  0.00    +0.000 OA
ENDBRANCH   3  10
ENDBRANCH   1   7
BRANCH   1  15
ATOM     15  C   UNL     1       1.335  12.576  19.734  0.00  0.00    +0.000 A 
ATOM     16  C   UNL     1       2.381  13.420  20.167  0.00  0.00    +0.000 A 
ATOM     17  C   UNL     1       2.460  14.763  19.763  0.00  0.00    +0.000 A 
ATOM     18  C   UNL     1       1.464  15.313  18.967  0.00  0.00    +0.000 A 
ATOM     19  C   UNL     1       0.396  14.521  18.570  0.00  0.00    +0.000 A 
ATOM     20  C   UNL     1       0.329  13.165  18.937  0.00  0.00    +0.000 A 
ATOM     21 CL   UNL     1      -1.062  12.300  18.386  0.00  0.00    +0.000 Cl
ENDBRANCH   1  15
BRANCH   1  22
ATOM     22  C   UNL     1       0.633  10.832  21.491  0.00  0.00    +0.000 A 
ATOM     23  N   UNL     1       1.254  10.045  22.366  0.00  0.00    +0.000 NA
ATOM     24  N   UNL     1       0.443   9.883  23.439  0.00  0.00    +0.000 NA
ATOM     25  N   UNL     1      -0.681  10.545  23.276  0.00  0.00    +0.000 NA
ATOM     26  N   UNL     1      -0.588  11.176  22.074  0.00  0.00    +0.000 N 
BRANCH  26  27
ATOM     27  C   UNL     1      -1.518  12.288  21.912  0.00  0.00    +0.000 C 
BRANCH  27  28
ATOM     28  C   UNL     1      -2.241  12.824  23.132  0.00  0.00    +0.000 A 
ATOM     29  C   UNL     1      -3.451  12.374  23.646  0.00  0.00    +0.000 A 
ATOM     30  C   UNL     1      -4.038  13.278  24.584  0.00  0.00    +0.000 A 
ATOM     31  C   UNL     1      -3.239  14.375  24.807  0.00  0.00    +0.000 A 
ATOM     32  S   UNL     1      -1.784  14.291  23.910  0.00  0.00    +0.000 S 
ENDBRANCH  27  28
ENDBRANCH  26  27
ENDBRANCH   1  22
TORSDOF 6
ENDMDL
MODEL 7
REMARK VINA RESULT:      -7.4      5.958      9.703
REMARK  Name = 
REMARK  6 active torsions:
REMARK  status: ('A' for Active; 'I' for Inactive)
REMARK    1  A    between atoms: C_2  and  C_3
REMARK    2  A    between atoms: N_11  and  C_12
REMARK    3  A    between atoms: C_12  and  C_13
REMARK    4  A    between atoms: C_12  and  C_20
REMARK    5  A    between atoms: N_24  and  C_25
REMARK    6  A    between atoms: C_25  and  C_26
REMARK                            x       y       z     vdW  Elec       q    Type
REMARK                         _______ _______ _______ _____ _____    ______ ____
ROOT
ATOM      1  C   UNL     1      -0.256  10.752  19.580  0.00  0.00    +0.000 C 
ENDROOT
BRANCH   1   7
ATOM      2  O   UNL     1      -6.166  10.921  17.739  0.00  0.00    +0.000 OA
ATOM      3  C   UNL     1      -5.486  11.695  18.421  0.00  0.00    +0.000 C 
ATOM      4  N   UNL     1      -4.082  11.548  18.492  0.00  0.00    +0.000 N 
ATOM      5  C   UNL     1      -3.492  10.253  18.164  0.00  0.00    +0.000 C 
ATOM      6  C   UNL     1      -1.978  10.287  17.780  0.00  0.00    +0.000 C 
ATOM      7  N   UNL     1      -1.037  11.263  18.405  0.00  0.00    +0.000 NA
ATOM      8  C   UNL     1      -1.782  12.524  18.653  0.00  0.00    +0.000 C 
ATOM      9  C   UNL     1      -3.214  12.454  19.232  0.00  0.00    +0.000 C 
BRANCH   3  10
ATOM     10  C   UNL     1      -6.111  12.796  19.148  0.00  0.00    +0.000 A 
ATOM     11  C   UNL     1      -6.636  14.011  18.724  0.00  0.00    +0.000 A 
ATOM     12  C   UNL     1      -7.121  14.682  19.877  0.00  0.00    +0.000 A 
ATOM     13  C   UNL     1      -6.937  13.814  20.925  0.00  0.00    +0.000 A 
ATOM     14  O   UNL     1      -6.336  12.674  20.499  0.00  0.00    +0.000 OA
ENDBRANCH   3  10
ENDBRANCH   1   7
BRANCH   1  15
ATOM     15  C   UNL     1       0.739   9.621  19.268  0.00  0.00    +0.000 A 
ATOM     16  C   UNL     1       1.352   9.522  18.000  0.00  0.00    +0.000 A 
ATOM     17  C   UNL     1       2.312   8.537  17.719  0.00  0.00    +0.000 A 
ATOM     18  C   UNL     1       2.638   7.586  18.678  0.00  0.00    +0.000 A 
ATOM     19  C   UNL     1       2.013   7.626  19.916  0.00  0.00    +0.000 A 
ATOM     20  C   UNL     1       1.079   8.634  20.219  0.00  0.00    +0.000 A 
ATOM     21 CL   UNL     1       0.366   8.557  21.791  0.00  0.00    +0.000 Cl
ENDBRANCH   1  15
BRANCH   1  22
ATOM     22  C   UNL     1       0.338  11.856  20.477  0.00  0.00    +0.000 A 
ATOM     23  N   UNL     1      -0.124  11.982  21.719  0.00  0.00    +0.000 NA
ATOM     24  N   UNL     1       0.463  13.066  22.281  0.00  0.00    +0.000 NA
ATOM     25  N   UNL     1       1.289  13.639  21.433  0.00  0.00    +0.000 NA
ATOM     26  N   UNL     1       1.257  12.891  20.297  0.00  0.00    +0.000 N 
BRANCH  26  27
ATOM     27  C   UNL     1       2.404  13.095  19.418  0.00  0.00    +0.000 C 
BRANCH  27  28
ATOM     28  C   UNL     1       2.896  14.508  19.168  0.00  0.00    +0.000 A 
ATOM     29  C   UNL     1       2.229  15.509  18.473  0.00  0.00    +0.000 A 
ATOM     30  C   UNL     1       3.072  16.607  18.117  0.00  0.00    +0.000 A 
ATOM     31  C   UNL     1       4.352  16.445  18.593  0.00  0.00    +0.000 A 
ATOM     32  S   UNL     1       4.517  14.993  19.484  0.00  0.00    +0.000 S 
ENDBRANCH  27  28
ENDBRANCH  26  27
ENDBRANCH   1  22
TORSDOF 6
ENDMDL
MODEL 8
REMARK VINA RESULT:      -7.4      5.827      9.584
REMARK  Name = 
REMARK  6 active torsions:
REMARK  status: ('A' for Active; 'I' for Inactive)
REMARK    1  A    between atoms: C_2  and  C_3
REMARK    2  A    between atoms: N_11  and  C_12
REMARK    3  A    between atoms: C_12  and  C_13
REMARK    4  A    between atoms: C_12  and  C_20
REMARK    5  A    between atoms: N_24  and  C_25
REMARK    6  A    between atoms: C_25  and  C_26
REMARK                            x       y       z     vdW  Elec       q    Type
REMARK                         _______ _______ _______ _____ _____    ______ ____
ROOT
ATOM      1  C   UNL     1       0.046  10.656  19.350  0.00  0.00    +0.000 C 
ENDROOT
BRANCH   1   7
ATOM      2  O   UNL     1      -5.954  10.598  17.819  0.00  0.00    +0.000 OA
ATOM      3  C   UNL     1      -5.258  11.423  18.419  0.00  0.00    +0.000 C 
ATOM      4  N   UNL     1      -3.849  11.310  18.424  0.00  0.00    +0.000 N 
ATOM      5  C   UNL     1      -3.247  10.010  18.138  0.00  0.00    +0.000 C 
ATOM      6  C   UNL     1      -1.756  10.054  17.672  0.00  0.00    +0.000 C 
ATOM      7  N   UNL     1      -0.807  11.083  18.191  0.00  0.00    +0.000 NA
ATOM      8  C   UNL     1      -1.568  12.340  18.408  0.00  0.00    +0.000 C 
ATOM      9  C   UNL     1      -2.966  12.274  19.065  0.00  0.00    +0.000 C 
BRANCH   3  10
ATOM     10  C   UNL     1      -5.870  12.550  19.115  0.00  0.00    +0.000 A 
ATOM     11  C   UNL     1      -6.175  12.763  20.455  0.00  0.00    +0.000 A 
ATOM     12  C   UNL     1      -6.758  14.053  20.553  0.00  0.00    +0.000 A 
ATOM     13  C   UNL     1      -6.708  14.587  19.288  0.00  0.00    +0.000 A 
ATOM     14  O   UNL     1      -6.171  13.695  18.416  0.00  0.00    +0.000 OA
ENDBRANCH   3  10
ENDBRANCH   1   7
BRANCH   1  15
ATOM     15  C   UNL     1       0.982   9.467  19.075  0.00  0.00    +0.000 A 
ATOM     16  C   UNL     1       1.580   9.290  17.809  0.00  0.00    +0.000 A 
ATOM     17  C   UNL     1       2.489   8.249  17.560  0.00  0.00    +0.000 A 
ATOM     18  C   UNL     1       2.775   7.321  18.553  0.00  0.00    +0.000 A 
ATOM     19  C   UNL     1       2.162   7.438  19.792  0.00  0.00    +0.000 A 
ATOM     20  C   UNL     1       1.280   8.501  20.062  0.00  0.00    +0.000 A 
ATOM     21 CL   UNL     1       0.576   8.518  21.639  0.00  0.00    +0.000 Cl
ENDBRANCH   1  15
BRANCH   1  22
ATOM     22  C   UNL     1       0.736  11.817  20.093  0.00  0.00    +0.000 A 
ATOM     23  N   UNL     1       1.793  12.395  19.526  0.00  0.00    +0.000 NA
ATOM     24  N   UNL     1       2.290  13.311  20.392  0.00  0.00    +0.000 NA
ATOM     25  N   UNL     1       1.581  13.335  21.499  0.00  0.00    +0.000 NA
ATOM     26  N   UNL     1       0.579  12.429  21.337  0.00  0.00    +0.000 N 
BRANCH  26  27
ATOM     27  C   UNL     1      -0.547  12.619  22.245  0.00  0.00    +0.000 C 
BRANCH  27  28
ATOM     28  C   UNL     1      -1.167  13.998  22.369  0.00  0.00    +0.000 A 
ATOM     29  C   UNL     1      -1.450  14.878  21.332  0.00  0.00    +0.000 A 
ATOM     30  C   UNL     1      -1.712  16.210  21.777  0.00  0.00    +0.000 A 
ATOM     31  C   UNL     1      -1.675  16.308  23.148  0.00  0.00    +0.000 A 
ATOM     32  S   UNL     1      -1.355  14.796  23.883  0.00  0.00    +0.000 S 
ENDBRANCH  27  28
ENDBRANCH  26  27
ENDBRANCH   1  22
TORSDOF 6
ENDMDL
MODEL 9
REMARK VINA RESULT:      -7.4      3.920      7.103
REMARK  Name = 
REMARK  6 active torsions:
REMARK  status: ('A' for Active; 'I' for Inactive)
REMARK    1  A    between atoms: C_2  and  C_3
REMARK    2  A    between atoms: N_11  and  C_12
REMARK    3  A    between atoms: C_12  and  C_13
REMARK    4  A    between atoms: C_12  and  C_20
REMARK    5  A    between atoms: N_24  and  C_25
REMARK    6  A    between atoms: C_25  and  C_26
REMARK                            x       y       z     vdW  Elec       q    Type
REMARK                         _______ _______ _______ _____ _____    ______ ____
ROOT
ATOM      1  C   UNL     1       1.274  11.210  20.153  0.00  0.00    +0.000 C 
ENDROOT
BRANCH   1   7
ATOM      2  O   UNL     1       3.282   5.969  17.537  0.00  0.00    +0.000 OA
ATOM      3  C   UNL     1       2.562   6.186  18.518  0.00  0.00    +0.000 C 
ATOM      4  N   UNL     1       2.048   7.479  18.762  0.00  0.00    +0.000 N 
ATOM      5  C   UNL     1       2.719   8.629  18.161  0.00  0.00    +0.000 C 
ATOM      6  C   UNL     1       1.852   9.924  18.048  0.00  0.00    +0.000 C 
ATOM      7  N   UNL     1       0.826  10.266  19.076  0.00  0.00    +0.000 NA
ATOM      8  C   UNL     1       0.229   8.998  19.569  0.00  0.00    +0.000 C 
ATOM      9  C   UNL     1       1.152   7.794  19.866  0.00  0.00    +0.000 C 
BRANCH   3  10
ATOM     10  C   UNL     1       2.201   5.106  19.431  0.00  0.00    +0.000 A 
ATOM     11  C   UNL     1       2.591   4.821  20.735  0.00  0.00    +0.000 A 
ATOM     12  C   UNL     1       1.909   3.640  21.127  0.00  0.00    +0.000 A 
ATOM     13  C   UNL     1       1.086   3.313  20.077  0.00  0.00    +0.000 A 
ATOM     14  O   UNL     1       1.248   4.190  19.054  0.00  0.00    +0.000 OA
ENDBRANCH   3  10
ENDBRANCH   1   7
BRANCH   1  15
ATOM     15  C   UNL     1       1.289  12.698  19.761  0.00  0.00    +0.000 A 
ATOM     16  C   UNL     1       2.363  13.535  20.131  0.00  0.00    +0.000 A 
ATOM     17  C   UNL     1       2.426  14.878  19.724  0.00  0.00    +0.000 A 
ATOM     18  C   UNL     1       1.386  15.435  18.990  0.00  0.00    +0.000 A 
ATOM     19  C   UNL     1       0.293  14.649  18.656  0.00  0.00    +0.000 A 
ATOM     20  C   UNL     1       0.240  13.292  19.026  0.00  0.00    +0.000 A 
ATOM     21 CL   UNL     1      -1.186  12.436  18.558  0.00  0.00    +0.000 Cl
ENDBRANCH   1  15
BRANCH   1  22
ATOM     22  C   UNL     1       0.636  10.950  21.533  0.00  0.00    +0.000 A 
ATOM     23  N   UNL     1       1.172  10.014  22.314  0.00  0.00    +0.000 NA
ATOM     24  N   UNL     1       0.397   9.892  23.418  0.00  0.00    +0.000 NA
ATOM     25  N   UNL     1      -0.621  10.722  23.367  0.00  0.00    +0.000 NA
ATOM     26  N   UNL     1      -0.490  11.424  22.209  0.00  0.00    +0.000 N 
BRANCH  26  27
ATOM     27  C   UNL     1      -1.248  12.670  22.178  0.00  0.00    +0.000 C 
BRANCH  27  28
ATOM     28  C   UNL     1      -2.763  12.608  22.205  0.00  0.00    +0.000 A 
ATOM     29  C   UNL     1      -3.617  12.692  21.112  0.00  0.00    +0.000 A 
ATOM     30  C   UNL     1      -4.977  12.940  21.477  0.00  0.00    +0.000 A 
ATOM     31  C   UNL     1      -5.142  12.986  22.841  0.00  0.00    +0.000 A 
ATOM     32  S   UNL     1      -3.668  12.705  23.666  0.00  0.00    +0.000 S 
ENDBRANCH  27  28
ENDBRANCH  26  27
ENDBRANCH   1  22
TORSDOF 6
ENDMDL
