MODEL 1
REMARK VINA RESULT:      -7.6      0.000      0.000
REMARK  Name = 
REMARK  10 active torsions:
REMARK  status: ('A' for Active; 'I' for Inactive)
REMARK    1  A    between atoms: C_1  and  C_2
REMARK    2  A    between atoms: C_2  and  O_3
REMARK    3  A    between atoms: O_3  and  C_4
REMARK    4  A    between atoms: C_7  and  C_8
REMARK    5  A    between atoms: N_9  and  N_10
REMARK    6  A    between atoms: C_11  and  C_13
REMARK    7  A    between atoms: C_14  and  C_15
REMARK    8  A    between atoms: N_16  and  C_17
REMARK    9  A    between atoms: C_21  and  O_22
REMARK   10  A    between atoms: O_22  and  C_23
REMARK                            x       y       z     vdW  Elec       q    Type
REMARK                         _______ _______ _______ _____ _____    ______ ____
ROOT
ATOM      1  N   UNL     1       2.149   7.095  20.450  0.00  0.00    +0.000 N 
ATOM      2  C   UNL     1       2.028   5.670  20.297  0.00  0.00    +0.000 C 
ATOM      3  O   UNL     1       1.092   4.999  20.728  0.00  0.00    +0.000 OA
ATOM      4  H   UNL     1       2.953   7.519  19.992  0.00  0.00    +0.000 HD
ENDROOT
BRANCH   2   5
ATOM      5  C   UNL     1       3.178   5.048  19.523  0.00  0.00    +0.000 A 
ATOM      6  C   UNL     1       2.901   3.906  18.748  0.00  0.00    +0.000 A 
ATOM      7  C   UNL     1       2.187   4.104  17.420  0.00  0.00    +0.000 C 
ATOM      8  N   UNL     1       4.097   3.231  18.847  0.00  0.00    +0.000 N 
ATOM      9  C   UNL     1       4.517   2.298  19.886  0.00  0.00    +0.000 C 
ATOM     10  C   UNL     1       5.003   4.158  18.381  0.00  0.00    +0.000 A 
ATOM     11  C   UNL     1       6.164   3.916  17.662  0.00  0.00    +0.000 A 
ATOM     12  C   UNL     1       6.861   5.023  17.245  0.00  0.00    +0.000 A 
ATOM     13  C   UNL     1       6.445   6.309  17.598  0.00  0.00    +0.000 A 
ATOM     14  C   UNL     1       5.311   6.525  18.451  0.00  0.00    +0.000 A 
ATOM     15  C   UNL     1       4.497   5.405  18.847  0.00  0.00    +0.000 A 
BRANCH  13  16
ATOM     16  O   UNL     1       7.267   7.188  16.955  0.00  0.00    +0.000 OA
ATOM     17  C   UNL     1       7.847   8.321  17.550  0.00  0.00    +0.000 C 
ENDBRANCH  13  16
ENDBRANCH   2   5
BRANCH   1  19
ATOM     18  C   UNL     1       0.733   9.024  20.538  0.00  0.00    +0.000 C 
ATOM     19  N   UNL     1       1.402   8.093  21.151  0.00  0.00    +0.000 NA
BRANCH  18  23
ATOM     20  C   UNL     1      -1.721  12.019  22.694  0.00  0.00    +0.000 A 
ATOM     21  C   UNL     1      -1.341  12.261  21.363  0.00  0.00    +0.000 A 
ATOM     22  C   UNL     1      -0.555  11.326  20.614  0.00  0.00    +0.000 A 
ATOM     23  C   UNL     1      -0.113  10.127  21.196  0.00  0.00    +0.000 A 
ATOM     24  C   UNL     1      -0.475   9.922  22.539  0.00  0.00    +0.000 A 
ATOM     25  C   UNL     1      -1.261  10.844  23.276  0.00  0.00    +0.000 A 
BRANCH  20  26
ATOM     26  O   UNL     1      -2.477  12.985  23.325  0.00  0.00    +0.000 OA
BRANCH  26  28
ATOM     27  C   UNL     1      -4.415  12.414  24.714  0.00  0.00    +0.000 C 
ATOM     28  C   UNL     1      -3.906  12.806  23.324  0.00  0.00    +0.000 C 
ENDBRANCH  26  28
ENDBRANCH  20  26
ENDBRANCH  18  23
ENDBRANCH   1  19
TORSDOF 6
ENDMDL
MODEL 2
REMARK VINA RESULT:      -7.5      1.757      2.208
REMARK  Name = 
REMARK  10 active torsions:
REMARK  status: ('A' for Active; 'I' for Inactive)
REMARK    1  A    between atoms: C_1  and  C_2
REMARK    2  A    between atoms: C_2  and  O_3
REMARK    3  A    between atoms: O_3  and  C_4
REMARK    4  A    between atoms: C_7  and  C_8
REMARK    5  A    between atoms: N_9  and  N_10
REMARK    6  A    between atoms: C_11  and  C_13
REMARK    7  A    between atoms: C_14  and  C_15
REMARK    8  A    between atoms: N_16  and  C_17
REMARK    9  A    between atoms: C_21  and  O_22
REMARK   10  A    between atoms: O_22  and  C_23
REMARK                            x       y       z     vdW  Elec       q    Type
REMARK                         _______ _______ _______ _____ _____    ______ ____
ROOT
ATOM      1  N   UNL     1       2.255   7.121  20.004  0.00  0.00    +0.000 N 
ATOM      2  C   UNL     1       2.622   7.197  18.616  0.00  0.00    +0.000 C 
ATOM      3  O   UNL     1       2.344   8.135  17.870  0.00  0.00    +0.000 OA
ATOM      4  H   UNL     1       2.602   6.307  20.506  0.00  0.00    +0.000 HD
ENDROOT
BRANCH   2   5
ATOM      5  C   UNL     1       3.418   5.994  18.137  0.00  0.00    +0.000 A 
ATOM      6  C   UNL     1       2.841   4.722  18.303  0.00  0.00    +0.000 A 
ATOM      7  C   UNL     1       1.740   4.309  17.337  0.00  0.00    +0.000 C 
ATOM      8  N   UNL     1       3.965   3.953  18.510  0.00  0.00    +0.000 N 
ATOM      9  C   UNL     1       4.653   3.691  19.768  0.00  0.00    +0.000 C 
ATOM     10  C   UNL     1       4.714   4.211  17.383  0.00  0.00    +0.000 A 
ATOM     11  C   UNL     1       5.559   3.339  16.714  0.00  0.00    +0.000 A 
ATOM     12  C   UNL     1       6.138   3.817  15.565  0.00  0.00    +0.000 A 
ATOM     13  C   UNL     1       5.931   5.136  15.151  0.00  0.00    +0.000 A 
ATOM     14  C   UNL     1       5.155   6.056  15.932  0.00  0.00    +0.000 A 
ATOM     15  C   UNL     1       4.458   5.583  17.100  0.00  0.00    +0.000 A 
BRANCH  13  16
ATOM     16  O   UNL     1       6.541   5.278  13.939  0.00  0.00    +0.000 OA
ATOM     17  C   UNL     1       6.730   4.239  13.012  0.00  0.00    +0.000 C 
ENDBRANCH  13  16
ENDBRANCH   2   5
BRANCH   1  19
ATOM     18  C   UNL     1       0.958   9.071  20.503  0.00  0.00    +0.000 C 
ATOM     19  N   UNL     1       1.453   7.928  20.872  0.00  0.00    +0.000 NA
BRANCH  18  23
ATOM     20  C   UNL     1      -1.592  11.954  22.700  0.00  0.00    +0.000 A 
ATOM     21  C   UNL     1      -1.174  10.773  23.335  0.00  0.00    +0.000 A 
ATOM     22  C   UNL     1      -0.343   9.808  22.678  0.00  0.00    +0.000 A 
ATOM     23  C   UNL     1       0.073  10.001  21.350  0.00  0.00    +0.000 A 
ATOM     24  C   UNL     1      -0.386  11.173  20.723  0.00  0.00    +0.000 A 
ATOM     25  C   UNL     1      -1.200  12.130  21.378  0.00  0.00    +0.000 A 
BRANCH  20  26
ATOM     26  O   UNL     1      -2.391  12.815  23.422  0.00  0.00    +0.000 OA
BRANCH  26  28
ATOM     27  C   UNL     1      -4.471  12.441  24.666  0.00  0.00    +0.000 C 
ATOM     28  C   UNL     1      -3.817  12.649  23.298  0.00  0.00    +0.000 C 
ENDBRANCH  26  28
ENDBRANCH  20  26
ENDBRANCH  18  23
ENDBRANCH   1  19
TORSDOF 6
ENDMDL
MODEL 3
REMARK VINA RESULT:      -7.5      0.894      1.291
REMARK  Name = 
REMARK  10 active torsions:
REMARK  status: ('A' for Active; 'I' for Inactive)
REMARK    1  A    between atoms: C_1  and  C_2
REMARK    2  A    between atoms: C_2  and  O_3
REMARK    3  A    between atoms: O_3  and  C_4
REMARK    4  A    between atoms: C_7  and  C_8
REMARK    5  A    between atoms: N_9  and  N_10
REMARK    6  A    between atoms: C_11  and  C_13
REMARK    7  A    between atoms: C_14  and  C_15
REMARK    8  A    between atoms: N_16  and  C_17
REMARK    9  A    between atoms: C_21  and  O_22
REMARK   10  A    between atoms: O_22  and  C_23
REMARK                            x       y       z     vdW  Elec       q    Type
REMARK                         _______ _______ _______ _____ _____    ______ ____
ROOT
ATOM      1  N   UNL     1       1.964   6.398  20.318  0.00  0.00    +0.000 N 
ATOM      2  C   UNL     1       2.304   5.009  20.466  0.00  0.00    +0.000 C 
ATOM      3  O   UNL     1       1.933   4.294  21.395  0.00  0.00    +0.000 OA
ATOM      4  H   UNL     1       2.301   6.844  19.468  0.00  0.00    +0.000 HD
ENDROOT
BRANCH   2   5
ATOM      5  C   UNL     1       3.174   4.478  19.338  0.00  0.00    +0.000 A 
ATOM      6  C   UNL     1       2.550   3.706  18.341  0.00  0.00    +0.000 A 
ATOM      7  C   UNL     1       1.725   4.433  17.289  0.00  0.00    +0.000 C 
ATOM      8  N   UNL     1       3.569   2.842  18.008  0.00  0.00    +0.000 N 
ATOM      9  C   UNL     1       3.907   1.570  18.636  0.00  0.00    +0.000 C 
ATOM     10  C   UNL     1       4.586   3.701  17.656  0.00  0.00    +0.000 A 
ATOM     11  C   UNL     1       5.558   3.506  16.686  0.00  0.00    +0.000 A 
ATOM     12  C   UNL     1       6.421   4.553  16.473  0.00  0.00    +0.000 A 
ATOM     13  C   UNL     1       6.350   5.712  17.250  0.00  0.00    +0.000 A 
ATOM     14  C   UNL     1       5.417   5.835  18.335  0.00  0.00    +0.000 A 
ATOM     15  C   UNL     1       4.436   4.802  18.546  0.00  0.00    +0.000 A 
BRANCH  13  16
ATOM     16  O   UNL     1       7.252   6.597  16.736  0.00  0.00    +0.000 OA
ATOM     17  C   UNL     1       7.668   7.777  17.376  0.00  0.00    +0.000 C 
ENDBRANCH  13  16
ENDBRANCH   2   5
BRANCH   1  19
ATOM     18  C   UNL     1       1.035   8.565  20.733  0.00  0.00    +0.000 C 
ATOM     19  N   UNL     1       1.270   7.350  21.130  0.00  0.00    +0.000 NA
BRANCH  18  23
ATOM     20  C   UNL     1      -1.009  11.917  22.790  0.00  0.00    +0.000 A 
ATOM     21  C   UNL     1      -1.116  10.615  23.308  0.00  0.00    +0.000 A 
ATOM     22  C   UNL     1      -0.471   9.494  22.691  0.00  0.00    +0.000 A 
ATOM     23  C   UNL     1       0.285   9.654  21.518  0.00  0.00    +0.000 A 
ATOM     24  C   UNL     1       0.349  10.959  20.998  0.00  0.00    +0.000 A 
ATOM     25  C   UNL     1      -0.282  12.068  21.615  0.00  0.00    +0.000 A 
BRANCH  20  26
ATOM     26  O   UNL     1      -1.670  12.924  23.460  0.00  0.00    +0.000 OA
BRANCH  26  28
ATOM     27  C   UNL     1      -3.815  14.106  23.332  0.00  0.00    +0.000 C 
ATOM     28  C   UNL     1      -3.096  12.785  23.616  0.00  0.00    +0.000 C 
ENDBRANCH  26  28
ENDBRANCH  20  26
ENDBRANCH  18  23
ENDBRANCH   1  19
TORSDOF 6
ENDMDL
MODEL 4
REMARK VINA RESULT:      -7.3      2.484     10.590
REMARK  Name = 
REMARK  10 active torsions:
REMARK  status: ('A' for Active; 'I' for Inactive)
REMARK    1  A    between atoms: C_1  and  C_2
REMARK    2  A    between atoms: C_2  and  O_3
REMARK    3  A    between atoms: O_3  and  C_4
REMARK    4  A    between atoms: C_7  and  C_8
REMARK    5  A    between atoms: N_9  and  N_10
REMARK    6  A    between atoms: C_11  and  C_13
REMARK    7  A    between atoms: C_14  and  C_15
REMARK    8  A    between atoms: N_16  and  C_17
REMARK    9  A    between atoms: C_21  and  O_22
REMARK   10  A    between atoms: O_22  and  C_23
REMARK                            x       y       z     vdW  Elec       q    Type
REMARK                         _______ _______ _______ _____ _____    ______ ____
ROOT
ATOM      1  N   UNL     1       1.535   9.711  18.514  0.00  0.00    +0.000 N 
ATOM      2  C   UNL     1       0.904   9.774  19.804  0.00  0.00    +0.000 C 
ATOM      3  O   UNL     1       1.147   9.012  20.738  0.00  0.00    +0.000 OA
ATOM      4  H   UNL     1       1.269  10.443  17.859  0.00  0.00    +0.000 HD
ENDROOT
BRANCH   2   5
ATOM      5  C   UNL     1      -0.107  10.902  19.926  0.00  0.00    +0.000 A 
ATOM      6  C   UNL     1      -0.873  11.217  18.788  0.00  0.00    +0.000 A 
ATOM      7  C   UNL     1      -2.028  10.294  18.429  0.00  0.00    +0.000 C 
ATOM      8  N   UNL     1      -1.041  12.574  18.958  0.00  0.00    +0.000 N 
ATOM      9  C   UNL     1      -0.152  13.647  18.531  0.00  0.00    +0.000 C 
ATOM     10  C   UNL     1      -1.624  12.648  20.204  0.00  0.00    +0.000 A 
ATOM     11  C   UNL     1      -2.563  13.570  20.641  0.00  0.00    +0.000 A 
ATOM     12  C   UNL     1      -3.048  13.384  21.912  0.00  0.00    +0.000 A 
ATOM     13  C   UNL     1      -2.555  12.361  22.727  0.00  0.00    +0.000 A 
ATOM     14  C   UNL     1      -1.490  11.502  22.294  0.00  0.00    +0.000 A 
ATOM     15  C   UNL     1      -1.005  11.600  20.942  0.00  0.00    +0.000 A 
BRANCH  13  16
ATOM     16  O   UNL     1      -3.297  12.366  23.872  0.00  0.00    +0.000 OA
ATOM     17  C   UNL     1      -4.628  12.807  23.960  0.00  0.00    +0.000 C 
ENDBRANCH  13  16
ENDBRANCH   2   5
BRANCH   1  19
ATOM     18  C   UNL     1       2.538   7.556  18.229  0.00  0.00    +0.000 C 
ATOM     19  N   UNL     1       2.455   8.808  17.893  0.00  0.00    +0.000 NA
BRANCH  18  23
ATOM     20  C   UNL     1       5.413   4.764  16.336  0.00  0.00    +0.000 A 
ATOM     21  C   UNL     1       4.294   4.253  17.015  0.00  0.00    +0.000 A 
ATOM     22  C   UNL     1       3.327   5.107  17.639  0.00  0.00    +0.000 A 
ATOM     23  C   UNL     1       3.475   6.504  17.612  0.00  0.00    +0.000 A 
ATOM     24  C   UNL     1       4.621   6.991  16.958  0.00  0.00    +0.000 A 
ATOM     25  C   UNL     1       5.571   6.145  16.333  0.00  0.00    +0.000 A 
BRANCH  20  26
ATOM     26  O   UNL     1       6.283   3.855  15.772  0.00  0.00    +0.000 OA
BRANCH  26  28
ATOM     27  C   UNL     1       5.602   3.791  13.417  0.00  0.00    +0.000 C 
ATOM     28  C   UNL     1       6.714   4.108  14.420  0.00  0.00    +0.000 C 
ENDBRANCH  26  28
ENDBRANCH  20  26
ENDBRANCH  18  23
ENDBRANCH   1  19
TORSDOF 6
ENDMDL
MODEL 5
REMARK VINA RESULT:      -7.2      3.440     10.726
REMARK  Name = 
REMARK  10 active torsions:
REMARK  status: ('A' for Active; 'I' for Inactive)
REMARK    1  A    between atoms: C_1  and  C_2
REMARK    2  A    between atoms: C_2  and  O_3
REMARK    3  A    between atoms: O_3  and  C_4
REMARK    4  A    between atoms: C_7  and  C_8
REMARK    5  A    between atoms: N_9  and  N_10
REMARK    6  A    between atoms: C_11  and  C_13
REMARK    7  A    between atoms: C_14  and  C_15
REMARK    8  A    between atoms: N_16  and  C_17
REMARK    9  A    between atoms: C_21  and  O_22
REMARK   10  A    between atoms: O_22  and  C_23
REMARK                            x       y       z     vdW  Elec       q    Type
REMARK                         _______ _______ _______ _____ _____    ______ ____
ROOT
ATOM      1  N   UNL     1       1.030   9.987  18.133  0.00  0.00    +0.000 N 
ATOM      2  C   UNL     1       1.159  11.325  18.642  0.00  0.00    +0.000 C 
ATOM      3  O   UNL     1       2.194  11.988  18.611  0.00  0.00    +0.000 OA
ATOM      4  H   UNL     1       0.095   9.587  18.182  0.00  0.00    +0.000 HD
ENDROOT
BRANCH   2   5
ATOM      5  C   UNL     1      -0.133  11.874  19.227  0.00  0.00    +0.000 A 
ATOM      6  C   UNL     1      -0.105  13.176  19.762  0.00  0.00    +0.000 A 
ATOM      7  C   UNL     1      -0.113  14.345  18.789  0.00  0.00    +0.000 C 
ATOM      8  N   UNL     1      -1.028  13.057  20.777  0.00  0.00    +0.000 N 
ATOM      9  C   UNL     1      -0.804  12.602  22.144  0.00  0.00    +0.000 C 
ATOM     10  C   UNL     1      -2.153  12.627  20.109  0.00  0.00    +0.000 A 
ATOM     11  C   UNL     1      -3.475  12.928  20.402  0.00  0.00    +0.000 A 
ATOM     12  C   UNL     1      -4.416  12.433  19.533  0.00  0.00    +0.000 A 
ATOM     13  C   UNL     1      -4.046  11.615  18.462  0.00  0.00    +0.000 A 
ATOM     14  C   UNL     1      -2.683  11.214  18.257  0.00  0.00    +0.000 A 
ATOM     15  C   UNL     1      -1.648  11.772  19.089  0.00  0.00    +0.000 A 
BRANCH  13  16
ATOM     16  O   UNL     1      -5.172  11.376  17.730  0.00  0.00    +0.000 OA
ATOM     17  C   UNL     1      -6.053  12.369  17.271  0.00  0.00    +0.000 C 
ENDBRANCH  13  16
ENDBRANCH   2   5
BRANCH   1  19
ATOM     18  C   UNL     1       2.242   7.924  18.200  0.00  0.00    +0.000 C 
ATOM     19  N   UNL     1       1.944   9.031  17.589  0.00  0.00    +0.000 NA
BRANCH  18  23
ATOM     20  C   UNL     1       5.153   4.992  16.596  0.00  0.00    +0.000 A 
ATOM     21  C   UNL     1       4.051   4.539  17.340  0.00  0.00    +0.000 A 
ATOM     22  C   UNL     1       3.073   5.439  17.876  0.00  0.00    +0.000 A 
ATOM     23  C   UNL     1       3.194   6.827  17.693  0.00  0.00    +0.000 A 
ATOM     24  C   UNL     1       4.324   7.259  16.977  0.00  0.00    +0.000 A 
ATOM     25  C   UNL     1       5.285   6.367  16.439  0.00  0.00    +0.000 A 
BRANCH  20  26
ATOM     26  O   UNL     1       6.036   4.042  16.127  0.00  0.00    +0.000 OA
BRANCH  26  28
ATOM     27  C   UNL     1       6.198   3.876  13.686  0.00  0.00    +0.000 C 
ATOM     28  C   UNL     1       6.832   4.394  14.979  0.00  0.00    +0.000 C 
ENDBRANCH  26  28
ENDBRANCH  20  26
ENDBRANCH  18  23
ENDBRANCH   1  19
TORSDOF 6
ENDMDL
MODEL 6
REMARK VINA RESULT:      -7.2      2.613     10.546
REMARK  Name = 
REMARK  10 active torsions:
REMARK  status: ('A' for Active; 'I' for Inactive)
REMARK    1  A    between atoms: C_1  and  C_2
REMARK    2  A    between atoms: C_2  and  O_3
REMARK    3  A    between atoms: O_3  and  C_4
REMARK    4  A    between atoms: C_7  and  C_8
REMARK    5  A    between atoms: N_9  and  N_10
REMARK    6  A    between atoms: C_11  and  C_13
REMARK    7  A    between atoms: C_14  and  C_15
REMARK    8  A    between atoms: N_16  and  C_17
REMARK    9  A    between atoms: C_21  and  O_22
REMARK   10  A    between atoms: O_22  and  C_23
REMARK                            x       y       z     vdW  Elec       q    Type
REMARK                         _______ _______ _______ _____ _____    ______ ____
ROOT
ATOM      1  N   UNL     1       1.381   9.216  19.150  0.00  0.00    +0.000 N 
ATOM      2  C   UNL     1       0.182   9.968  18.897  0.00  0.00    +0.000 C 
ATOM      3  O   UNL     1      -0.374  10.049  17.804  0.00  0.00    +0.000 OA
ATOM      4  H   UNL     1       1.694   9.200  20.118  0.00  0.00    +0.000 HD
ENDROOT
BRANCH   2   5
ATOM      5  C   UNL     1      -0.365  10.662  20.134  0.00  0.00    +0.000 A 
ATOM      6  C   UNL     1       0.561  11.100  21.099  0.00  0.00    +0.000 A 
ATOM      7  C   UNL     1       1.350  12.367  20.805  0.00  0.00    +0.000 C 
ATOM      8  N   UNL     1      -0.175  10.944  22.253  0.00  0.00    +0.000 N 
ATOM      9  C   UNL     1      -0.311   9.748  23.075  0.00  0.00    +0.000 C 
ATOM     10  C   UNL     1      -1.295  11.706  21.998  0.00  0.00    +0.000 A 
ATOM     11  C   UNL     1      -2.039  12.442  22.907  0.00  0.00    +0.000 A 
ATOM     12  C   UNL     1      -3.072  13.182  22.387  0.00  0.00    +0.000 A 
ATOM     13  C   UNL     1      -3.383  13.125  21.026  0.00  0.00    +0.000 A 
ATOM     14  C   UNL     1      -2.677  12.254  20.129  0.00  0.00    +0.000 A 
ATOM     15  C   UNL     1      -1.533  11.521  20.606  0.00  0.00    +0.000 A 
BRANCH  13  16
ATOM     16  O   UNL     1      -4.372  14.037  20.800  0.00  0.00    +0.000 OA
ATOM     17  C   UNL     1      -4.317  15.387  21.184  0.00  0.00    +0.000 C 
ENDBRANCH  13  16
ENDBRANCH   2   5
BRANCH   1  19
ATOM     18  C   UNL     1       2.538   7.224  18.500  0.00  0.00    +0.000 C 
ATOM     19  N   UNL     1       2.298   8.489  18.327  0.00  0.00    +0.000 NA
BRANCH  18  23
ATOM     20  C   UNL     1       5.152   4.452  16.234  0.00  0.00    +0.000 A 
ATOM     21  C   UNL     1       5.271   5.838  16.035  0.00  0.00    +0.000 A 
ATOM     22  C   UNL     1       4.459   6.781  16.744  0.00  0.00    +0.000 A 
ATOM     23  C   UNL     1       3.487   6.350  17.662  0.00  0.00    +0.000 A 
ATOM     24  C   UNL     1       3.361   4.958  17.820  0.00  0.00    +0.000 A 
ATOM     25  C   UNL     1       4.172   4.027  17.124  0.00  0.00    +0.000 A 
BRANCH  20  26
ATOM     26  O   UNL     1       5.980   3.631  15.499  0.00  0.00    +0.000 OA
BRANCH  26  28
ATOM     27  C   UNL     1       5.974   3.633  13.047  0.00  0.00    +0.000 C 
ATOM     28  C   UNL     1       6.596   4.197  14.327  0.00  0.00    +0.000 C 
ENDBRANCH  26  28
ENDBRANCH  20  26
ENDBRANCH  18  23
ENDBRANCH   1  19
TORSDOF 6
ENDMDL
MODEL 7
REMARK VINA RESULT:      -7.1      2.904     10.319
REMARK  Name = 
REMARK  10 active torsions:
REMARK  status: ('A' for Active; 'I' for Inactive)
REMARK    1  A    between atoms: C_1  and  C_2
REMARK    2  A    between atoms: C_2  and  O_3
REMARK    3  A    between atoms: O_3  and  C_4
REMARK    4  A    between atoms: C_7  and  C_8
REMARK    5  A    between atoms: N_9  and  N_10
REMARK    6  A    between atoms: C_11  and  C_13
REMARK    7  A    between atoms: C_14  and  C_15
REMARK    8  A    between atoms: N_16  and  C_17
REMARK    9  A    between atoms: C_21  and  O_22
REMARK   10  A    between atoms: O_22  and  C_23
REMARK                            x       y       z     vdW  Elec       q    Type
REMARK                         _______ _______ _______ _____ _____    ______ ____
ROOT
ATOM      1  N   UNL     1       1.501   9.160  18.517  0.00  0.00    +0.000 N 
ATOM      2  C   UNL     1       1.165   9.154  19.915  0.00  0.00    +0.000 C 
ATOM      3  O   UNL     1       1.671   8.409  20.751  0.00  0.00    +0.000 OA
ATOM      4  H   UNL     1       1.037   9.872  17.957  0.00  0.00    +0.000 HD
ENDROOT
BRANCH   2   5
ATOM      5  C   UNL     1       0.112  10.186  20.286  0.00  0.00    +0.000 A 
ATOM      6  C   UNL     1       0.534  11.318  21.008  0.00  0.00    +0.000 A 
ATOM      7  C   UNL     1       1.264  12.416  20.248  0.00  0.00    +0.000 C 
ATOM      8  N   UNL     1      -0.585  11.570  21.770  0.00  0.00    +0.000 N 
ATOM      9  C   UNL     1      -0.934  11.000  23.066  0.00  0.00    +0.000 C 
ATOM     10  C   UNL     1      -1.570  11.707  20.817  0.00  0.00    +0.000 A 
ATOM     11  C   UNL     1      -2.676  12.543  20.861  0.00  0.00    +0.000 A 
ATOM     12  C   UNL     1      -3.475  12.551  19.745  0.00  0.00    +0.000 A 
ATOM     13  C   UNL     1      -3.210  11.704  18.666  0.00  0.00    +0.000 A 
ATOM     14  C   UNL     1      -2.133  10.756  18.700  0.00  0.00    +0.000 A 
ATOM     15  C   UNL     1      -1.216  10.765  19.810  0.00  0.00    +0.000 A 
BRANCH  13  16
ATOM     16  O   UNL     1      -4.101  12.016  17.681  0.00  0.00    +0.000 OA
ATOM     17  C   UNL     1      -4.253  11.297  16.484  0.00  0.00    +0.000 C 
ENDBRANCH  13  16
ENDBRANCH   2   5
BRANCH   1  19
ATOM     18  C   UNL     1       3.009   7.338  18.146  0.00  0.00    +0.000 C 
ATOM     19  N   UNL     1       2.336   8.349  17.685  0.00  0.00    +0.000 NA
BRANCH  18  23
ATOM     20  C   UNL     1       5.454   4.381  15.928  0.00  0.00    +0.000 A 
ATOM     21  C   UNL     1       5.769   5.747  15.841  0.00  0.00    +0.000 A 
ATOM     22  C   UNL     1       5.020   6.747  16.542  0.00  0.00    +0.000 A 
ATOM     23  C   UNL     1       3.916   6.396  17.335  0.00  0.00    +0.000 A 
ATOM     24  C   UNL     1       3.597   5.027  17.380  0.00  0.00    +0.000 A 
ATOM     25  C   UNL     1       4.345   4.039  16.694  0.00  0.00    +0.000 A 
BRANCH  20  26
ATOM     26  O   UNL     1       6.239   3.501  15.213  0.00  0.00    +0.000 OA
BRANCH  26  28
ATOM     27  C   UNL     1       5.609   3.572  12.844  0.00  0.00    +0.000 C 
ATOM     28  C   UNL     1       6.663   3.916  13.900  0.00  0.00    +0.000 C 
ENDBRANCH  26  28
ENDBRANCH  20  26
ENDBRANCH  18  23
ENDBRANCH   1  19
TORSDOF 6
ENDMDL
MODEL 8
REMARK VINA RESULT:      -7.1      1.336      1.459
REMARK  Name = 
REMARK  10 active torsions:
REMARK  status: ('A' for Active; 'I' for Inactive)
REMARK    1  A    between atoms: C_1  and  C_2
REMARK    2  A    between atoms: C_2  and  O_3
REMARK    3  A    between atoms: O_3  and  C_4
REMARK    4  A    between atoms: C_7  and  C_8
REMARK    5  A    between atoms: N_9  and  N_10
REMARK    6  A    between atoms: C_11  and  C_13
REMARK    7  A    between atoms: C_14  and  C_15
REMARK    8  A    between atoms: N_16  and  C_17
REMARK    9  A    between atoms: C_21  and  O_22
REMARK   10  A    between atoms: O_22  and  C_23
REMARK                            x       y       z     vdW  Elec       q    Type
REMARK                         _______ _______ _______ _____ _____    ______ ____
ROOT
ATOM      1  N   UNL     1       2.244   7.288  19.428  0.00  0.00    +0.000 N 
ATOM      2  C   UNL     1       2.252   5.936  19.916  0.00  0.00    +0.000 C 
ATOM      3  O   UNL     1       1.666   5.555  20.927  0.00  0.00    +0.000 OA
ATOM      4  H   UNL     1       2.731   7.440  18.547  0.00  0.00    +0.000 HD
ENDROOT
BRANCH   2   5
ATOM      5  C   UNL     1       3.057   4.986  19.044  0.00  0.00    +0.000 A 
ATOM      6  C   UNL     1       2.494   3.728  18.756  0.00  0.00    +0.000 A 
ATOM      7  C   UNL     1       1.390   3.665  17.711  0.00  0.00    +0.000 C 
ATOM      8  N   UNL     1       3.627   2.950  18.677  0.00  0.00    +0.000 N 
ATOM      9  C   UNL     1       4.328   2.274  19.762  0.00  0.00    +0.000 C 
ATOM     10  C   UNL     1       4.366   3.595  17.709  0.00  0.00    +0.000 A 
ATOM     11  C   UNL     1       5.214   3.022  16.774  0.00  0.00    +0.000 A 
ATOM     12  C   UNL     1       5.780   3.879  15.863  0.00  0.00    +0.000 A 
ATOM     13  C   UNL     1       5.555   5.256  15.937  0.00  0.00    +0.000 A 
ATOM     14  C   UNL     1       4.776   5.836  16.993  0.00  0.00    +0.000 A 
ATOM     15  C   UNL     1       4.093   4.976  17.925  0.00  0.00    +0.000 A 
BRANCH  13  16
ATOM     16  O   UNL     1       6.154   5.820  14.848  0.00  0.00    +0.000 OA
ATOM     17  C   UNL     1       7.109   5.181  14.041  0.00  0.00    +0.000 C 
ENDBRANCH  13  16
ENDBRANCH   2   5
BRANCH   1  19
ATOM     18  C   UNL     1       0.768   8.583  20.797  0.00  0.00    +0.000 C 
ATOM     19  N   UNL     1       1.727   8.527  19.922  0.00  0.00    +0.000 NA
BRANCH  18  23
ATOM     20  C   UNL     1      -1.116  12.074  22.774  0.00  0.00    +0.000 A 
ATOM     21  C   UNL     1      -0.413  12.254  21.571  0.00  0.00    +0.000 A 
ATOM     22  C   UNL     1       0.209  11.162  20.883  0.00  0.00    +0.000 A 
ATOM     23  C   UNL     1       0.157   9.858  21.403  0.00  0.00    +0.000 A 
ATOM     24  C   UNL     1      -0.522   9.708  22.626  0.00  0.00    +0.000 A 
ATOM     25  C   UNL     1      -1.145  10.788  23.300  0.00  0.00    +0.000 A 
BRANCH  20  26
ATOM     26  O   UNL     1      -1.676  13.192  23.355  0.00  0.00    +0.000 OA
BRANCH  26  28
ATOM     27  C   UNL     1      -3.925  12.723  24.214  0.00  0.00    +0.000 C 
ATOM     28  C   UNL     1      -3.083  13.412  23.137  0.00  0.00    +0.000 C 
ENDBRANCH  26  28
ENDBRANCH  20  26
ENDBRANCH  18  23
ENDBRANCH   1  19
TORSDOF 6
ENDMDL
MODEL 9
REMARK VINA RESULT:      -7.1      6.431      8.926
REMARK  Name = 
REMARK  10 active torsions:
REMARK  status: ('A' for Active; 'I' for Inactive)
REMARK    1  A    between atoms: C_1  and  C_2
REMARK    2  A    between atoms: C_2  and  O_3
REMARK    3  A    between atoms: O_3  and  C_4
REMARK    4  A    between atoms: C_7  and  C_8
REMARK    5  A    between atoms: N_9  and  N_10
REMARK    6  A    between atoms: C_11  and  C_13
REMARK    7  A    between atoms: C_14  and  C_15
REMARK    8  A    between atoms: N_16  and  C_17
REMARK    9  A    between atoms: C_21  and  O_22
REMARK   10  A    between atoms: O_22  and  C_23
REMARK                            x       y       z     vdW  Elec       q    Type
REMARK                         _______ _______ _______ _____ _____    ______ ____
ROOT
ATOM      1  N   UNL     1       7.889   7.554  18.161  0.00  0.00    +0.000 N 
ATOM      2  C   UNL     1       7.485   6.254  18.622  0.00  0.00    +0.000 C 
ATOM      3  O   UNL     1       7.796   5.771  19.710  0.00  0.00    +0.000 OA
ATOM      4  H   UNL     1       7.509   7.838  17.261  0.00  0.00    +0.000 HD
ENDROOT
BRANCH   2   5
ATOM      5  C   UNL     1       6.603   5.510  17.632  0.00  0.00    +0.000 A 
ATOM      6  C   UNL     1       5.211   5.691  17.735  0.00  0.00    +0.000 A 
ATOM      7  C   UNL     1       4.621   6.988  17.202  0.00  0.00    +0.000 C 
ATOM      8  N   UNL     1       4.760   4.455  17.326  0.00  0.00    +0.000 N 
ATOM      9  C   UNL     1       4.561   3.261  18.138  0.00  0.00    +0.000 C 
ATOM     10  C   UNL     1       5.333   4.325  16.080  0.00  0.00    +0.000 A 
ATOM     11  C   UNL     1       4.801   3.687  14.970  0.00  0.00    +0.000 A 
ATOM     12  C   UNL     1       5.541   3.761  13.816  0.00  0.00    +0.000 A 
ATOM     13  C   UNL     1       6.789   4.388  13.802  0.00  0.00    +0.000 A 
ATOM     14  C   UNL     1       7.374   4.928  14.997  0.00  0.00    +0.000 A 
ATOM     15  C   UNL     1       6.605   4.950  16.214  0.00  0.00    +0.000 A 
BRANCH  13  16
ATOM     16  O   UNL     1       7.222   4.394  12.508  0.00  0.00    +0.000 OA
ATOM     17  C   UNL     1       7.004   3.355  11.588  0.00  0.00    +0.000 C 
ENDBRANCH  13  16
ENDBRANCH   2   5
BRANCH   1  19
ATOM     18  C   UNL     1       8.705   9.803  18.264  0.00  0.00    +0.000 C 
ATOM     19  N   UNL     1       8.764   8.568  18.665  0.00  0.00    +0.000 NA
BRANCH  18  23
ATOM     20  C   UNL     1      11.200  13.288  19.391  0.00  0.00    +0.000 A 
ATOM     21  C   UNL     1      11.009  12.244  20.312  0.00  0.00    +0.000 A 
ATOM     22  C   UNL     1      10.220  11.089  20.001  0.00  0.00    +0.000 A 
ATOM     23  C   UNL     1       9.583  10.966  18.755  0.00  0.00    +0.000 A 
ATOM     24  C   UNL     1       9.758  12.039  17.863  0.00  0.00    +0.000 A 
ATOM     25  C   UNL     1      10.547  13.176  18.169  0.00  0.00    +0.000 A 
BRANCH  20  26
ATOM     26  O   UNL     1      11.977  14.355  19.792  0.00  0.00    +0.000 OA
BRANCH  26  28
ATOM     27  C   UNL     1      12.293  16.763  19.457  0.00  0.00    +0.000 C 
ATOM     28  C   UNL     1      12.247  15.376  18.812  0.00  0.00    +0.000 C 
ENDBRANCH  26  28
ENDBRANCH  20  26
ENDBRANCH  18  23
ENDBRANCH   1  19
TORSDOF 6
ENDMDL
