MODEL 1
REMARK VINA RESULT:      -7.3      0.000      0.000
REMARK  Name = 
REMARK  8 active torsions:
REMARK  status: ('A' for Active; 'I' for Inactive)
REMARK    1  A    between atoms: C_1  and  O_2
REMARK    2  A    between atoms: O_2  and  C_3
REMARK    3  A    between atoms: C_5  and  C_6
REMARK    4  A    between atoms: C_8  and  N_9
REMARK    5  A    between atoms: C_10  and  C_11
REMARK    6  A    between atoms: C_10  and  C_12
REMARK    7  A    between atoms: C_15  and  O_16
REMARK    8  A    between atoms: C_18  and  O_19
REMARK                            x       y       z     vdW  Elec       q    Type
REMARK                         _______ _______ _______ _____ _____    ______ ____
ROOT
ATOM      1  N   UNL     1       5.119   4.194  18.288  0.00  0.00    +0.000 NA
ATOM      2  C   UNL     1       3.870   4.502  18.493  0.00  0.00    +0.000 C 
ATOM      3  C   UNL     1       3.052   5.492  17.677  0.00  0.00    +0.000 C 
ENDROOT
BRANCH   1   9
ATOM      4  C   UNL     1       7.256   6.178  16.337  0.00  0.00    +0.000 A 
ATOM      5  N   UNL     1       7.231   5.603  15.132  0.00  0.00    +0.000 NA
ATOM      6  C   UNL     1       6.442   4.536  15.052  0.00  0.00    +0.000 A 
ATOM      7  C   UNL     1       6.361   3.857  13.715  0.00  0.00    +0.000 C 
ATOM      8  N   UNL     1       5.757   4.017  16.075  0.00  0.00    +0.000 NA
ATOM      9  C   UNL     1       5.876   4.684  17.223  0.00  0.00    +0.000 A 
ATOM     10  N   UNL     1       6.569   5.787  17.397  0.00  0.00    +0.000 NA
BRANCH   4  12
ATOM     11  C   UNL     1       7.757   8.015  17.690  0.00  0.00    +0.000 C 
ATOM     12  O   UNL     1       8.098   7.253  16.547  0.00  0.00    +0.000 OA
ENDBRANCH   4  12
ENDBRANCH   1   9
BRANCH   2  13
ATOM     13  C   UNL     1       3.151   3.884  19.674  0.00  0.00    +0.000 A 
ATOM     14  C   UNL     1       1.904   4.406  20.056  0.00  0.00    +0.000 A 
ATOM     15  C   UNL     1       1.155   3.793  21.072  0.00  0.00    +0.000 A 
ATOM     16  C   UNL     1       1.654   2.659  21.706  0.00  0.00    +0.000 A 
ATOM     17  C   UNL     1       2.898   2.150  21.370  0.00  0.00    +0.000 A 
ATOM     18  C   UNL     1       3.648   2.764  20.367  0.00  0.00    +0.000 A 
BRANCH  16  19
ATOM     19  O   UNL     1       0.955   2.008  22.678  0.00  0.00    +0.000 OA
ATOM     20  H   UNL     1       1.100   1.052  22.586  0.00  0.00    +0.000 HD
ENDBRANCH  16  19
BRANCH  18  21
ATOM     21  O   UNL     1       4.887   2.253  20.095  0.00  0.00    +0.000 OA
ATOM     22  H   UNL     1       5.526   2.979  19.999  0.00  0.00    +0.000 HD
ENDBRANCH  18  21
ENDBRANCH   2  13
TORSDOF 5
ENDMDL
MODEL 2
REMARK VINA RESULT:      -7.2      1.018      2.362
REMARK  Name = 
REMARK  8 active torsions:
REMARK  status: ('A' for Active; 'I' for Inactive)
REMARK    1  A    between atoms: C_1  and  O_2
REMARK    2  A    between atoms: O_2  and  C_3
REMARK    3  A    between atoms: C_5  and  C_6
REMARK    4  A    between atoms: C_8  and  N_9
REMARK    5  A    between atoms: C_10  and  C_11
REMARK    6  A    between atoms: C_10  and  C_12
REMARK    7  A    between atoms: C_15  and  O_16
REMARK    8  A    between atoms: C_18  and  O_19
REMARK                            x       y       z     vdW  Elec       q    Type
REMARK                         _______ _______ _______ _____ _____    ______ ____
ROOT
ATOM      1  N   UNL     1       5.219   4.842  18.935  0.00  0.00    +0.000 NA
ATOM      2  C   UNL     1       3.962   4.577  18.719  0.00  0.00    +0.000 C 
ATOM      3  C   UNL     1       3.191   4.898  17.447  0.00  0.00    +0.000 C 
ENDROOT
BRANCH   1   9
ATOM      4  C   UNL     1       7.201   5.303  16.077  0.00  0.00    +0.000 A 
ATOM      5  N   UNL     1       7.759   6.504  16.253  0.00  0.00    +0.000 NA
ATOM      6  C   UNL     1       7.421   7.102  17.391  0.00  0.00    +0.000 A 
ATOM      7  C   UNL     1       8.031   8.448  17.651  0.00  0.00    +0.000 C 
ATOM      8  N   UNL     1       6.560   6.607  18.285  0.00  0.00    +0.000 NA
ATOM      9  C   UNL     1       6.071   5.404  17.984  0.00  0.00    +0.000 A 
ATOM     10  N   UNL     1       6.389   4.693  16.925  0.00  0.00    +0.000 NA
BRANCH   4  12
ATOM     11  C   UNL     1       6.294   3.931  14.419  0.00  0.00    +0.000 C 
ATOM     12  O   UNL     1       7.431   4.626  14.895  0.00  0.00    +0.000 OA
ENDBRANCH   4  12
ENDBRANCH   1   9
BRANCH   2  13
ATOM     13  C   UNL     1       3.148   3.945  19.828  0.00  0.00    +0.000 A 
ATOM     14  C   UNL     1       1.877   4.468  20.118  0.00  0.00    +0.000 A 
ATOM     15  C   UNL     1       1.046   3.843  21.061  0.00  0.00    +0.000 A 
ATOM     16  C   UNL     1       1.489   2.698  21.715  0.00  0.00    +0.000 A 
ATOM     17  C   UNL     1       2.754   2.187  21.473  0.00  0.00    +0.000 A 
ATOM     18  C   UNL     1       3.584   2.812  20.542  0.00  0.00    +0.000 A 
BRANCH  16  19
ATOM     19  O   UNL     1       0.712   2.035  22.619  0.00  0.00    +0.000 OA
ATOM     20  H   UNL     1      -0.126   1.787  22.194  0.00  0.00    +0.000 HD
ENDBRANCH  16  19
BRANCH  18  21
ATOM     21  O   UNL     1       4.839   2.299  20.362  0.00  0.00    +0.000 OA
ATOM     22  H   UNL     1       4.913   1.921  19.470  0.00  0.00    +0.000 HD
ENDBRANCH  18  21
ENDBRANCH   2  13
TORSDOF 5
ENDMDL
MODEL 3
REMARK VINA RESULT:      -6.9      1.214      1.454
REMARK  Name = 
REMARK  8 active torsions:
REMARK  status: ('A' for Active; 'I' for Inactive)
REMARK    1  A    between atoms: C_1  and  O_2
REMARK    2  A    between atoms: O_2  and  C_3
REMARK    3  A    between atoms: C_5  and  C_6
REMARK    4  A    between atoms: C_8  and  N_9
REMARK    5  A    between atoms: C_10  and  C_11
REMARK    6  A    between atoms: C_10  and  C_12
REMARK    7  A    between atoms: C_15  and  O_16
REMARK    8  A    between atoms: C_18  and  O_19
REMARK                            x       y       z     vdW  Elec       q    Type
REMARK                         _______ _______ _______ _____ _____    ______ ____
ROOT
ATOM      1  N   UNL     1       4.840   3.922  17.840  0.00  0.00    +0.000 NA
ATOM      2  C   UNL     1       3.773   4.518  18.293  0.00  0.00    +0.000 C 
ATOM      3  C   UNL     1       3.297   5.909  17.901  0.00  0.00    +0.000 C 
ENDROOT
BRANCH   1   9
ATOM      4  C   UNL     1       7.127   5.976  16.148  0.00  0.00    +0.000 A 
ATOM      5  N   UNL     1       7.173   5.470  14.913  0.00  0.00    +0.000 NA
ATOM      6  C   UNL     1       6.377   4.423  14.722  0.00  0.00    +0.000 A 
ATOM      7  C   UNL     1       6.375   3.822  13.346  0.00  0.00    +0.000 C 
ATOM      8  N   UNL     1       5.620   3.859  15.666  0.00  0.00    +0.000 NA
ATOM      9  C   UNL     1       5.672   4.458  16.857  0.00  0.00    +0.000 A 
ATOM     10  N   UNL     1       6.367   5.538  17.138  0.00  0.00    +0.000 NA
BRANCH   4  12
ATOM     11  C   UNL     1       7.735   7.544  17.769  0.00  0.00    +0.000 C 
ATOM     12  O   UNL     1       7.967   7.023  16.474  0.00  0.00    +0.000 OA
ENDBRANCH   4  12
ENDBRANCH   1   9
BRANCH   2  13
ATOM     13  C   UNL     1       2.940   3.819  19.346  0.00  0.00    +0.000 A 
ATOM     14  C   UNL     1       3.471   3.665  20.637  0.00  0.00    +0.000 A 
ATOM     15  C   UNL     1       2.691   3.124  21.671  0.00  0.00    +0.000 A 
ATOM     16  C   UNL     1       1.380   2.735  21.410  0.00  0.00    +0.000 A 
ATOM     17  C   UNL     1       0.848   2.843  20.135  0.00  0.00    +0.000 A 
ATOM     18  C   UNL     1       1.627   3.372  19.105  0.00  0.00    +0.000 A 
BRANCH  16  19
ATOM     19  O   UNL     1       0.569   2.230  22.383  0.00  0.00    +0.000 OA
ATOM     20  H   UNL     1      -0.246   2.757  22.421  0.00  0.00    +0.000 HD
ENDBRANCH  16  19
BRANCH  18  21
ATOM     21  O   UNL     1       1.077   3.424  17.855  0.00  0.00    +0.000 OA
ATOM     22  H   UNL     1       1.784   3.468  17.189  0.00  0.00    +0.000 HD
ENDBRANCH  18  21
ENDBRANCH   2  13
TORSDOF 5
ENDMDL
MODEL 4
REMARK VINA RESULT:      -6.8      1.180      1.404
REMARK  Name = 
REMARK  8 active torsions:
REMARK  status: ('A' for Active; 'I' for Inactive)
REMARK    1  A    between atoms: C_1  and  O_2
REMARK    2  A    between atoms: O_2  and  C_3
REMARK    3  A    between atoms: C_5  and  C_6
REMARK    4  A    between atoms: C_8  and  N_9
REMARK    5  A    between atoms: C_10  and  C_11
REMARK    6  A    between atoms: C_10  and  C_12
REMARK    7  A    between atoms: C_15  and  O_16
REMARK    8  A    between atoms: C_18  and  O_19
REMARK                            x       y       z     vdW  Elec       q    Type
REMARK                         _______ _______ _______ _____ _____    ______ ____
ROOT
ATOM      1  N   UNL     1       4.780   4.097  17.949  0.00  0.00    +0.000 NA
ATOM      2  C   UNL     1       3.618   4.620  18.221  0.00  0.00    +0.000 C 
ATOM      3  C   UNL     1       3.022   5.855  17.562  0.00  0.00    +0.000 C 
ENDROOT
BRANCH   1   9
ATOM      4  C   UNL     1       7.138   5.993  16.173  0.00  0.00    +0.000 A 
ATOM      5  N   UNL     1       7.155   5.442  14.956  0.00  0.00    +0.000 NA
ATOM      6  C   UNL     1       6.314   4.424  14.806  0.00  0.00    +0.000 A 
ATOM      7  C   UNL     1       6.277   3.775  13.453  0.00  0.00    +0.000 C 
ATOM      8  N   UNL     1       5.541   3.925  15.775  0.00  0.00    +0.000 NA
ATOM      9  C   UNL     1       5.627   4.563  16.943  0.00  0.00    +0.000 A 
ATOM     10  N   UNL     1       6.368   5.622  17.182  0.00  0.00    +0.000 NA
BRANCH   4  12
ATOM     11  C   UNL     1       7.664   7.765  17.601  0.00  0.00    +0.000 C 
ATOM     12  O   UNL     1       8.024   7.015  16.456  0.00  0.00    +0.000 OA
ENDBRANCH   4  12
ENDBRANCH   1   9
BRANCH   2  13
ATOM     13  C   UNL     1       2.783   4.007  19.325  0.00  0.00    +0.000 A 
ATOM     14  C   UNL     1       2.384   2.665  19.205  0.00  0.00    +0.000 A 
ATOM     15  C   UNL     1       1.705   2.026  20.254  0.00  0.00    +0.000 A 
ATOM     16  C   UNL     1       1.424   2.730  21.421  0.00  0.00    +0.000 A 
ATOM     17  C   UNL     1       1.775   4.065  21.545  0.00  0.00    +0.000 A 
ATOM     18  C   UNL     1       2.442   4.704  20.500  0.00  0.00    +0.000 A 
BRANCH  16  19
ATOM     19  O   UNL     1       0.793   2.150  22.481  0.00  0.00    +0.000 OA
ATOM     20  H   UNL     1       0.923   2.703  23.269  0.00  0.00    +0.000 HD
ENDBRANCH  16  19
BRANCH  18  21
ATOM     21  O   UNL     1       2.733   6.031  20.647  0.00  0.00    +0.000 OA
ATOM     22  H   UNL     1       3.283   6.159  21.439  0.00  0.00    +0.000 HD
ENDBRANCH  18  21
ENDBRANCH   2  13
TORSDOF 5
ENDMDL
MODEL 5
REMARK VINA RESULT:      -6.8      4.338      5.592
REMARK  Name = 
REMARK  8 active torsions:
REMARK  status: ('A' for Active; 'I' for Inactive)
REMARK    1  A    between atoms: C_1  and  O_2
REMARK    2  A    between atoms: O_2  and  C_3
REMARK    3  A    between atoms: C_5  and  C_6
REMARK    4  A    between atoms: C_8  and  N_9
REMARK    5  A    between atoms: C_10  and  C_11
REMARK    6  A    between atoms: C_10  and  C_12
REMARK    7  A    between atoms: C_15  and  O_16
REMARK    8  A    between atoms: C_18  and  O_19
REMARK                            x       y       z     vdW  Elec       q    Type
REMARK                         _______ _______ _______ _____ _____    ______ ____
ROOT
ATOM      1  N   UNL     1       2.480   6.550  19.593  0.00  0.00    +0.000 NA
ATOM      2  C   UNL     1       2.367   7.634  18.879  0.00  0.00    +0.000 C 
ATOM      3  C   UNL     1       3.125   7.937  17.596  0.00  0.00    +0.000 C 
ENDROOT
BRANCH   1   9
ATOM      4  C   UNL     1       5.255   4.499  18.958  0.00  0.00    +0.000 A 
ATOM      5  N   UNL     1       4.729   3.378  18.459  0.00  0.00    +0.000 NA
ATOM      6  C   UNL     1       3.404   3.396  18.353  0.00  0.00    +0.000 A 
ATOM      7  C   UNL     1       2.757   2.167  17.782  0.00  0.00    +0.000 C 
ATOM      8  N   UNL     1       2.622   4.405  18.747  0.00  0.00    +0.000 NA
ATOM      9  C   UNL     1       3.275   5.461  19.234  0.00  0.00    +0.000 A 
ATOM     10  N   UNL     1       4.581   5.579  19.319  0.00  0.00    +0.000 NA
BRANCH   4  12
ATOM     11  C   UNL     1       7.367   4.729  17.987  0.00  0.00    +0.000 C 
ATOM     12  O   UNL     1       6.618   4.559  19.176  0.00  0.00    +0.000 OA
ENDBRANCH   4  12
ENDBRANCH   1   9
BRANCH   2  13
ATOM     13  C   UNL     1       1.451   8.736  19.368  0.00  0.00    +0.000 A 
ATOM     14  C   UNL     1       0.848   9.583  18.423  0.00  0.00    +0.000 A 
ATOM     15  C   UNL     1      -0.092  10.545  18.824  0.00  0.00    +0.000 A 
ATOM     16  C   UNL     1      -0.426  10.660  20.170  0.00  0.00    +0.000 A 
ATOM     17  C   UNL     1       0.185   9.861  21.123  0.00  0.00    +0.000 A 
ATOM     18  C   UNL     1       1.126   8.910  20.726  0.00  0.00    +0.000 A 
BRANCH  16  19
ATOM     19  O   UNL     1      -1.353  11.557  20.611  0.00  0.00    +0.000 OA
ATOM     20  H   UNL     1      -1.825  11.927  19.846  0.00  0.00    +0.000 HD
ENDBRANCH  16  19
BRANCH  18  21
ATOM     21  O   UNL     1       1.734   8.171  21.702  0.00  0.00    +0.000 OA
ATOM     22  H   UNL     1       2.378   8.722  22.178  0.00  0.00    +0.000 HD
ENDBRANCH  18  21
ENDBRANCH   2  13
TORSDOF 5
ENDMDL
MODEL 6
REMARK VINA RESULT:      -6.8      3.757      4.581
REMARK  Name = 
REMARK  8 active torsions:
REMARK  status: ('A' for Active; 'I' for Inactive)
REMARK    1  A    between atoms: C_1  and  O_2
REMARK    2  A    between atoms: O_2  and  C_3
REMARK    3  A    between atoms: C_5  and  C_6
REMARK    4  A    between atoms: C_8  and  N_9
REMARK    5  A    between atoms: C_10  and  C_11
REMARK    6  A    between atoms: C_10  and  C_12
REMARK    7  A    between atoms: C_15  and  O_16
REMARK    8  A    between atoms: C_18  and  O_19
REMARK                            x       y       z     vdW  Elec       q    Type
REMARK                         _______ _______ _______ _____ _____    ______ ____
ROOT
ATOM      1  N   UNL     1       4.178   7.170  17.646  0.00  0.00    +0.000 NA
ATOM      2  C   UNL     1       3.034   6.880  18.197  0.00  0.00    +0.000 C 
ATOM      3  C   UNL     1       2.473   5.481  18.401  0.00  0.00    +0.000 C 
ENDROOT
BRANCH   1   9
ATOM      4  C   UNL     1       6.932   4.999  17.533  0.00  0.00    +0.000 A 
ATOM      5  N   UNL     1       6.865   4.444  16.320  0.00  0.00    +0.000 NA
ATOM      6  C   UNL     1       5.849   4.873  15.579  0.00  0.00    +0.000 A 
ATOM      7  C   UNL     1       5.732   4.296  14.198  0.00  0.00    +0.000 C 
ATOM      8  N   UNL     1       4.920   5.742  15.988  0.00  0.00    +0.000 NA
ATOM      9  C   UNL     1       5.102   6.213  17.222  0.00  0.00    +0.000 A 
ATOM     10  N   UNL     1       6.106   5.913  18.014  0.00  0.00    +0.000 NA
BRANCH   4  12
ATOM     11  C   UNL     1       8.118   5.461  19.491  0.00  0.00    +0.000 C 
ATOM     12  O   UNL     1       7.910   4.572  18.411  0.00  0.00    +0.000 OA
ENDBRANCH   4  12
ENDBRANCH   1   9
BRANCH   2  13
ATOM     13  C   UNL     1       2.128   8.012  18.635  0.00  0.00    +0.000 A 
ATOM     14  C   UNL     1       1.677   8.929  17.671  0.00  0.00    +0.000 A 
ATOM     15  C   UNL     1       0.750   9.926  18.013  0.00  0.00    +0.000 A 
ATOM     16  C   UNL     1       0.276  10.005  19.319  0.00  0.00    +0.000 A 
ATOM     17  C   UNL     1       0.737   9.134  20.294  0.00  0.00    +0.000 A 
ATOM     18  C   UNL     1       1.665   8.149  19.957  0.00  0.00    +0.000 A 
BRANCH  16  19
ATOM     19  O   UNL     1      -0.646  10.934  19.698  0.00  0.00    +0.000 OA
ATOM     20  H   UNL     1      -0.999  10.693  20.571  0.00  0.00    +0.000 HD
ENDBRANCH  16  19
BRANCH  18  21
ATOM     21  O   UNL     1       2.123   7.337  20.958  0.00  0.00    +0.000 OA
ATOM     22  H   UNL     1       2.027   6.407  20.693  0.00  0.00    +0.000 HD
ENDBRANCH  18  21
ENDBRANCH   2  13
TORSDOF 5
ENDMDL
MODEL 7
REMARK VINA RESULT:      -6.6      3.668      4.504
REMARK  Name = 
REMARK  8 active torsions:
REMARK  status: ('A' for Active; 'I' for Inactive)
REMARK    1  A    between atoms: C_1  and  O_2
REMARK    2  A    between atoms: O_2  and  C_3
REMARK    3  A    between atoms: C_5  and  C_6
REMARK    4  A    between atoms: C_8  and  N_9
REMARK    5  A    between atoms: C_10  and  C_11
REMARK    6  A    between atoms: C_10  and  C_12
REMARK    7  A    between atoms: C_15  and  O_16
REMARK    8  A    between atoms: C_18  and  O_19
REMARK                            x       y       z     vdW  Elec       q    Type
REMARK                         _______ _______ _______ _____ _____    ______ ____
ROOT
ATOM      1  N   UNL     1       4.069   6.953  17.941  0.00  0.00    +0.000 NA
ATOM      2  C   UNL     1       3.116   6.603  18.758  0.00  0.00    +0.000 C 
ATOM      3  C   UNL     1       2.833   5.187  19.239  0.00  0.00    +0.000 C 
ENDROOT
BRANCH   1   9
ATOM      4  C   UNL     1       6.949   4.976  17.613  0.00  0.00    +0.000 A 
ATOM      5  N   UNL     1       6.848   4.448  16.390  0.00  0.00    +0.000 NA
ATOM      6  C   UNL     1       5.765   4.826  15.719  0.00  0.00    +0.000 A 
ATOM      7  C   UNL     1       5.607   4.276  14.331  0.00  0.00    +0.000 C 
ATOM      8  N   UNL     1       4.806   5.620  16.205  0.00  0.00    +0.000 NA
ATOM      9  C   UNL     1       5.027   6.072  17.440  0.00  0.00    +0.000 A 
ATOM     10  N   UNL     1       6.094   5.821  18.165  0.00  0.00    +0.000 NA
BRANCH   4  12
ATOM     11  C   UNL     1       8.165   5.425  19.556  0.00  0.00    +0.000 C 
ATOM     12  O   UNL     1       8.002   4.595  18.421  0.00  0.00    +0.000 OA
ENDBRANCH   4  12
ENDBRANCH   1   9
BRANCH   2  13
ATOM     13  C   UNL     1       2.151   7.661  19.249  0.00  0.00    +0.000 A 
ATOM     14  C   UNL     1       1.629   7.550  20.549  0.00  0.00    +0.000 A 
ATOM     15  C   UNL     1       0.820   8.565  21.082  0.00  0.00    +0.000 A 
ATOM     16  C   UNL     1       0.532   9.689  20.314  0.00  0.00    +0.000 A 
ATOM     17  C   UNL     1       1.005   9.802  19.016  0.00  0.00    +0.000 A 
ATOM     18  C   UNL     1       1.802   8.789  18.482  0.00  0.00    +0.000 A 
BRANCH  16  19
ATOM     19  O   UNL     1      -0.224  10.718  20.793  0.00  0.00    +0.000 OA
ATOM     20  H   UNL     1       0.108  10.973  21.670  0.00  0.00    +0.000 HD
ENDBRANCH  16  19
BRANCH  18  21
ATOM     21  O   UNL     1       2.214   8.920  17.185  0.00  0.00    +0.000 OA
ATOM     22  H   UNL     1       3.150   9.181  17.164  0.00  0.00    +0.000 HD
ENDBRANCH  18  21
ENDBRANCH   2  13
TORSDOF 5
ENDMDL
MODEL 8
REMARK VINA RESULT:      -6.6      1.518      2.743
REMARK  Name = 
REMARK  8 active torsions:
REMARK  status: ('A' for Active; 'I' for Inactive)
REMARK    1  A    between atoms: C_1  and  O_2
REMARK    2  A    between atoms: O_2  and  C_3
REMARK    3  A    between atoms: C_5  and  C_6
REMARK    4  A    between atoms: C_8  and  N_9
REMARK    5  A    between atoms: C_10  and  C_11
REMARK    6  A    between atoms: C_10  and  C_12
REMARK    7  A    between atoms: C_15  and  O_16
REMARK    8  A    between atoms: C_18  and  O_19
REMARK                            x       y       z     vdW  Elec       q    Type
REMARK                         _______ _______ _______ _____ _____    ______ ____
ROOT
ATOM      1  N   UNL     1       4.990   5.013  18.755  0.00  0.00    +0.000 NA
ATOM      2  C   UNL     1       3.943   4.332  18.386  0.00  0.00    +0.000 C 
ATOM      3  C   UNL     1       3.523   4.053  16.950  0.00  0.00    +0.000 C 
ENDROOT
BRANCH   1   9
ATOM      4  C   UNL     1       7.193   5.371  16.048  0.00  0.00    +0.000 A 
ATOM      5  N   UNL     1       7.792   6.545  16.264  0.00  0.00    +0.000 NA
ATOM      6  C   UNL     1       7.401   7.162  17.374  0.00  0.00    +0.000 A 
ATOM      7  C   UNL     1       8.052   8.480  17.677  0.00  0.00    +0.000 C 
ATOM      8  N   UNL     1       6.456   6.711  18.203  0.00  0.00    +0.000 NA
ATOM      9  C   UNL     1       5.934   5.531  17.868  0.00  0.00    +0.000 A 
ATOM     10  N   UNL     1       6.295   4.802  16.835  0.00  0.00    +0.000 NA
BRANCH   4  12
ATOM     11  C   UNL     1       6.357   3.996  14.355  0.00  0.00    +0.000 C 
ATOM     12  O   UNL     1       7.477   4.679  14.886  0.00  0.00    +0.000 OA
ENDBRANCH   4  12
ENDBRANCH   1   9
BRANCH   2  13
ATOM     13  C   UNL     1       3.005   3.803  19.450  0.00  0.00    +0.000 A 
ATOM     14  C   UNL     1       2.607   2.457  19.393  0.00  0.00    +0.000 A 
ATOM     15  C   UNL     1       1.829   1.898  20.420  0.00  0.00    +0.000 A 
ATOM     16  C   UNL     1       1.449   2.687  21.501  0.00  0.00    +0.000 A 
ATOM     17  C   UNL     1       1.799   4.027  21.559  0.00  0.00    +0.000 A 
ATOM     18  C   UNL     1       2.565   4.585  20.535  0.00  0.00    +0.000 A 
BRANCH  16  19
ATOM     19  O   UNL     1       0.720   2.188  22.539  0.00  0.00    +0.000 OA
ATOM     20  H   UNL     1       0.652   2.864  23.233  0.00  0.00    +0.000 HD
ENDBRANCH  16  19
BRANCH  18  21
ATOM     21  O   UNL     1       2.853   5.919  20.611  0.00  0.00    +0.000 OA
ATOM     22  H   UNL     1       3.065   6.259  19.726  0.00  0.00    +0.000 HD
ENDBRANCH  18  21
ENDBRANCH   2  13
TORSDOF 5
ENDMDL
MODEL 9
REMARK VINA RESULT:      -6.6      2.604      3.952
REMARK  Name = 
REMARK  8 active torsions:
REMARK  status: ('A' for Active; 'I' for Inactive)
REMARK    1  A    between atoms: C_1  and  O_2
REMARK    2  A    between atoms: O_2  and  C_3
REMARK    3  A    between atoms: C_5  and  C_6
REMARK    4  A    between atoms: C_8  and  N_9
REMARK    5  A    between atoms: C_10  and  C_11
REMARK    6  A    between atoms: C_10  and  C_12
REMARK    7  A    between atoms: C_15  and  O_16
REMARK    8  A    between atoms: C_18  and  O_19
REMARK                            x       y       z     vdW  Elec       q    Type
REMARK                         _______ _______ _______ _____ _____    ______ ____
ROOT
ATOM      1  N   UNL     1       5.429   4.408  15.777  0.00  0.00    +0.000 NA
ATOM      2  C   UNL     1       4.932   5.489  16.306  0.00  0.00    +0.000 C 
ATOM      3  C   UNL     1       4.953   6.876  15.681  0.00  0.00    +0.000 C 
ENDROOT
BRANCH   1   9
ATOM      4  C   UNL     1       6.119   3.506  12.457  0.00  0.00    +0.000 A 
ATOM      5  N   UNL     1       7.175   4.253  12.126  0.00  0.00    +0.000 NA
ATOM      6  C   UNL     1       7.614   5.041  13.101  0.00  0.00    +0.000 A 
ATOM      7  C   UNL     1       8.812   5.892  12.791  0.00  0.00    +0.000 C 
ATOM      8  N   UNL     1       7.048   5.150  14.306  0.00  0.00    +0.000 NA
ATOM      9  C   UNL     1       5.996   4.355  14.503  0.00  0.00    +0.000 A 
ATOM     10  N   UNL     1       5.522   3.488  13.637  0.00  0.00    +0.000 NA
BRANCH   4  12
ATOM     11  C   UNL     1       4.192   3.037  11.222  0.00  0.00    +0.000 C 
ATOM     12  O   UNL     1       5.540   2.702  11.494  0.00  0.00    +0.000 OA
ENDBRANCH   4  12
ENDBRANCH   1   9
BRANCH   2  13
ATOM     13  C   UNL     1       4.322   5.410  17.690  0.00  0.00    +0.000 A 
ATOM     14  C   UNL     1       3.228   6.235  17.995  0.00  0.00    +0.000 A 
ATOM     15  C   UNL     1       2.564   6.115  19.226  0.00  0.00    +0.000 A 
ATOM     16  C   UNL     1       2.997   5.170  20.151  0.00  0.00    +0.000 A 
ATOM     17  C   UNL     1       4.098   4.371  19.885  0.00  0.00    +0.000 A 
ATOM     18  C   UNL     1       4.764   4.497  18.666  0.00  0.00    +0.000 A 
BRANCH  16  19
ATOM     19  O   UNL     1       2.371   4.990  21.349  0.00  0.00    +0.000 OA
ATOM     20  H   UNL     1       1.489   5.396  21.309  0.00  0.00    +0.000 HD
ENDBRANCH  16  19
BRANCH  18  21
ATOM     21  O   UNL     1       5.870   3.719  18.461  0.00  0.00    +0.000 OA
ATOM     22  H   UNL     1       6.404   3.689  19.273  0.00  0.00    +0.000 HD
ENDBRANCH  18  21
ENDBRANCH   2  13
TORSDOF 5
ENDMDL
