MODEL 1
REMARK VINA RESULT:      -7.2      0.000      0.000
REMARK  Name = 
REMARK  10 active torsions:
REMARK  status: ('A' for Active; 'I' for Inactive)
REMARK    1  A    between atoms: C_1  and  C_2
REMARK    2  A    between atoms: C_2  and  C_3
REMARK    3  A    between atoms: C_3  and  O_4
REMARK    4  A    between atoms: O_4  and  C_5
REMARK    5  A    between atoms: N_7  and  C_8
REMARK    6  A    between atoms: C_14  and  C_15
REMARK    7  A    between atoms: N_22  and  C_23
REMARK    8  A    between atoms: C_25  and  C_26
REMARK    9  A    between atoms: C_27  and  O_28
REMARK   10  A    between atoms: C_29  and  O_30
REMARK                            x       y       z     vdW  Elec       q    Type
REMARK                         _______ _______ _______ _____ _____    ______ ____
ROOT
ATOM      1  C   UNL     1       2.123   6.621  20.474  0.00  0.00    +0.000 A 
ATOM      2  N   UNL     1       1.343   6.958  21.523  0.00  0.00    +0.000 NA
ATOM      3  C   UNL     1       0.656   8.108  21.464  0.00  0.00    +0.000 A 
ATOM      4  N   UNL     1       0.632   8.996  20.466  0.00  0.00    +0.000 NA
ATOM      5  C   UNL     1       1.459   8.653  19.461  0.00  0.00    +0.000 A 
ATOM      6  C   UNL     1       2.234   7.499  19.375  0.00  0.00    +0.000 A 
ATOM      7  C   UNL     1       2.972   7.597  18.141  0.00  0.00    +0.000 A 
ATOM      8  C   UNL     1       2.595   8.789  17.541  0.00  0.00    +0.000 A 
ATOM      9  N   UNL     1       1.671   9.412  18.337  0.00  0.00    +0.000 N 
ENDROOT
BRANCH   7  10
ATOM     10  C   UNL     1       3.983   6.730  17.535  0.00  0.00    +0.000 A 
ATOM     11  C   UNL     1       3.675   5.404  17.191  0.00  0.00    +0.000 A 
ATOM     12  C   UNL     1       4.646   4.563  16.639  0.00  0.00    +0.000 A 
ATOM     13  C   UNL     1       5.945   5.026  16.452  0.00  0.00    +0.000 A 
ATOM     14  C   UNL     1       6.259   6.345  16.763  0.00  0.00    +0.000 A 
ATOM     15  C   UNL     1       5.272   7.199  17.261  0.00  0.00    +0.000 A 
ENDBRANCH   7  10
BRANCH   9  16
ATOM     16  C   UNL     1       1.019  10.687  18.075  0.00  0.00    +0.000 C 
ATOM     17  O   UNL     1       1.577  11.712  18.941  0.00  0.00    +0.000 OA
ATOM     18  C   UNL     1       0.513  12.606  19.337  0.00  0.00    +0.000 C 
ATOM     19  C   UNL     1       0.338  12.542  20.846  0.00  0.00    +0.000 C 
ATOM     20  C   UNL     1      -0.734  12.169  18.569  0.00  0.00    +0.000 C 
ATOM     21  C   UNL     1      -0.487  10.686  18.338  0.00  0.00    +0.000 C 
BRANCH  20  22
ATOM     22  O   UNL     1      -0.817  12.820  17.285  0.00  0.00    +0.000 OA
ATOM     23  H   UNL     1      -1.752  12.870  17.012  0.00  0.00    +0.000 HD
ENDBRANCH  20  22
BRANCH  21  24
ATOM     24  O   UNL     1      -1.278  10.200  17.259  0.00  0.00    +0.000 OA
ATOM     25  H   UNL     1      -1.101   9.239  17.199  0.00  0.00    +0.000 HD
ENDBRANCH  21  24
ENDBRANCH   9  16
BRANCH   1  28
ATOM     26  C   UNL     1       1.986   4.227  20.474  0.00  0.00    +0.000 C 
ATOM     27  O   UNL     1       0.764   4.165  20.409  0.00  0.00    +0.000 OA
ATOM     28  N   UNL     1       2.744   5.370  20.509  0.00  0.00    +0.000 N 
ATOM     29  H   UNL     1       3.593   5.268  21.043  0.00  0.00    +0.000 HD
BRANCH  26  30
ATOM     30  O   UNL     1       2.789   3.158  20.725  0.00  0.00    +0.000 OA
BRANCH  30  31
ATOM     31  C   UNL     1       3.848   2.922  19.777  0.00  0.00    +0.000 C 
BRANCH  31  33
ATOM     32  C   UNL     1       2.447   2.007  17.900  0.00  0.00    +0.000 C 
ATOM     33  C   UNL     1       3.593   1.728  18.863  0.00  0.00    +0.000 C 
ENDBRANCH  31  33
ENDBRANCH  30  31
ENDBRANCH  26  30
ENDBRANCH   1  28
TORSDOF 8
ENDMDL
MODEL 2
REMARK VINA RESULT:      -7.2      0.465      1.008
REMARK  Name = 
REMARK  10 active torsions:
REMARK  status: ('A' for Active; 'I' for Inactive)
REMARK    1  A    between atoms: C_1  and  C_2
REMARK    2  A    between atoms: C_2  and  C_3
REMARK    3  A    between atoms: C_3  and  O_4
REMARK    4  A    between atoms: O_4  and  C_5
REMARK    5  A    between atoms: N_7  and  C_8
REMARK    6  A    between atoms: C_14  and  C_15
REMARK    7  A    between atoms: N_22  and  C_23
REMARK    8  A    between atoms: C_25  and  C_26
REMARK    9  A    between atoms: C_27  and  O_28
REMARK   10  A    between atoms: C_29  and  O_30
REMARK                            x       y       z     vdW  Elec       q    Type
REMARK                         _______ _______ _______ _____ _____    ______ ____
ROOT
ATOM      1  C   UNL     1       1.934   6.900  20.752  0.00  0.00    +0.000 A 
ATOM      2  N   UNL     1       1.195   7.339  21.793  0.00  0.00    +0.000 NA
ATOM      3  C   UNL     1       0.508   8.481  21.651  0.00  0.00    +0.000 A 
ATOM      4  N   UNL     1       0.446   9.270  20.574  0.00  0.00    +0.000 NA
ATOM      5  C   UNL     1       1.234   8.829  19.576  0.00  0.00    +0.000 A 
ATOM      6  C   UNL     1       2.003   7.668  19.571  0.00  0.00    +0.000 A 
ATOM      7  C   UNL     1       2.694   7.645  18.305  0.00  0.00    +0.000 A 
ATOM      8  C   UNL     1       2.296   8.776  17.610  0.00  0.00    +0.000 A 
ATOM      9  N   UNL     1       1.404   9.476  18.377  0.00  0.00    +0.000 N 
ENDROOT
BRANCH   7  10
ATOM     10  C   UNL     1       3.679   6.719  17.747  0.00  0.00    +0.000 A 
ATOM     11  C   UNL     1       4.992   7.142  17.485  0.00  0.00    +0.000 A 
ATOM     12  C   UNL     1       5.929   6.268  16.925  0.00  0.00    +0.000 A 
ATOM     13  C   UNL     1       5.558   4.970  16.590  0.00  0.00    +0.000 A 
ATOM     14  C   UNL     1       4.269   4.527  16.868  0.00  0.00    +0.000 A 
ATOM     15  C   UNL     1       3.352   5.385  17.480  0.00  0.00    +0.000 A 
ENDBRANCH   7  10
BRANCH   9  16
ATOM     16  C   UNL     1       0.743  10.723  18.020  0.00  0.00    +0.000 C 
ATOM     17  O   UNL     1       1.242  11.802  18.857  0.00  0.00    +0.000 OA
ATOM     18  C   UNL     1       0.146  12.694  19.156  0.00  0.00    +0.000 C 
ATOM     19  C   UNL     1      -0.099  12.703  20.656  0.00  0.00    +0.000 C 
ATOM     20  C   UNL     1      -1.055  12.195  18.355  0.00  0.00    +0.000 C 
ATOM     21  C   UNL     1      -0.773  10.708  18.212  0.00  0.00    +0.000 C 
BRANCH  20  22
ATOM     22  O   UNL     1      -1.088  12.779  17.037  0.00  0.00    +0.000 OA
ATOM     23  H   UNL     1      -0.501  12.269  16.448  0.00  0.00    +0.000 HD
ENDBRANCH  20  22
BRANCH  21  24
ATOM     24  O   UNL     1      -1.504  10.152  17.124  0.00  0.00    +0.000 OA
ATOM     25  H   UNL     1      -1.017   9.350  16.846  0.00  0.00    +0.000 HD
ENDBRANCH  21  24
ENDBRANCH   9  16
BRANCH   1  28
ATOM     26  C   UNL     1       1.825   4.504  20.717  0.00  0.00    +0.000 C 
ATOM     27  O   UNL     1       0.631   4.430  20.452  0.00  0.00    +0.000 OA
ATOM     28  N   UNL     1       2.554   5.654  20.882  0.00  0.00    +0.000 N 
ATOM     29  H   UNL     1       3.304   5.557  21.549  0.00  0.00    +0.000 HD
BRANCH  26  30
ATOM     30  O   UNL     1       2.587   3.442  21.092  0.00  0.00    +0.000 OA
BRANCH  30  31
ATOM     31  C   UNL     1       3.445   2.886  20.078  0.00  0.00    +0.000 C 
BRANCH  31  33
ATOM     32  C   UNL     1       3.690   1.264  18.171  0.00  0.00    +0.000 C 
ATOM     33  C   UNL     1       2.711   1.997  19.079  0.00  0.00    +0.000 C 
ENDBRANCH  31  33
ENDBRANCH  30  31
ENDBRANCH  26  30
ENDBRANCH   1  28
TORSDOF 8
ENDMDL
MODEL 3
REMARK VINA RESULT:      -7.1      2.708      4.529
REMARK  Name = 
REMARK  10 active torsions:
REMARK  status: ('A' for Active; 'I' for Inactive)
REMARK    1  A    between atoms: C_1  and  C_2
REMARK    2  A    between atoms: C_2  and  C_3
REMARK    3  A    between atoms: C_3  and  O_4
REMARK    4  A    between atoms: O_4  and  C_5
REMARK    5  A    between atoms: N_7  and  C_8
REMARK    6  A    between atoms: C_14  and  C_15
REMARK    7  A    between atoms: N_22  and  C_23
REMARK    8  A    between atoms: C_25  and  C_26
REMARK    9  A    between atoms: C_27  and  O_28
REMARK   10  A    between atoms: C_29  and  O_30
REMARK                            x       y       z     vdW  Elec       q    Type
REMARK                         _______ _______ _______ _____ _____    ______ ____
ROOT
ATOM      1  C   UNL     1       3.092   7.509  17.464  0.00  0.00    +0.000 A 
ATOM      2  N   UNL     1       2.908   8.799  17.109  0.00  0.00    +0.000 NA
ATOM      3  C   UNL     1       2.265   9.609  17.962  0.00  0.00    +0.000 A 
ATOM      4  N   UNL     1       1.769   9.303  19.165  0.00  0.00    +0.000 NA
ATOM      5  C   UNL     1       1.925   8.000  19.462  0.00  0.00    +0.000 A 
ATOM      6  C   UNL     1       2.566   7.038  18.686  0.00  0.00    +0.000 A 
ATOM      7  C   UNL     1       2.445   5.793  19.402  0.00  0.00    +0.000 A 
ATOM      8  C   UNL     1       1.756   6.068  20.573  0.00  0.00    +0.000 A 
ATOM      9  N   UNL     1       1.460   7.404  20.608  0.00  0.00    +0.000 N 
ENDROOT
BRANCH   7  10
ATOM     10  C   UNL     1       2.863   4.430  19.069  0.00  0.00    +0.000 A 
ATOM     11  C   UNL     1       2.158   3.678  18.117  0.00  0.00    +0.000 A 
ATOM     12  C   UNL     1       2.536   2.365  17.817  0.00  0.00    +0.000 A 
ATOM     13  C   UNL     1       3.604   1.777  18.488  0.00  0.00    +0.000 A 
ATOM     14  C   UNL     1       4.329   2.518  19.415  0.00  0.00    +0.000 A 
ATOM     15  C   UNL     1       3.983   3.848  19.670  0.00  0.00    +0.000 A 
ENDBRANCH   7  10
BRANCH   9  16
ATOM     16  C   UNL     1       0.744   8.107  21.663  0.00  0.00    +0.000 C 
ATOM     17  O   UNL     1      -0.541   8.567  21.164  0.00  0.00    +0.000 OA
ATOM     18  C   UNL     1      -0.826   9.856  21.753  0.00  0.00    +0.000 C 
ATOM     19  C   UNL     1      -0.915  10.901  20.653  0.00  0.00    +0.000 C 
ATOM     20  C   UNL     1       0.291  10.134  22.757  0.00  0.00    +0.000 C 
ATOM     21  C   UNL     1       1.463   9.350  22.188  0.00  0.00    +0.000 C 
BRANCH  20  22
ATOM     22  O   UNL     1      -0.024   9.597  24.058  0.00  0.00    +0.000 OA
ATOM     23  H   UNL     1      -0.306   8.668  23.959  0.00  0.00    +0.000 HD
ENDBRANCH  20  22
BRANCH  21  24
ATOM     24  O   UNL     1       2.440   9.093  23.190  0.00  0.00    +0.000 OA
ATOM     25  H   UNL     1       2.731   9.967  23.521  0.00  0.00    +0.000 HD
ENDBRANCH  21  24
ENDBRANCH   9  16
BRANCH   1  28
ATOM     26  C   UNL     1       5.226   6.813  16.619  0.00  0.00    +0.000 C 
ATOM     27  O   UNL     1       5.896   7.559  17.324  0.00  0.00    +0.000 OA
ATOM     28  N   UNL     1       3.858   6.710  16.611  0.00  0.00    +0.000 N 
ATOM     29  H   UNL     1       3.483   6.473  15.706  0.00  0.00    +0.000 HD
BRANCH  26  30
ATOM     30  O   UNL     1       5.728   6.099  15.577  0.00  0.00    +0.000 OA
BRANCH  30  31
ATOM     31  C   UNL     1       6.925   5.343  15.840  0.00  0.00    +0.000 C 
BRANCH  31  33
ATOM     32  C   UNL     1       7.722   4.629  18.116  0.00  0.00    +0.000 C 
ATOM     33  C   UNL     1       6.769   4.327  16.968  0.00  0.00    +0.000 C 
ENDBRANCH  31  33
ENDBRANCH  30  31
ENDBRANCH  26  30
ENDBRANCH   1  28
TORSDOF 8
ENDMDL
MODEL 4
REMARK VINA RESULT:      -7.1      2.714      4.519
REMARK  Name = 
REMARK  10 active torsions:
REMARK  status: ('A' for Active; 'I' for Inactive)
REMARK    1  A    between atoms: C_1  and  C_2
REMARK    2  A    between atoms: C_2  and  C_3
REMARK    3  A    between atoms: C_3  and  O_4
REMARK    4  A    between atoms: O_4  and  C_5
REMARK    5  A    between atoms: N_7  and  C_8
REMARK    6  A    between atoms: C_14  and  C_15
REMARK    7  A    between atoms: N_22  and  C_23
REMARK    8  A    between atoms: C_25  and  C_26
REMARK    9  A    between atoms: C_27  and  O_28
REMARK   10  A    between atoms: C_29  and  O_30
REMARK                            x       y       z     vdW  Elec       q    Type
REMARK                         _______ _______ _______ _____ _____    ______ ____
ROOT
ATOM      1  C   UNL     1       3.217   7.456  17.512  0.00  0.00    +0.000 A 
ATOM      2  N   UNL     1       3.082   8.747  17.137  0.00  0.00    +0.000 NA
ATOM      3  C   UNL     1       2.417   9.580  17.949  0.00  0.00    +0.000 A 
ATOM      4  N   UNL     1       1.853   9.298  19.128  0.00  0.00    +0.000 NA
ATOM      5  C   UNL     1       1.964   7.994  19.444  0.00  0.00    +0.000 A 
ATOM      6  C   UNL     1       2.620   7.010  18.709  0.00  0.00    +0.000 A 
ATOM      7  C   UNL     1       2.434   5.774  19.429  0.00  0.00    +0.000 A 
ATOM      8  C   UNL     1       1.693   6.077  20.561  0.00  0.00    +0.000 A 
ATOM      9  N   UNL     1       1.427   7.420  20.570  0.00  0.00    +0.000 N 
ENDROOT
BRANCH   7  10
ATOM     10  C   UNL     1       2.835   4.400  19.130  0.00  0.00    +0.000 A 
ATOM     11  C   UNL     1       4.001   3.856  19.690  0.00  0.00    +0.000 A 
ATOM     12  C   UNL     1       4.403   2.552  19.385  0.00  0.00    +0.000 A 
ATOM     13  C   UNL     1       3.663   1.786  18.490  0.00  0.00    +0.000 A 
ATOM     14  C   UNL     1       2.490   2.301  17.946  0.00  0.00    +0.000 A 
ATOM     15  C   UNL     1       2.061   3.583  18.299  0.00  0.00    +0.000 A 
ENDBRANCH   7  10
BRANCH   9  16
ATOM     16  C   UNL     1       0.677   8.150  21.582  0.00  0.00    +0.000 C 
ATOM     17  O   UNL     1      -0.573   8.631  21.016  0.00  0.00    +0.000 OA
ATOM     18  C   UNL     1      -0.859   9.931  21.577  0.00  0.00    +0.000 C 
ATOM     19  C   UNL     1      -0.873  10.966  20.463  0.00  0.00    +0.000 C 
ATOM     20  C   UNL     1       0.214  10.199  22.631  0.00  0.00    +0.000 C 
ATOM     21  C   UNL     1       1.395   9.384  22.127  0.00  0.00    +0.000 C 
BRANCH  20  22
ATOM     22  O   UNL     1      -0.175   9.683  23.920  0.00  0.00    +0.000 OA
ATOM     23  H   UNL     1      -0.863   9.003  23.798  0.00  0.00    +0.000 HD
ENDBRANCH  20  22
BRANCH  21  24
ATOM     24  O   UNL     1       2.317   9.119  23.179  0.00  0.00    +0.000 OA
ATOM     25  H   UNL     1       3.190   9.431  22.865  0.00  0.00    +0.000 HD
ENDBRANCH  21  24
ENDBRANCH   9  16
BRANCH   1  28
ATOM     26  C   UNL     1       5.374   6.720  16.764  0.00  0.00    +0.000 C 
ATOM     27  O   UNL     1       6.025   7.472  17.478  0.00  0.00    +0.000 OA
ATOM     28  N   UNL     1       4.006   6.631  16.705  0.00  0.00    +0.000 N 
ATOM     29  H   UNL     1       3.663   6.380  15.791  0.00  0.00    +0.000 HD
BRANCH  26  30
ATOM     30  O   UNL     1       5.906   5.978  15.756  0.00  0.00    +0.000 OA
BRANCH  30  31
ATOM     31  C   UNL     1       6.425   4.686  16.123  0.00  0.00    +0.000 C 
BRANCH  31  33
ATOM     32  C   UNL     1       6.047   3.865  13.776  0.00  0.00    +0.000 C 
ATOM     33  C   UNL     1       5.895   3.547  15.257  0.00  0.00    +0.000 C 
ENDBRANCH  31  33
ENDBRANCH  30  31
ENDBRANCH  26  30
ENDBRANCH   1  28
TORSDOF 8
ENDMDL
MODEL 5
REMARK VINA RESULT:      -6.8      2.510      7.112
REMARK  Name = 
REMARK  10 active torsions:
REMARK  status: ('A' for Active; 'I' for Inactive)
REMARK    1  A    between atoms: C_1  and  C_2
REMARK    2  A    between atoms: C_2  and  C_3
REMARK    3  A    between atoms: C_3  and  O_4
REMARK    4  A    between atoms: O_4  and  C_5
REMARK    5  A    between atoms: N_7  and  C_8
REMARK    6  A    between atoms: C_14  and  C_15
REMARK    7  A    between atoms: N_22  and  C_23
REMARK    8  A    between atoms: C_25  and  C_26
REMARK    9  A    between atoms: C_27  and  O_28
REMARK   10  A    between atoms: C_29  and  O_30
REMARK                            x       y       z     vdW  Elec       q    Type
REMARK                         _______ _______ _______ _____ _____    ______ ____
ROOT
ATOM      1  C   UNL     1       1.197   7.644  20.802  0.00  0.00    +0.000 A 
ATOM      2  N   UNL     1       1.403   6.426  21.346  0.00  0.00    +0.000 NA
ATOM      3  C   UNL     1       2.233   5.579  20.720  0.00  0.00    +0.000 A 
ATOM      4  N   UNL     1       2.917   5.789  19.591  0.00  0.00    +0.000 NA
ATOM      5  C   UNL     1       2.649   6.993  19.051  0.00  0.00    +0.000 A 
ATOM      6  C   UNL     1       1.815   7.976  19.577  0.00  0.00    +0.000 A 
ATOM      7  C   UNL     1       1.819   9.062  18.629  0.00  0.00    +0.000 A 
ATOM      8  C   UNL     1       2.662   8.687  17.594  0.00  0.00    +0.000 A 
ATOM      9  N   UNL     1       3.170   7.445  17.864  0.00  0.00    +0.000 N 
ENDROOT
BRANCH   7  10
ATOM     10  C   UNL     1       1.097  10.334  18.597  0.00  0.00    +0.000 A 
ATOM     11  C   UNL     1      -0.301  10.361  18.477  0.00  0.00    +0.000 A 
ATOM     12  C   UNL     1      -0.993  11.575  18.417  0.00  0.00    +0.000 A 
ATOM     13  C   UNL     1      -0.293  12.777  18.444  0.00  0.00    +0.000 A 
ATOM     14  C   UNL     1       1.090  12.768  18.589  0.00  0.00    +0.000 A 
ATOM     15  C   UNL     1       1.772  11.554  18.706  0.00  0.00    +0.000 A 
ENDBRANCH   7  10
BRANCH   9  16
ATOM     16  C   UNL     1       4.095   6.686  17.035  0.00  0.00    +0.000 C 
ATOM     17  O   UNL     1       3.691   5.290  16.998  0.00  0.00    +0.000 OA
ATOM     18  C   UNL     1       4.880   4.470  16.989  0.00  0.00    +0.000 C 
ATOM     19  C   UNL     1       4.905   3.609  18.242  0.00  0.00    +0.000 C 
ATOM     20  C   UNL     1       6.070   5.423  16.892  0.00  0.00    +0.000 C 
ATOM     21  C   UNL     1       5.539   6.694  17.538  0.00  0.00    +0.000 C 
BRANCH  20  22
ATOM     22  O   UNL     1       6.399   5.717  15.519  0.00  0.00    +0.000 OA
ATOM     23  H   UNL     1       7.244   6.202  15.490  0.00  0.00    +0.000 HD
ENDBRANCH  20  22
BRANCH  21  24
ATOM     24  O   UNL     1       6.302   7.826  17.136  0.00  0.00    +0.000 OA
ATOM     25  H   UNL     1       7.241   7.553  17.175  0.00  0.00    +0.000 HD
ENDBRANCH  21  24
ENDBRANCH   9  16
BRANCH   1  28
ATOM     26  C   UNL     1       1.002   9.375  22.450  0.00  0.00    +0.000 C 
ATOM     27  O   UNL     1       2.193   9.423  22.734  0.00  0.00    +0.000 OA
ATOM     28  N   UNL     1       0.416   8.549  21.525  0.00  0.00    +0.000 N 
ATOM     29  H   UNL     1      -0.526   8.284  21.769  0.00  0.00    +0.000 HD
BRANCH  26  30
ATOM     30  O   UNL     1       0.026  10.005  23.159  0.00  0.00    +0.000 OA
BRANCH  30  31
ATOM     31  C   UNL     1      -0.908  10.791  22.395  0.00  0.00    +0.000 C 
BRANCH  31  33
ATOM     32  C   UNL     1      -1.573  13.168  21.918  0.00  0.00    +0.000 C 
ATOM     33  C   UNL     1      -0.411  12.200  22.087  0.00  0.00    +0.000 C 
ENDBRANCH  31  33
ENDBRANCH  30  31
ENDBRANCH  26  30
ENDBRANCH   1  28
TORSDOF 8
ENDMDL
MODEL 6
REMARK VINA RESULT:      -6.6      4.681      7.770
REMARK  Name = 
REMARK  10 active torsions:
REMARK  status: ('A' for Active; 'I' for Inactive)
REMARK    1  A    between atoms: C_1  and  C_2
REMARK    2  A    between atoms: C_2  and  C_3
REMARK    3  A    between atoms: C_3  and  O_4
REMARK    4  A    between atoms: O_4  and  C_5
REMARK    5  A    between atoms: N_7  and  C_8
REMARK    6  A    between atoms: C_14  and  C_15
REMARK    7  A    between atoms: N_22  and  C_23
REMARK    8  A    between atoms: C_25  and  C_26
REMARK    9  A    between atoms: C_27  and  O_28
REMARK   10  A    between atoms: C_29  and  O_30
REMARK                            x       y       z     vdW  Elec       q    Type
REMARK                         _______ _______ _______ _____ _____    ______ ____
ROOT
ATOM      1  C   UNL     1      -0.514  12.488  20.286  0.00  0.00    +0.000 A 
ATOM      2  N   UNL     1       0.223  13.103  21.235  0.00  0.00    +0.000 NA
ATOM      3  C   UNL     1      -0.410  13.631  22.293  0.00  0.00    +0.000 A 
ATOM      4  N   UNL     1      -1.722  13.622  22.549  0.00  0.00    +0.000 NA
ATOM      5  C   UNL     1      -2.429  13.046  21.558  0.00  0.00    +0.000 A 
ATOM      6  C   UNL     1      -1.920  12.457  20.404  0.00  0.00    +0.000 A 
ATOM      7  C   UNL     1      -3.059  12.016  19.638  0.00  0.00    +0.000 A 
ATOM      8  C   UNL     1      -4.188  12.344  20.372  0.00  0.00    +0.000 A 
ATOM      9  N   UNL     1      -3.798  12.952  21.535  0.00  0.00    +0.000 N 
ENDROOT
BRANCH   7  10
ATOM     10  C   UNL     1      -3.166  11.386  18.321  0.00  0.00    +0.000 A 
ATOM     11  C   UNL     1      -2.282  10.365  17.942  0.00  0.00    +0.000 A 
ATOM     12  C   UNL     1      -2.362   9.779  16.675  0.00  0.00    +0.000 A 
ATOM     13  C   UNL     1      -3.308  10.230  15.759  0.00  0.00    +0.000 A 
ATOM     14  C   UNL     1      -4.209  11.223  16.128  0.00  0.00    +0.000 A 
ATOM     15  C   UNL     1      -4.162  11.765  17.415  0.00  0.00    +0.000 A 
ENDBRANCH   7  10
BRANCH   9  16
ATOM     16  C   UNL     1      -4.670  13.452  22.588  0.00  0.00    +0.000 C 
ATOM     17  O   UNL     1      -5.435  12.354  23.157  0.00  0.00    +0.000 OA
ATOM     18  C   UNL     1      -6.760  12.835  23.474  0.00  0.00    +0.000 C 
ATOM     19  C   UNL     1      -7.782  12.074  22.645  0.00  0.00    +0.000 C 
ATOM     20  C   UNL     1      -6.759  14.337  23.195  0.00  0.00    +0.000 C 
ATOM     21  C   UNL     1      -5.698  14.480  22.115  0.00  0.00    +0.000 C 
BRANCH  20  22
ATOM     22  O   UNL     1      -6.334  15.087  24.350  0.00  0.00    +0.000 OA
ATOM     23  H   UNL     1      -6.799  15.944  24.364  0.00  0.00    +0.000 HD
ENDBRANCH  20  22
BRANCH  21  24
ATOM     24  O   UNL     1      -5.215  15.817  22.050  0.00  0.00    +0.000 OA
ATOM     25  H   UNL     1      -4.462  15.808  21.423  0.00  0.00    +0.000 HD
ENDBRANCH  21  24
ENDBRANCH   9  16
BRANCH   1  28
ATOM     26  C   UNL     1       0.797  10.651  19.475  0.00  0.00    +0.000 C 
ATOM     27  O   UNL     1       0.825  10.032  20.532  0.00  0.00    +0.000 OA
ATOM     28  N   UNL     1       0.173  11.851  19.249  0.00  0.00    +0.000 N 
ATOM     29  H   UNL     1       0.642  12.420  18.562  0.00  0.00    +0.000 HD
BRANCH  26  30
ATOM     30  O   UNL     1       1.558  10.340  18.391  0.00  0.00    +0.000 OA
BRANCH  30  31
ATOM     31  C   UNL     1       1.456   8.987  17.910  0.00  0.00    +0.000 C 
BRANCH  31  33
ATOM     32  C   UNL     1       2.618   6.778  18.216  0.00  0.00    +0.000 C 
ATOM     33  C   UNL     1       2.792   8.250  17.871  0.00  0.00    +0.000 C 
ENDBRANCH  31  33
ENDBRANCH  30  31
ENDBRANCH  26  30
ENDBRANCH   1  28
TORSDOF 8
ENDMDL
MODEL 7
REMARK VINA RESULT:      -6.6      2.683      7.059
REMARK  Name = 
REMARK  10 active torsions:
REMARK  status: ('A' for Active; 'I' for Inactive)
REMARK    1  A    between atoms: C_1  and  C_2
REMARK    2  A    between atoms: C_2  and  C_3
REMARK    3  A    between atoms: C_3  and  O_4
REMARK    4  A    between atoms: O_4  and  C_5
REMARK    5  A    between atoms: N_7  and  C_8
REMARK    6  A    between atoms: C_14  and  C_15
REMARK    7  A    between atoms: N_22  and  C_23
REMARK    8  A    between atoms: C_25  and  C_26
REMARK    9  A    between atoms: C_27  and  O_28
REMARK   10  A    between atoms: C_29  and  O_30
REMARK                            x       y       z     vdW  Elec       q    Type
REMARK                         _______ _______ _______ _____ _____    ______ ____
ROOT
ATOM      1  C   UNL     1       1.224   7.248  20.714  0.00  0.00    +0.000 A 
ATOM      2  N   UNL     1       1.297   6.035  21.304  0.00  0.00    +0.000 NA
ATOM      3  C   UNL     1       2.152   5.133  20.803  0.00  0.00    +0.000 A 
ATOM      4  N   UNL     1       2.980   5.279  19.764  0.00  0.00    +0.000 NA
ATOM      5  C   UNL     1       2.844   6.480  19.171  0.00  0.00    +0.000 A 
ATOM      6  C   UNL     1       2.004   7.517  19.570  0.00  0.00    +0.000 A 
ATOM      7  C   UNL     1       2.182   8.576  18.608  0.00  0.00    +0.000 A 
ATOM      8  C   UNL     1       3.126   8.133  17.694  0.00  0.00    +0.000 A 
ATOM      9  N   UNL     1       3.530   6.874  18.050  0.00  0.00    +0.000 N 
ENDROOT
BRANCH   7  10
ATOM     10  C   UNL     1       1.538   9.881  18.461  0.00  0.00    +0.000 A 
ATOM     11  C   UNL     1       2.306  11.051  18.353  0.00  0.00    +0.000 A 
ATOM     12  C   UNL     1       1.694  12.303  18.242  0.00  0.00    +0.000 A 
ATOM     13  C   UNL     1       0.307  12.406  18.269  0.00  0.00    +0.000 A 
ATOM     14  C   UNL     1      -0.469  11.254  18.349  0.00  0.00    +0.000 A 
ATOM     15  C   UNL     1       0.146  10.000  18.403  0.00  0.00    +0.000 A 
ENDBRANCH   7  10
BRANCH   9  16
ATOM     16  C   UNL     1       4.509   6.049  17.357  0.00  0.00    +0.000 C 
ATOM     17  O   UNL     1       5.363   5.381  18.326  0.00  0.00    +0.000 OA
ATOM     18  C   UNL     1       6.704   5.324  17.792  0.00  0.00    +0.000 C 
ATOM     19  C   UNL     1       7.638   6.113  18.695  0.00  0.00    +0.000 C 
ATOM     20  C   UNL     1       6.633   5.879  16.370  0.00  0.00    +0.000 C 
ATOM     21  C   UNL     1       5.447   6.829  16.436  0.00  0.00    +0.000 C 
BRANCH  20  22
ATOM     22  O   UNL     1       6.330   4.842  15.415  0.00  0.00    +0.000 OA
ATOM     23  H   UNL     1       5.363   4.786  15.300  0.00  0.00    +0.000 HD
ENDBRANCH  20  22
BRANCH  21  24
ATOM     24  O   UNL     1       4.927   7.085  15.136  0.00  0.00    +0.000 OA
ATOM     25  H   UNL     1       5.699   7.153  14.538  0.00  0.00    +0.000 HD
ENDBRANCH  21  24
ENDBRANCH   9  16
BRANCH   1  28
ATOM     26  C   UNL     1       0.948   9.117  22.191  0.00  0.00    +0.000 C 
ATOM     27  O   UNL     1       2.124   9.196  22.525  0.00  0.00    +0.000 OA
ATOM     28  N   UNL     1       0.408   8.209  21.317  0.00  0.00    +0.000 N 
ATOM     29  H   UNL     1      -0.545   7.962  21.539  0.00  0.00    +0.000 HD
BRANCH  26  30
ATOM     30  O   UNL     1      -0.061   9.802  22.794  0.00  0.00    +0.000 OA
BRANCH  30  31
ATOM     31  C   UNL     1      -0.666  10.855  22.021  0.00  0.00    +0.000 C 
BRANCH  31  33
ATOM     32  C   UNL     1      -2.578  12.031  23.154  0.00  0.00    +0.000 C 
ATOM     33  C   UNL     1      -1.086  12.061  22.855  0.00  0.00    +0.000 C 
ENDBRANCH  31  33
ENDBRANCH  30  31
ENDBRANCH  26  30
ENDBRANCH   1  28
TORSDOF 8
ENDMDL
MODEL 8
REMARK VINA RESULT:      -6.6      2.605      7.185
REMARK  Name = 
REMARK  10 active torsions:
REMARK  status: ('A' for Active; 'I' for Inactive)
REMARK    1  A    between atoms: C_1  and  C_2
REMARK    2  A    between atoms: C_2  and  C_3
REMARK    3  A    between atoms: C_3  and  O_4
REMARK    4  A    between atoms: O_4  and  C_5
REMARK    5  A    between atoms: N_7  and  C_8
REMARK    6  A    between atoms: C_14  and  C_15
REMARK    7  A    between atoms: N_22  and  C_23
REMARK    8  A    between atoms: C_25  and  C_26
REMARK    9  A    between atoms: C_27  and  O_28
REMARK   10  A    between atoms: C_29  and  O_30
REMARK                            x       y       z     vdW  Elec       q    Type
REMARK                         _______ _______ _______ _____ _____    ______ ____
ROOT
ATOM      1  C   UNL     1       1.410   7.264  20.595  0.00  0.00    +0.000 A 
ATOM      2  N   UNL     1       1.700   6.050  21.109  0.00  0.00    +0.000 NA
ATOM      3  C   UNL     1       2.636   5.307  20.502  0.00  0.00    +0.000 A 
ATOM      4  N   UNL     1       3.356   5.622  19.420  0.00  0.00    +0.000 NA
ATOM      5  C   UNL     1       3.005   6.815  18.907  0.00  0.00    +0.000 A 
ATOM      6  C   UNL     1       2.057   7.697  19.418  0.00  0.00    +0.000 A 
ATOM      7  C   UNL     1       2.009   8.814  18.508  0.00  0.00    +0.000 A 
ATOM      8  C   UNL     1       2.936   8.558  17.509  0.00  0.00    +0.000 A 
ATOM      9  N   UNL     1       3.543   7.358  17.766  0.00  0.00    +0.000 N 
ENDROOT
BRANCH   7  10
ATOM     10  C   UNL     1       1.175  10.016  18.478  0.00  0.00    +0.000 A 
ATOM     11  C   UNL     1       1.738  11.284  18.691  0.00  0.00    +0.000 A 
ATOM     12  C   UNL     1       0.939  12.432  18.692  0.00  0.00    +0.000 A 
ATOM     13  C   UNL     1      -0.436  12.325  18.512  0.00  0.00    +0.000 A 
ATOM     14  C   UNL     1      -1.006  11.078  18.273  0.00  0.00    +0.000 A 
ATOM     15  C   UNL     1      -0.197   9.940  18.216  0.00  0.00    +0.000 A 
ENDBRANCH   7  10
BRANCH   9  16
ATOM     16  C   UNL     1       4.576   6.719  16.965  0.00  0.00    +0.000 C 
ATOM     17  O   UNL     1       4.071   5.472  16.412  0.00  0.00    +0.000 OA
ATOM     18  C   UNL     1       5.144   4.505  16.409  0.00  0.00    +0.000 C 
ATOM     19  C   UNL     1       4.771   3.339  17.310  0.00  0.00    +0.000 C 
ATOM     20  C   UNL     1       6.400   5.242  16.871  0.00  0.00    +0.000 C 
ATOM     21  C   UNL     1       5.839   6.352  17.746  0.00  0.00    +0.000 C 
BRANCH  20  22
ATOM     22  O   UNL     1       7.093   5.847  15.761  0.00  0.00    +0.000 OA
ATOM     23  H   UNL     1       7.008   5.271  14.979  0.00  0.00    +0.000 HD
ENDBRANCH  20  22
BRANCH  21  24
ATOM     24  O   UNL     1       6.778   7.413  17.888  0.00  0.00    +0.000 OA
ATOM     25  H   UNL     1       6.814   7.621  18.844  0.00  0.00    +0.000 HD
ENDBRANCH  21  24
ENDBRANCH   9  16
BRANCH   1  28
ATOM     26  C   UNL     1       0.978   9.050  22.136  0.00  0.00    +0.000 C 
ATOM     27  O   UNL     1       2.153   9.332  22.344  0.00  0.00    +0.000 OA
ATOM     28  N   UNL     1       0.511   8.066  21.304  0.00  0.00    +0.000 N 
ATOM     29  H   UNL     1      -0.354   7.655  21.620  0.00  0.00    +0.000 HD
BRANCH  26  30
ATOM     30  O   UNL     1      -0.062   9.546  22.859  0.00  0.00    +0.000 OA
BRANCH  30  31
ATOM     31  C   UNL     1      -0.902  10.504  22.190  0.00  0.00    +0.000 C 
BRANCH  31  33
ATOM     32  C   UNL     1      -0.740  13.014  22.187  0.00  0.00    +0.000 C 
ATOM     33  C   UNL     1      -1.130  11.782  22.992  0.00  0.00    +0.000 C 
ENDBRANCH  31  33
ENDBRANCH  30  31
ENDBRANCH  26  30
ENDBRANCH   1  28
TORSDOF 8
ENDMDL
MODEL 9
REMARK VINA RESULT:      -6.5      2.201      4.405
REMARK  Name = 
REMARK  10 active torsions:
REMARK  status: ('A' for Active; 'I' for Inactive)
REMARK    1  A    between atoms: C_1  and  C_2
REMARK    2  A    between atoms: C_2  and  C_3
REMARK    3  A    between atoms: C_3  and  O_4
REMARK    4  A    between atoms: O_4  and  C_5
REMARK    5  A    between atoms: N_7  and  C_8
REMARK    6  A    between atoms: C_14  and  C_15
REMARK    7  A    between atoms: N_22  and  C_23
REMARK    8  A    between atoms: C_25  and  C_26
REMARK    9  A    between atoms: C_27  and  O_28
REMARK   10  A    between atoms: C_29  and  O_30
REMARK                            x       y       z     vdW  Elec       q    Type
REMARK                         _______ _______ _______ _____ _____    ______ ____
ROOT
ATOM      1  C   UNL     1       2.983   7.006  18.153  0.00  0.00    +0.000 A 
ATOM      2  N   UNL     1       3.166   8.160  17.476  0.00  0.00    +0.000 NA
ATOM      3  C   UNL     1       2.550   9.265  17.920  0.00  0.00    +0.000 A 
ATOM      4  N   UNL     1       1.755   9.385  18.988  0.00  0.00    +0.000 NA
ATOM      5  C   UNL     1       1.556   8.207  19.607  0.00  0.00    +0.000 A 
ATOM      6  C   UNL     1       2.121   6.980  19.269  0.00  0.00    +0.000 A 
ATOM      7  C   UNL     1       1.581   6.016  20.195  0.00  0.00    +0.000 A 
ATOM      8  C   UNL     1       0.737   6.708  21.050  0.00  0.00    +0.000 A 
ATOM      9  N   UNL     1       0.739   8.031  20.697  0.00  0.00    +0.000 N 
ENDROOT
BRANCH   7  10
ATOM     10  C   UNL     1       1.751   4.567  20.307  0.00  0.00    +0.000 A 
ATOM     11  C   UNL     1       2.301   3.998  21.466  0.00  0.00    +0.000 A 
ATOM     12  C   UNL     1       2.492   2.616  21.566  0.00  0.00    +0.000 A 
ATOM     13  C   UNL     1       2.166   1.789  20.496  0.00  0.00    +0.000 A 
ATOM     14  C   UNL     1       1.596   2.334  19.350  0.00  0.00    +0.000 A 
ATOM     15  C   UNL     1       1.354   3.709  19.277  0.00  0.00    +0.000 A 
ENDBRANCH   7  10
BRANCH   9  16
ATOM     16  C   UNL     1      -0.012   9.101  21.337  0.00  0.00    +0.000 C 
ATOM     17  O   UNL     1      -0.701   9.891  20.329  0.00  0.00    +0.000 OA
ATOM     18  C   UNL     1      -0.681  11.276  20.740  0.00  0.00    +0.000 C 
ATOM     19  C   UNL     1       0.091  12.092  19.716  0.00  0.00    +0.000 C 
ATOM     20  C   UNL     1      -0.054  11.310  22.132  0.00  0.00    +0.000 C 
ATOM     21  C   UNL     1       0.849  10.086  22.128  0.00  0.00    +0.000 C 
BRANCH  20  22
ATOM     22  O   UNL     1      -1.048  11.136  23.162  0.00  0.00    +0.000 OA
ATOM     23  H   UNL     1      -1.849  10.743  22.769  0.00  0.00    +0.000 HD
ENDBRANCH  20  22
BRANCH  21  24
ATOM     24  O   UNL     1       1.155   9.675  23.456  0.00  0.00    +0.000 OA
ATOM     25  H   UNL     1       1.397   8.728  23.401  0.00  0.00    +0.000 HD
ENDBRANCH  21  24
ENDBRANCH   9  16
BRANCH   1  28
ATOM     26  C   UNL     1       4.712   5.389  18.541  0.00  0.00    +0.000 C 
ATOM     27  O   UNL     1       5.049   5.816  19.639  0.00  0.00    +0.000 OA
ATOM     28  N   UNL     1       3.720   5.893  17.739  0.00  0.00    +0.000 N 
ATOM     29  H   UNL     1       3.907   5.779  16.754  0.00  0.00    +0.000 HD
BRANCH  26  30
ATOM     30  O   UNL     1       5.409   4.454  17.842  0.00  0.00    +0.000 OA
BRANCH  30  31
ATOM     31  C   UNL     1       6.819   4.700  17.681  0.00  0.00    +0.000 C 
BRANCH  31  33
ATOM     32  C   UNL     1       7.581   7.089  17.491  0.00  0.00    +0.000 C 
ATOM     33  C   UNL     1       7.132   5.850  16.729  0.00  0.00    +0.000 C 
ENDBRANCH  31  33
ENDBRANCH  30  31
ENDBRANCH  26  30
ENDBRANCH   1  28
TORSDOF 8
ENDMDL
