MODEL 1
REMARK VINA RESULT:      -5.7      0.000      0.000
REMARK  Name = 
REMARK  2 active torsions:
REMARK  status: ('A' for Active; 'I' for Inactive)
REMARK    1  A    between atoms: S_1  and  C_2
REMARK    2  A    between atoms: C_5  and  C_6
REMARK                            x       y       z     vdW  Elec       q    Type
REMARK                         _______ _______ _______ _____ _____    ______ ____
ROOT
ATOM      1  C   UNL     1       5.182   4.677  16.893  0.00  0.00    +0.000 A 
ATOM      2  C   UNL     1       4.322   5.607  17.445  0.00  0.00    +0.000 A 
ATOM      3  C   UNL     1       3.767   5.024  18.606  0.00  0.00    +0.000 A 
ATOM      4 BR   UNL     1       2.535   5.908  19.707  0.00  0.00    +0.000 Br
ATOM      5  C   UNL     1       4.296   3.765  18.738  0.00  0.00    +0.000 A 
ATOM      6 BR   UNL     1       3.956   2.523  20.084  0.00  0.00    +0.000 Br
ATOM      7  N   UNL     1       5.147   3.554  17.688  0.00  0.00    +0.000 N 
ATOM      8  H   UNL     1       5.679   2.709  17.525  0.00  0.00    +0.000 HD
ENDROOT
BRANCH   1  12
ATOM      9  C   UNL     1       6.787   4.472  13.773  0.00  0.00    +0.000 A 
ATOM     10  N   UNL     1       7.590   5.325  14.373  0.00  0.00    +0.000 NA
ATOM     11  N   UNL     1       7.080   5.511  15.642  0.00  0.00    +0.000 NA
ATOM     12  C   UNL     1       6.003   4.756  15.731  0.00  0.00    +0.000 A 
ATOM     13  O   UNL     1       5.758   4.063  14.574  0.00  0.00    +0.000 OA
BRANCH   9  14
ATOM     14  S   UNL     1       7.003   3.921  12.145  0.00  0.00    +0.000 S 
ATOM     15  H   UNL     1       5.699   3.795  11.862  0.00  0.00    +0.000 HD
ENDBRANCH   9  14
ENDBRANCH   1  12
TORSDOF 2
ENDMDL
MODEL 2
REMARK VINA RESULT:      -5.6      4.568      5.822
REMARK  Name = 
REMARK  2 active torsions:
REMARK  status: ('A' for Active; 'I' for Inactive)
REMARK    1  A    between atoms: S_1  and  C_2
REMARK    2  A    between atoms: C_5  and  C_6
REMARK                            x       y       z     vdW  Elec       q    Type
REMARK                         _______ _______ _______ _____ _____    ______ ____
ROOT
ATOM      1  C   UNL     1       5.349   4.347  18.635  0.00  0.00    +0.000 A 
ATOM      2  C   UNL     1       5.973   5.564  18.837  0.00  0.00    +0.000 A 
ATOM      3  C   UNL     1       6.613   5.910  17.626  0.00  0.00    +0.000 A 
ATOM      4 BR   UNL     1       7.597   7.489  17.403  0.00  0.00    +0.000 Br
ATOM      5  C   UNL     1       6.367   4.910  16.720  0.00  0.00    +0.000 A 
ATOM      6 BR   UNL     1       6.937   4.813  14.949  0.00  0.00    +0.000 Br
ATOM      7  N   UNL     1       5.608   3.957  17.341  0.00  0.00    +0.000 N 
ATOM      8  H   UNL     1       5.277   3.101  16.914  0.00  0.00    +0.000 HD
ENDROOT
BRANCH   1  12
ATOM      9  C   UNL     1       2.959   2.848  20.730  0.00  0.00    +0.000 A 
ATOM     10  N   UNL     1       3.922   1.957  20.829  0.00  0.00    +0.000 NA
ATOM     11  N   UNL     1       4.959   2.416  20.043  0.00  0.00    +0.000 NA
ATOM     12  C   UNL     1       4.559   3.559  19.520  0.00  0.00    +0.000 A 
ATOM     13  O   UNL     1       3.291   3.895  19.919  0.00  0.00    +0.000 OA
BRANCH   9  14
ATOM     14  S   UNL     1       1.432   2.716  21.536  0.00  0.00    +0.000 S 
ATOM     15  H   UNL     1       0.874   1.878  20.652  0.00  0.00    +0.000 HD
ENDBRANCH   9  14
ENDBRANCH   1  12
TORSDOF 2
ENDMDL
MODEL 3
REMARK VINA RESULT:      -5.6      1.747      2.655
REMARK  Name = 
REMARK  2 active torsions:
REMARK  status: ('A' for Active; 'I' for Inactive)
REMARK    1  A    between atoms: S_1  and  C_2
REMARK    2  A    between atoms: C_5  and  C_6
REMARK                            x       y       z     vdW  Elec       q    Type
REMARK                         _______ _______ _______ _____ _____    ______ ____
ROOT
ATOM      1  C   UNL     1       4.696   4.438  18.665  0.00  0.00    +0.000 A 
ATOM      2  C   UNL     1       4.235   3.387  19.436  0.00  0.00    +0.000 A 
ATOM      3  C   UNL     1       3.167   3.882  20.217  0.00  0.00    +0.000 A 
ATOM      4 BR   UNL     1       2.208   2.823  21.430  0.00  0.00    +0.000 Br
ATOM      5  C   UNL     1       2.999   5.208  19.909  0.00  0.00    +0.000 A 
ATOM      6 BR   UNL     1       1.736   6.389  20.604  0.00  0.00    +0.000 Br
ATOM      7  N   UNL     1       3.938   5.544  18.973  0.00  0.00    +0.000 N 
ATOM      8  H   UNL     1       4.053   6.461  18.561  0.00  0.00    +0.000 HD
ENDROOT
BRANCH   1  12
ATOM      9  C   UNL     1       6.810   4.607  15.863  0.00  0.00    +0.000 A 
ATOM     10  N   UNL     1       7.717   4.507  16.812  0.00  0.00    +0.000 NA
ATOM     11  N   UNL     1       7.025   4.428  18.003  0.00  0.00    +0.000 NA
ATOM     12  C   UNL     1       5.743   4.482  17.700  0.00  0.00    +0.000 A 
ATOM     13  O   UNL     1       5.534   4.594  16.350  0.00  0.00    +0.000 OA
BRANCH   9  14
ATOM     14  S   UNL     1       7.185   4.741  14.178  0.00  0.00    +0.000 S 
ATOM     15  H   UNL     1       6.129   4.043  13.739  0.00  0.00    +0.000 HD
ENDBRANCH   9  14
ENDBRANCH   1  12
TORSDOF 2
ENDMDL
MODEL 4
REMARK VINA RESULT:      -5.5      4.528      5.833
REMARK  Name = 
REMARK  2 active torsions:
REMARK  status: ('A' for Active; 'I' for Inactive)
REMARK    1  A    between atoms: S_1  and  C_2
REMARK    2  A    between atoms: C_5  and  C_6
REMARK                            x       y       z     vdW  Elec       q    Type
REMARK                         _______ _______ _______ _____ _____    ______ ____
ROOT
ATOM      1  C   UNL     1       4.628   4.036  17.693  0.00  0.00    +0.000 A 
ATOM      2  C   UNL     1       5.056   3.817  16.397  0.00  0.00    +0.000 A 
ATOM      3  C   UNL     1       6.048   4.783  16.117  0.00  0.00    +0.000 A 
ATOM      4 BR   UNL     1       6.938   4.890  14.471  0.00  0.00    +0.000 Br
ATOM      5  C   UNL     1       6.205   5.561  17.236  0.00  0.00    +0.000 A 
ATOM      6 BR   UNL     1       7.381   6.986  17.476  0.00  0.00    +0.000 Br
ATOM      7  N   UNL     1       5.332   5.111  18.187  0.00  0.00    +0.000 N 
ATOM      8  H   UNL     1       5.226   5.498  19.116  0.00  0.00    +0.000 HD
ENDROOT
BRANCH   1  12
ATOM      9  C   UNL     1       2.366   2.761  20.060  0.00  0.00    +0.000 A 
ATOM     10  N   UNL     1       2.135   1.926  19.069  0.00  0.00    +0.000 NA
ATOM     11  N   UNL     1       2.971   2.305  18.039  0.00  0.00    +0.000 NA
ATOM     12  C   UNL     1       3.657   3.344  18.472  0.00  0.00    +0.000 A 
ATOM     13  O   UNL     1       3.322   3.687  19.757  0.00  0.00    +0.000 OA
BRANCH   9  14
ATOM     14  S   UNL     1       1.549   2.700  21.586  0.00  0.00    +0.000 S 
ATOM     15  H   UNL     1       0.366   3.136  21.134  0.00  0.00    +0.000 HD
ENDBRANCH   9  14
ENDBRANCH   1  12
TORSDOF 2
ENDMDL
MODEL 5
REMARK VINA RESULT:      -5.5      4.519      5.740
REMARK  Name = 
REMARK  2 active torsions:
REMARK  status: ('A' for Active; 'I' for Inactive)
REMARK    1  A    between atoms: S_1  and  C_2
REMARK    2  A    between atoms: C_5  and  C_6
REMARK                            x       y       z     vdW  Elec       q    Type
REMARK                         _______ _______ _______ _____ _____    ______ ____
ROOT
ATOM      1  C   UNL     1       4.836   4.175  18.065  0.00  0.00    +0.000 A 
ATOM      2  C   UNL     1       5.525   5.305  18.465  0.00  0.00    +0.000 A 
ATOM      3  C   UNL     1       6.371   5.677  17.395  0.00  0.00    +0.000 A 
ATOM      4 BR   UNL     1       7.510   7.163  17.460  0.00  0.00    +0.000 Br
ATOM      5  C   UNL     1       6.181   4.778  16.377  0.00  0.00    +0.000 A 
ATOM      6 BR   UNL     1       7.004   4.759  14.706  0.00  0.00    +0.000 Br
ATOM      7  N   UNL     1       5.256   3.860  16.793  0.00  0.00    +0.000 N 
ATOM      8  H   UNL     1       4.921   3.076  16.248  0.00  0.00    +0.000 HD
ENDROOT
BRANCH   1  12
ATOM      9  C   UNL     1       2.454   2.723  20.202  0.00  0.00    +0.000 A 
ATOM     10  N   UNL     1       2.418   1.853  19.215  0.00  0.00    +0.000 NA
ATOM     11  N   UNL     1       3.324   2.296  18.273  0.00  0.00    +0.000 NA
ATOM     12  C   UNL     1       3.855   3.404  18.751  0.00  0.00    +0.000 A 
ATOM     13  O   UNL     1       3.346   3.734  19.981  0.00  0.00    +0.000 OA
BRANCH   9  14
ATOM     14  S   UNL     1       1.481   2.607  21.630  0.00  0.00    +0.000 S 
ATOM     15  H   UNL     1       2.322   1.818  22.314  0.00  0.00    +0.000 HD
ENDBRANCH   9  14
ENDBRANCH   1  12
TORSDOF 2
ENDMDL
MODEL 6
REMARK VINA RESULT:      -5.4      4.592      5.873
REMARK  Name = 
REMARK  2 active torsions:
REMARK  status: ('A' for Active; 'I' for Inactive)
REMARK    1  A    between atoms: S_1  and  C_2
REMARK    2  A    between atoms: C_5  and  C_6
REMARK                            x       y       z     vdW  Elec       q    Type
REMARK                         _______ _______ _______ _____ _____    ______ ____
ROOT
ATOM      1  C   UNL     1       4.333   4.752  17.753  0.00  0.00    +0.000 A 
ATOM      2  C   UNL     1       4.800   4.332  16.521  0.00  0.00    +0.000 A 
ATOM      3  C   UNL     1       5.943   5.107  16.224  0.00  0.00    +0.000 A 
ATOM      4 BR   UNL     1       6.937   4.903  14.649  0.00  0.00    +0.000 Br
ATOM      5  C   UNL     1       6.148   5.972  17.269  0.00  0.00    +0.000 A 
ATOM      6 BR   UNL     1       7.510   7.229  17.456  0.00  0.00    +0.000 Br
ATOM      7  N   UNL     1       5.161   5.760  18.191  0.00  0.00    +0.000 N 
ATOM      8  H   UNL     1       5.058   6.258  19.066  0.00  0.00    +0.000 HD
ENDROOT
BRANCH   1  12
ATOM      9  C   UNL     1       2.030   3.448  20.066  0.00  0.00    +0.000 A 
ATOM     10  N   UNL     1       1.192   3.886  19.150  0.00  0.00    +0.000 NA
ATOM     11  N   UNL     1       1.964   4.439  18.149  0.00  0.00    +0.000 NA
ATOM     12  C   UNL     1       3.222   4.297  18.520  0.00  0.00    +0.000 A 
ATOM     13  O   UNL     1       3.336   3.670  19.734  0.00  0.00    +0.000 OA
BRANCH   9  14
ATOM     14  S   UNL     1       1.539   2.673  21.535  0.00  0.00    +0.000 S 
ATOM     15  H   UNL     1       0.406   3.371  21.694  0.00  0.00    +0.000 HD
ENDBRANCH   9  14
ENDBRANCH   1  12
TORSDOF 2
ENDMDL
MODEL 7
REMARK VINA RESULT:      -5.4      4.646      5.902
REMARK  Name = 
REMARK  2 active torsions:
REMARK  status: ('A' for Active; 'I' for Inactive)
REMARK    1  A    between atoms: S_1  and  C_2
REMARK    2  A    between atoms: C_5  and  C_6
REMARK                            x       y       z     vdW  Elec       q    Type
REMARK                         _______ _______ _______ _____ _____    ______ ____
ROOT
ATOM      1  C   UNL     1       5.226   4.275  18.332  0.00  0.00    +0.000 A 
ATOM      2  C   UNL     1       5.468   3.974  17.005  0.00  0.00    +0.000 A 
ATOM      3  C   UNL     1       6.281   5.006  16.486  0.00  0.00    +0.000 A 
ATOM      4 BR   UNL     1       6.881   5.041  14.711  0.00  0.00    +0.000 Br
ATOM      5  C   UNL     1       6.518   5.903  17.496  0.00  0.00    +0.000 A 
ATOM      6 BR   UNL     1       7.538   7.460  17.419  0.00  0.00    +0.000 Br
ATOM      7  N   UNL     1       5.866   5.461  18.613  0.00  0.00    +0.000 N 
ATOM      8  H   UNL     1       5.861   5.925  19.512  0.00  0.00    +0.000 HD
ENDROOT
BRANCH   1  12
ATOM      9  C   UNL     1       2.925   2.941  20.630  0.00  0.00    +0.000 A 
ATOM     10  N   UNL     1       3.925   2.106  20.815  0.00  0.00    +0.000 NA
ATOM     11  N   UNL     1       4.932   2.509  19.963  0.00  0.00    +0.000 NA
ATOM     12  C   UNL     1       4.480   3.566  19.317  0.00  0.00    +0.000 A 
ATOM     13  O   UNL     1       3.205   3.898  19.695  0.00  0.00    +0.000 OA
BRANCH   9  14
ATOM     14  S   UNL     1       1.415   2.846  21.472  0.00  0.00    +0.000 S 
ATOM     15  H   UNL     1       1.332   4.150  21.768  0.00  0.00    +0.000 HD
ENDBRANCH   9  14
ENDBRANCH   1  12
TORSDOF 2
ENDMDL
MODEL 8
REMARK VINA RESULT:      -5.4      1.634      2.184
REMARK  Name = 
REMARK  2 active torsions:
REMARK  status: ('A' for Active; 'I' for Inactive)
REMARK    1  A    between atoms: S_1  and  C_2
REMARK    2  A    between atoms: C_5  and  C_6
REMARK                            x       y       z     vdW  Elec       q    Type
REMARK                         _______ _______ _______ _____ _____    ______ ____
ROOT
ATOM      1  C   UNL     1       4.271   4.144  17.482  0.00  0.00    +0.000 A 
ATOM      2  C   UNL     1       3.321   3.140  17.456  0.00  0.00    +0.000 A 
ATOM      3  C   UNL     1       2.385   3.427  18.475  0.00  0.00    +0.000 A 
ATOM      4 BR   UNL     1       0.897   2.344  18.832  0.00  0.00    +0.000 Br
ATOM      5  C   UNL     1       2.777   4.587  19.092  0.00  0.00    +0.000 A 
ATOM      6 BR   UNL     1       1.931   5.472  20.496  0.00  0.00    +0.000 Br
ATOM      7  N   UNL     1       3.929   5.014  18.492  0.00  0.00    +0.000 N 
ATOM      8  H   UNL     1       4.448   5.846  18.743  0.00  0.00    +0.000 HD
ENDROOT
BRANCH   1  12
ATOM      9  C   UNL     1       6.699   4.603  14.983  0.00  0.00    +0.000 A 
ATOM     10  N   UNL     1       7.465   4.699  16.049  0.00  0.00    +0.000 NA
ATOM     11  N   UNL     1       6.636   4.534  17.139  0.00  0.00    +0.000 NA
ATOM     12  C   UNL     1       5.420   4.346  16.665  0.00  0.00    +0.000 A 
ATOM     13  O   UNL     1       5.388   4.375  15.295  0.00  0.00    +0.000 OA
BRANCH   9  14
ATOM     14  S   UNL     1       7.279   4.749  13.358  0.00  0.00    +0.000 S 
ATOM     15  H   UNL     1       6.619   3.689  12.873  0.00  0.00    +0.000 HD
ENDBRANCH   9  14
ENDBRANCH   1  12
TORSDOF 2
ENDMDL
MODEL 9
REMARK VINA RESULT:      -5.3      1.769      2.102
REMARK  Name = 
REMARK  2 active torsions:
REMARK  status: ('A' for Active; 'I' for Inactive)
REMARK    1  A    between atoms: S_1  and  C_2
REMARK    2  A    between atoms: C_5  and  C_6
REMARK                            x       y       z     vdW  Elec       q    Type
REMARK                         _______ _______ _______ _____ _____    ______ ____
ROOT
ATOM      1  C   UNL     1       4.485   4.735  18.667  0.00  0.00    +0.000 A 
ATOM      2  C   UNL     1       3.674   5.800  19.011  0.00  0.00    +0.000 A 
ATOM      3  C   UNL     1       2.768   5.334  19.990  0.00  0.00    +0.000 A 
ATOM      4 BR   UNL     1       1.460   6.422  20.775  0.00  0.00    +0.000 Br
ATOM      5  C   UNL     1       3.043   4.010  20.221  0.00  0.00    +0.000 A 
ATOM      6 BR   UNL     1       2.193   2.863  21.418  0.00  0.00    +0.000 Br
ATOM      7  N   UNL     1       4.079   3.647  19.407  0.00  0.00    +0.000 N 
ATOM      8  H   UNL     1       4.495   2.725  19.361  0.00  0.00    +0.000 HD
ENDROOT
BRANCH   1  12
ATOM      9  C   UNL     1       6.706   4.641  15.946  0.00  0.00    +0.000 A 
ATOM     10  N   UNL     1       7.565   4.490  16.931  0.00  0.00    +0.000 NA
ATOM     11  N   UNL     1       6.827   4.505  18.096  0.00  0.00    +0.000 NA
ATOM     12  C   UNL     1       5.566   4.661  17.743  0.00  0.00    +0.000 A 
ATOM     13  O   UNL     1       5.417   4.753  16.383  0.00  0.00    +0.000 OA
BRANCH   9  14
ATOM     14  S   UNL     1       7.152   4.696  14.273  0.00  0.00    +0.000 S 
ATOM     15  H   UNL     1       7.125   6.031  14.160  0.00  0.00    +0.000 HD
ENDBRANCH   9  14
ENDBRANCH   1  12
TORSDOF 2
ENDMDL
