MODEL 1
REMARK VINA RESULT:      -7.3      0.000      0.000
REMARK  Name = 
REMARK  7 active torsions:
REMARK  status: ('A' for Active; 'I' for Inactive)
REMARK    1  A    between atoms: C_1  and  O_2
REMARK    2  A    between atoms: O_2  and  C_3
REMARK    3  A    between atoms: C_7  and  C_8
REMARK    4  A    between atoms: C_14  and  O_15
REMARK    5  A    between atoms: O_15  and  C_16
REMARK    6  A    between atoms: C_20  and  O_21
REMARK    7  A    between atoms: O_21  and  C_22
REMARK                            x       y       z     vdW  Elec       q    Type
REMARK                         _______ _______ _______ _____ _____    ______ ____
ROOT
ATOM      1  C   UNL     1       5.729   4.772  16.070  0.00  0.00    +0.000 A 
ATOM      2  C   UNL     1       4.543   4.123  16.439  0.00  0.00    +0.000 A 
ATOM      3  C   UNL     1       3.619   4.719  17.313  0.00  0.00    +0.000 A 
ATOM      4 BR   UNL     1       2.091   3.669  17.753  0.00  0.00    +0.000 Br
ATOM      5  C   UNL     1       3.867   5.989  17.843  0.00  0.00    +0.000 A 
ATOM      6  C   UNL     1       5.089   6.602  17.517  0.00  0.00    +0.000 A 
ATOM      7  C   UNL     1       6.023   6.016  16.644  0.00  0.00    +0.000 A 
ENDROOT
BRANCH   5   8
ATOM      8  C   UNL     1       2.933   6.731  18.685  0.00  0.00    +0.000 A 
ATOM      9  C   UNL     1       2.366   6.497  19.922  0.00  0.00    +0.000 A 
ATOM     10  C   UNL     1       1.665   7.678  20.286  0.00  0.00    +0.000 A 
ATOM     11  C   UNL     1       0.936   8.098  21.409  0.00  0.00    +0.000 A 
ATOM     12  C   UNL     1       0.396   9.389  21.410  0.00  0.00    +0.000 A 
ATOM     13  C   UNL     1       0.558  10.243  20.312  0.00  0.00    +0.000 A 
ATOM     14  C   UNL     1       1.272   9.847  19.171  0.00  0.00    +0.000 A 
ATOM     15  C   UNL     1       1.819   8.558  19.221  0.00  0.00    +0.000 A 
ATOM     16  O   UNL     1       2.596   7.983  18.258  0.00  0.00    +0.000 OA
BRANCH  14  17
ATOM     17  O   UNL     1       1.476  10.602  18.049  0.00  0.00    +0.000 OA
ATOM     18  C   UNL     1       2.185  11.822  18.215  0.00  0.00    +0.000 C 
ENDBRANCH  14  17
ENDBRANCH   5   8
BRANCH   1  20
ATOM     19  C   UNL     1       6.157   3.978  13.875  0.00  0.00    +0.000 C 
ATOM     20  O   UNL     1       6.622   4.202  15.203  0.00  0.00    +0.000 OA
ENDBRANCH   1  20
BRANCH   7  21
ATOM     21  O   UNL     1       7.130   6.803  16.473  0.00  0.00    +0.000 OA
ATOM     22  C   UNL     1       7.632   7.539  17.577  0.00  0.00    +0.000 C 
ENDBRANCH   7  21
TORSDOF 4
ENDMDL
MODEL 2
REMARK VINA RESULT:      -7.0      1.472      2.315
REMARK  Name = 
REMARK  7 active torsions:
REMARK  status: ('A' for Active; 'I' for Inactive)
REMARK    1  A    between atoms: C_1  and  O_2
REMARK    2  A    between atoms: O_2  and  C_3
REMARK    3  A    between atoms: C_7  and  C_8
REMARK    4  A    between atoms: C_14  and  O_15
REMARK    5  A    between atoms: O_15  and  C_16
REMARK    6  A    between atoms: C_20  and  O_21
REMARK    7  A    between atoms: O_21  and  C_22
REMARK                            x       y       z     vdW  Elec       q    Type
REMARK                         _______ _______ _______ _____ _____    ______ ____
ROOT
ATOM      1  C   UNL     1       5.347   4.951  17.037  0.00  0.00    +0.000 A 
ATOM      2  C   UNL     1       4.123   4.544  17.586  0.00  0.00    +0.000 A 
ATOM      3  C   UNL     1       3.172   5.476  18.033  0.00  0.00    +0.000 A 
ATOM      4 BR   UNL     1       1.590   4.747  18.806  0.00  0.00    +0.000 Br
ATOM      5  C   UNL     1       3.429   6.848  17.940  0.00  0.00    +0.000 A 
ATOM      6  C   UNL     1       4.686   7.241  17.448  0.00  0.00    +0.000 A 
ATOM      7  C   UNL     1       5.648   6.319  16.998  0.00  0.00    +0.000 A 
ENDROOT
BRANCH   5   8
ATOM      8  C   UNL     1       2.474   7.895  18.291  0.00  0.00    +0.000 A 
ATOM      9  C   UNL     1       1.687   8.757  17.554  0.00  0.00    +0.000 A 
ATOM     10  C   UNL     1       0.838   9.430  18.473  0.00  0.00    +0.000 A 
ATOM     11  C   UNL     1      -0.197  10.371  18.368  0.00  0.00    +0.000 A 
ATOM     12  C   UNL     1      -0.838  10.793  19.539  0.00  0.00    +0.000 A 
ATOM     13  C   UNL     1      -0.448  10.308  20.793  0.00  0.00    +0.000 A 
ATOM     14  C   UNL     1       0.591   9.374  20.930  0.00  0.00    +0.000 A 
ATOM     15  C   UNL     1       1.188   8.958  19.733  0.00  0.00    +0.000 A 
ATOM     16  O   UNL     1       2.172   8.021  19.615  0.00  0.00    +0.000 OA
BRANCH  14  17
ATOM     17  O   UNL     1       1.050   8.850  22.107  0.00  0.00    +0.000 OA
ATOM     18  C   UNL     1       0.434   9.313  23.301  0.00  0.00    +0.000 C 
ENDBRANCH  14  17
ENDBRANCH   5   8
BRANCH   1  20
ATOM     19  C   UNL     1       6.275   3.803  15.178  0.00  0.00    +0.000 C 
ATOM     20  O   UNL     1       6.269   4.046  16.583  0.00  0.00    +0.000 OA
ENDBRANCH   1  20
BRANCH   7  21
ATOM     21  O   UNL     1       6.787   6.938  16.557  0.00  0.00    +0.000 OA
ATOM     22  C   UNL     1       7.639   7.568  17.500  0.00  0.00    +0.000 C 
ENDBRANCH   7  21
TORSDOF 4
ENDMDL
MODEL 3
REMARK VINA RESULT:      -6.9      2.905      4.335
REMARK  Name = 
REMARK  7 active torsions:
REMARK  status: ('A' for Active; 'I' for Inactive)
REMARK    1  A    between atoms: C_1  and  O_2
REMARK    2  A    between atoms: O_2  and  C_3
REMARK    3  A    between atoms: C_7  and  C_8
REMARK    4  A    between atoms: C_14  and  O_15
REMARK    5  A    between atoms: O_15  and  C_16
REMARK    6  A    between atoms: C_20  and  O_21
REMARK    7  A    between atoms: O_21  and  C_22
REMARK                            x       y       z     vdW  Elec       q    Type
REMARK                         _______ _______ _______ _____ _____    ______ ____
ROOT
ATOM      1  C   UNL     1       3.412   3.325  19.066  0.00  0.00    +0.000 A 
ATOM      2  C   UNL     1       4.167   4.279  18.370  0.00  0.00    +0.000 A 
ATOM      3  C   UNL     1       3.773   5.626  18.309  0.00  0.00    +0.000 A 
ATOM      4 BR   UNL     1       4.885   6.773  17.270  0.00  0.00    +0.000 Br
ATOM      5  C   UNL     1       2.604   6.050  18.949  0.00  0.00    +0.000 A 
ATOM      6  C   UNL     1       1.823   5.071  19.589  0.00  0.00    +0.000 A 
ATOM      7  C   UNL     1       2.204   3.720  19.656  0.00  0.00    +0.000 A 
ENDROOT
BRANCH   5   8
ATOM      8  C   UNL     1       2.157   7.438  19.023  0.00  0.00    +0.000 A 
ATOM      9  C   UNL     1       1.839   8.392  18.076  0.00  0.00    +0.000 A 
ATOM     10  C   UNL     1       1.305   9.507  18.776  0.00  0.00    +0.000 A 
ATOM     11  C   UNL     1       0.764  10.748  18.409  0.00  0.00    +0.000 A 
ATOM     12  C   UNL     1       0.302  11.600  19.419  0.00  0.00    +0.000 A 
ATOM     13  C   UNL     1       0.392  11.240  20.769  0.00  0.00    +0.000 A 
ATOM     14  C   UNL     1       0.938  10.010  21.167  0.00  0.00    +0.000 A 
ATOM     15  C   UNL     1       1.364   9.176  20.125  0.00  0.00    +0.000 A 
ATOM     16  O   UNL     1       1.872   7.917  20.268  0.00  0.00    +0.000 OA
BRANCH  14  17
ATOM     17  O   UNL     1       1.078   9.572  22.455  0.00  0.00    +0.000 OA
ATOM     18  C   UNL     1      -0.101   9.517  23.247  0.00  0.00    +0.000 C 
ENDBRANCH  14  17
ENDBRANCH   5   8
BRANCH   1  20
ATOM     19  C   UNL     1       4.709   1.688  20.193  0.00  0.00    +0.000 C 
ATOM     20  O   UNL     1       3.802   2.015  19.143  0.00  0.00    +0.000 OA
ENDBRANCH   1  20
BRANCH   7  21
ATOM     21  O   UNL     1       1.290   2.961  20.336  0.00  0.00    +0.000 OA
ATOM     22  C   UNL     1       1.483   2.725  21.722  0.00  0.00    +0.000 C 
ENDBRANCH   7  21
TORSDOF 4
ENDMDL
MODEL 4
REMARK VINA RESULT:      -6.8      1.412      6.737
REMARK  Name = 
REMARK  7 active torsions:
REMARK  status: ('A' for Active; 'I' for Inactive)
REMARK    1  A    between atoms: C_1  and  O_2
REMARK    2  A    between atoms: O_2  and  C_3
REMARK    3  A    between atoms: C_7  and  C_8
REMARK    4  A    between atoms: C_14  and  O_15
REMARK    5  A    between atoms: O_15  and  C_16
REMARK    6  A    between atoms: C_20  and  O_21
REMARK    7  A    between atoms: O_21  and  C_22
REMARK                            x       y       z     vdW  Elec       q    Type
REMARK                         _______ _______ _______ _____ _____    ______ ____
ROOT
ATOM      1  C   UNL     1       0.910   8.839  20.202  0.00  0.00    +0.000 A 
ATOM      2  C   UNL     1       1.210   7.577  20.732  0.00  0.00    +0.000 A 
ATOM      3  C   UNL     1       2.031   6.667  20.046  0.00  0.00    +0.000 A 
ATOM      4 BR   UNL     1       2.285   4.975  20.885  0.00  0.00    +0.000 Br
ATOM      5  C   UNL     1       2.573   7.005  18.802  0.00  0.00    +0.000 A 
ATOM      6  C   UNL     1       2.212   8.248  18.252  0.00  0.00    +0.000 A 
ATOM      7  C   UNL     1       1.390   9.167  18.928  0.00  0.00    +0.000 A 
ENDROOT
BRANCH   5   8
ATOM      8  C   UNL     1       3.508   6.171  18.052  0.00  0.00    +0.000 A 
ATOM      9  C   UNL     1       3.409   4.939  17.438  0.00  0.00    +0.000 A 
ATOM     10  C   UNL     1       4.619   4.735  16.722  0.00  0.00    +0.000 A 
ATOM     11  C   UNL     1       5.121   3.734  15.876  0.00  0.00    +0.000 A 
ATOM     12  C   UNL     1       6.393   3.906  15.319  0.00  0.00    +0.000 A 
ATOM     13  C   UNL     1       7.165   5.038  15.610  0.00  0.00    +0.000 A 
ATOM     14  C   UNL     1       6.694   6.050  16.461  0.00  0.00    +0.000 A 
ATOM     15  C   UNL     1       5.406   5.852  16.975  0.00  0.00    +0.000 A 
ATOM     16  O   UNL     1       4.724   6.724  17.774  0.00  0.00    +0.000 OA
BRANCH  14  17
ATOM     17  O   UNL     1       7.373   7.184  16.812  0.00  0.00    +0.000 OA
ATOM     18  C   UNL     1       7.933   7.220  18.118  0.00  0.00    +0.000 C 
ENDBRANCH  14  17
ENDBRANCH   5   8
BRANCH   1  20
ATOM     19  C   UNL     1       0.811  10.743  21.617  0.00  0.00    +0.000 C 
ATOM     20  O   UNL     1       0.125   9.736  20.877  0.00  0.00    +0.000 OA
ENDBRANCH   1  20
BRANCH   7  21
ATOM     21  O   UNL     1       1.187  10.308  18.198  0.00  0.00    +0.000 OA
ATOM     22  C   UNL     1       2.187  11.314  18.197  0.00  0.00    +0.000 C 
ENDBRANCH   7  21
TORSDOF 4
ENDMDL
MODEL 5
REMARK VINA RESULT:      -6.8      0.943      1.070
REMARK  Name = 
REMARK  7 active torsions:
REMARK  status: ('A' for Active; 'I' for Inactive)
REMARK    1  A    between atoms: C_1  and  O_2
REMARK    2  A    between atoms: O_2  and  C_3
REMARK    3  A    between atoms: C_7  and  C_8
REMARK    4  A    between atoms: C_14  and  O_15
REMARK    5  A    between atoms: O_15  and  C_16
REMARK    6  A    between atoms: C_20  and  O_21
REMARK    7  A    between atoms: O_21  and  C_22
REMARK                            x       y       z     vdW  Elec       q    Type
REMARK                         _______ _______ _______ _____ _____    ______ ____
ROOT
ATOM      1  C   UNL     1       4.809   4.884  16.714  0.00  0.00    +0.000 A 
ATOM      2  C   UNL     1       3.724   4.260  17.346  0.00  0.00    +0.000 A 
ATOM      3  C   UNL     1       2.885   4.960  18.228  0.00  0.00    +0.000 A 
ATOM      4 BR   UNL     1       1.496   3.941  19.043  0.00  0.00    +0.000 Br
ATOM      5  C   UNL     1       3.117   6.312  18.501  0.00  0.00    +0.000 A 
ATOM      6  C   UNL     1       4.246   6.908  17.911  0.00  0.00    +0.000 A 
ATOM      7  C   UNL     1       5.095   6.219  17.027  0.00  0.00    +0.000 A 
ENDROOT
BRANCH   5   8
ATOM      8  C   UNL     1       2.255   7.150  19.328  0.00  0.00    +0.000 A 
ATOM      9  C   UNL     1       1.683   6.995  20.576  0.00  0.00    +0.000 A 
ATOM     10  C   UNL     1       1.083   8.238  20.912  0.00  0.00    +0.000 A 
ATOM     11  C   UNL     1       0.401   8.747  22.028  0.00  0.00    +0.000 A 
ATOM     12  C   UNL     1      -0.033  10.077  21.997  0.00  0.00    +0.000 A 
ATOM     13  C   UNL     1       0.186  10.885  20.875  0.00  0.00    +0.000 A 
ATOM     14  C   UNL     1       0.855  10.401  19.740  0.00  0.00    +0.000 A 
ATOM     15  C   UNL     1       1.297   9.074  19.822  0.00  0.00    +0.000 A 
ATOM     16  O   UNL     1       2.016   8.412  18.870  0.00  0.00    +0.000 OA
BRANCH  14  17
ATOM     17  O   UNL     1       1.108  11.106  18.596  0.00  0.00    +0.000 OA
ATOM     18  C   UNL     1       0.939  12.516  18.658  0.00  0.00    +0.000 C 
ENDBRANCH  14  17
ENDBRANCH   5   8
BRANCH   1  20
ATOM     19  C   UNL     1       5.423   4.492  14.455  0.00  0.00    +0.000 C 
ATOM     20  O   UNL     1       5.617   4.209  15.839  0.00  0.00    +0.000 OA
ENDBRANCH   1  20
BRANCH   7  21
ATOM     21  O   UNL     1       6.118   7.009  16.576  0.00  0.00    +0.000 OA
ATOM     22  C   UNL     1       7.346   7.020  17.286  0.00  0.00    +0.000 C 
ENDBRANCH   7  21
TORSDOF 4
ENDMDL
MODEL 6
REMARK VINA RESULT:      -6.7      2.602      4.041
REMARK  Name = 
REMARK  7 active torsions:
REMARK  status: ('A' for Active; 'I' for Inactive)
REMARK    1  A    between atoms: C_1  and  O_2
REMARK    2  A    between atoms: O_2  and  C_3
REMARK    3  A    between atoms: C_7  and  C_8
REMARK    4  A    between atoms: C_14  and  O_15
REMARK    5  A    between atoms: O_15  and  C_16
REMARK    6  A    between atoms: C_20  and  O_21
REMARK    7  A    between atoms: O_21  and  C_22
REMARK                            x       y       z     vdW  Elec       q    Type
REMARK                         _______ _______ _______ _____ _____    ______ ____
ROOT
ATOM      1  C   UNL     1       3.439   3.249  17.648  0.00  0.00    +0.000 A 
ATOM      2  C   UNL     1       4.429   4.224  17.470  0.00  0.00    +0.000 A 
ATOM      3  C   UNL     1       4.156   5.590  17.647  0.00  0.00    +0.000 A 
ATOM      4 BR   UNL     1       5.603   6.782  17.305  0.00  0.00    +0.000 Br
ATOM      5  C   UNL     1       2.873   6.013  18.009  0.00  0.00    +0.000 A 
ATOM      6  C   UNL     1       1.873   5.030  18.121  0.00  0.00    +0.000 A 
ATOM      7  C   UNL     1       2.133   3.659  17.945  0.00  0.00    +0.000 A 
ENDROOT
BRANCH   5   8
ATOM      8  C   UNL     1       2.509   7.395  18.306  0.00  0.00    +0.000 A 
ATOM      9  C   UNL     1       2.622   8.584  17.612  0.00  0.00    +0.000 A 
ATOM     10  C   UNL     1       1.928   9.569  18.364  0.00  0.00    +0.000 A 
ATOM     11  C   UNL     1       1.633  10.930  18.192  0.00  0.00    +0.000 A 
ATOM     12  C   UNL     1       0.875  11.579  19.174  0.00  0.00    +0.000 A 
ATOM     13  C   UNL     1       0.433  10.899  20.315  0.00  0.00    +0.000 A 
ATOM     14  C   UNL     1       0.721   9.541  20.520  0.00  0.00    +0.000 A 
ATOM     15  C   UNL     1       1.459   8.922  19.502  0.00  0.00    +0.000 A 
ATOM     16  O   UNL     1       1.805   7.603  19.456  0.00  0.00    +0.000 OA
BRANCH  14  17
ATOM     17  O   UNL     1       0.344   8.794  21.601  0.00  0.00    +0.000 OA
ATOM     18  C   UNL     1       0.584   9.354  22.885  0.00  0.00    +0.000 C 
ENDBRANCH  14  17
ENDBRANCH   5   8
BRANCH   1  20
ATOM     19  C   UNL     1       3.880   1.164  18.694  0.00  0.00    +0.000 C 
ATOM     20  O   UNL     1       3.706   1.915  17.494  0.00  0.00    +0.000 OA
ENDBRANCH   1  20
BRANCH   7  21
ATOM     21  O   UNL     1       1.008   2.898  18.113  0.00  0.00    +0.000 OA
ATOM     22  C   UNL     1       0.544   2.632  19.427  0.00  0.00    +0.000 C 
ENDBRANCH   7  21
TORSDOF 4
ENDMDL
MODEL 7
REMARK VINA RESULT:      -6.6      1.526      6.792
REMARK  Name = 
REMARK  7 active torsions:
REMARK  status: ('A' for Active; 'I' for Inactive)
REMARK    1  A    between atoms: C_1  and  O_2
REMARK    2  A    between atoms: O_2  and  C_3
REMARK    3  A    between atoms: C_7  and  C_8
REMARK    4  A    between atoms: C_14  and  O_15
REMARK    5  A    between atoms: O_15  and  C_16
REMARK    6  A    between atoms: C_20  and  O_21
REMARK    7  A    between atoms: O_21  and  C_22
REMARK                            x       y       z     vdW  Elec       q    Type
REMARK                         _______ _______ _______ _____ _____    ______ ____
ROOT
ATOM      1  C   UNL     1       1.233   7.636  20.804  0.00  0.00    +0.000 A 
ATOM      2  C   UNL     1       1.531   6.281  21.010  0.00  0.00    +0.000 A 
ATOM      3  C   UNL     1       2.324   5.557  20.105  0.00  0.00    +0.000 A 
ATOM      4 BR   UNL     1       2.577   3.712  20.509  0.00  0.00    +0.000 Br
ATOM      5  C   UNL     1       2.839   6.179  18.963  0.00  0.00    +0.000 A 
ATOM      6  C   UNL     1       2.480   7.519  18.735  0.00  0.00    +0.000 A 
ATOM      7  C   UNL     1       1.686   8.255  19.632  0.00  0.00    +0.000 A 
ENDROOT
BRANCH   5   8
ATOM      8  C   UNL     1       3.745   5.542  18.011  0.00  0.00    +0.000 A 
ATOM      9  C   UNL     1       3.629   4.467  17.153  0.00  0.00    +0.000 A 
ATOM     10  C   UNL     1       4.805   4.444  16.357  0.00  0.00    +0.000 A 
ATOM     11  C   UNL     1       5.275   3.656  15.295  0.00  0.00    +0.000 A 
ATOM     12  C   UNL     1       6.518   3.968  14.731  0.00  0.00    +0.000 A 
ATOM     13  C   UNL     1       7.291   5.027  15.222  0.00  0.00    +0.000 A 
ATOM     14  C   UNL     1       6.853   5.825  16.290  0.00  0.00    +0.000 A 
ATOM     15  C   UNL     1       5.593   5.497  16.808  0.00  0.00    +0.000 A 
ATOM     16  O   UNL     1       4.941   6.165  17.803  0.00  0.00    +0.000 OA
BRANCH  14  17
ATOM     17  O   UNL     1       7.536   6.871  16.845  0.00  0.00    +0.000 OA
ATOM     18  C   UNL     1       7.918   6.740  18.207  0.00  0.00    +0.000 C 
ENDBRANCH  14  17
ENDBRANCH   5   8
BRANCH   1  20
ATOM     19  C   UNL     1       1.168   9.327  22.468  0.00  0.00    +0.000 C 
ATOM     20  O   UNL     1       0.476   8.350  21.694  0.00  0.00    +0.000 OA
ENDBRANCH   1  20
BRANCH   7  21
ATOM     21  O   UNL     1       1.479   9.538  19.201  0.00  0.00    +0.000 OA
ATOM     22  C   UNL     1       0.687   9.759  18.045  0.00  0.00    +0.000 C 
ENDBRANCH   7  21
TORSDOF 4
ENDMDL
MODEL 8
REMARK VINA RESULT:      -6.6      2.557      4.394
REMARK  Name = 
REMARK  7 active torsions:
REMARK  status: ('A' for Active; 'I' for Inactive)
REMARK    1  A    between atoms: C_1  and  O_2
REMARK    2  A    between atoms: O_2  and  C_3
REMARK    3  A    between atoms: C_7  and  C_8
REMARK    4  A    between atoms: C_14  and  O_15
REMARK    5  A    between atoms: O_15  and  C_16
REMARK    6  A    between atoms: C_20  and  O_21
REMARK    7  A    between atoms: O_21  and  C_22
REMARK                            x       y       z     vdW  Elec       q    Type
REMARK                         _______ _______ _______ _____ _____    ______ ____
ROOT
ATOM      1  C   UNL     1       6.904   4.637  13.922  0.00  0.00    +0.000 A 
ATOM      2  C   UNL     1       7.359   5.010  15.194  0.00  0.00    +0.000 A 
ATOM      3  C   UNL     1       6.544   4.890  16.331  0.00  0.00    +0.000 A 
ATOM      4 BR   UNL     1       7.302   5.500  17.969  0.00  0.00    +0.000 Br
ATOM      5  C   UNL     1       5.242   4.390  16.217  0.00  0.00    +0.000 A 
ATOM      6  C   UNL     1       4.776   4.081  14.927  0.00  0.00    +0.000 A 
ATOM      7  C   UNL     1       5.581   4.198  13.780  0.00  0.00    +0.000 A 
ENDROOT
BRANCH   5   8
ATOM      8  C   UNL     1       4.349   4.141  17.345  0.00  0.00    +0.000 A 
ATOM      9  C   UNL     1       4.018   3.015  18.072  0.00  0.00    +0.000 A 
ATOM     10  C   UNL     1       3.217   3.447  19.162  0.00  0.00    +0.000 A 
ATOM     11  C   UNL     1       2.613   2.824  20.265  0.00  0.00    +0.000 A 
ATOM     12  C   UNL     1       1.899   3.616  21.172  0.00  0.00    +0.000 A 
ATOM     13  C   UNL     1       1.765   4.996  20.980  0.00  0.00    +0.000 A 
ATOM     14  C   UNL     1       2.348   5.646  19.881  0.00  0.00    +0.000 A 
ATOM     15  C   UNL     1       3.077   4.823  19.013  0.00  0.00    +0.000 A 
ATOM     16  O   UNL     1       3.774   5.238  17.916  0.00  0.00    +0.000 OA
BRANCH  14  17
ATOM     17  O   UNL     1       2.267   6.982  19.603  0.00  0.00    +0.000 OA
ATOM     18  C   UNL     1       1.648   7.807  20.581  0.00  0.00    +0.000 C 
ENDBRANCH  14  17
ENDBRANCH   5   8
BRANCH   1  20
ATOM     19  C   UNL     1       8.535   5.890  12.737  0.00  0.00    +0.000 C 
ATOM     20  O   UNL     1       7.702   4.735  12.814  0.00  0.00    +0.000 OA
ENDBRANCH   1  20
BRANCH   7  21
ATOM     21  O   UNL     1       4.912   3.831  12.643  0.00  0.00    +0.000 OA
ATOM     22  C   UNL     1       5.351   2.692  11.921  0.00  0.00    +0.000 C 
ENDBRANCH   7  21
TORSDOF 4
ENDMDL
MODEL 9
REMARK VINA RESULT:      -6.6      2.600      7.190
REMARK  Name = 
REMARK  7 active torsions:
REMARK  status: ('A' for Active; 'I' for Inactive)
REMARK    1  A    between atoms: C_1  and  O_2
REMARK    2  A    between atoms: O_2  and  C_3
REMARK    3  A    between atoms: C_7  and  C_8
REMARK    4  A    between atoms: C_14  and  O_15
REMARK    5  A    between atoms: O_15  and  C_16
REMARK    6  A    between atoms: C_20  and  O_21
REMARK    7  A    between atoms: O_21  and  C_22
REMARK                            x       y       z     vdW  Elec       q    Type
REMARK                         _______ _______ _______ _____ _____    ______ ____
ROOT
ATOM      1  C   UNL     1       0.898  10.565  20.540  0.00  0.00    +0.000 A 
ATOM      2  C   UNL     1       1.356  10.030  19.328  0.00  0.00    +0.000 A 
ATOM      3  C   UNL     1       1.738   8.683  19.216  0.00  0.00    +0.000 A 
ATOM      4 BR   UNL     1       2.391   8.139  17.511  0.00  0.00    +0.000 Br
ATOM      5  C   UNL     1       1.671   7.836  20.327  0.00  0.00    +0.000 A 
ATOM      6  C   UNL     1       1.273   8.401  21.551  0.00  0.00    +0.000 A 
ATOM      7  C   UNL     1       0.889   9.747  21.677  0.00  0.00    +0.000 A 
ENDROOT
BRANCH   5   8
ATOM      8  C   UNL     1       1.958   6.405  20.295  0.00  0.00    +0.000 A 
ATOM      9  C   UNL     1       1.182   5.270  20.437  0.00  0.00    +0.000 A 
ATOM     10  C   UNL     1       2.015   4.160  20.134  0.00  0.00    +0.000 A 
ATOM     11  C   UNL     1       1.832   2.771  20.048  0.00  0.00    +0.000 A 
ATOM     12  C   UNL     1       2.924   1.975  19.683  0.00  0.00    +0.000 A 
ATOM     13  C   UNL     1       4.179   2.540  19.427  0.00  0.00    +0.000 A 
ATOM     14  C   UNL     1       4.395   3.924  19.517  0.00  0.00    +0.000 A 
ATOM     15  C   UNL     1       3.271   4.687  19.858  0.00  0.00    +0.000 A 
ATOM     16  O   UNL     1       3.228   6.048  19.947  0.00  0.00    +0.000 OA
BRANCH  14  17
ATOM     17  O   UNL     1       5.581   4.568  19.296  0.00  0.00    +0.000 OA
ATOM     18  C   UNL     1       6.059   4.596  17.958  0.00  0.00    +0.000 C 
ENDBRANCH  14  17
ENDBRANCH   5   8
BRANCH   1  20
ATOM     19  C   UNL     1       0.767  12.703  19.518  0.00  0.00    +0.000 C 
ATOM     20  O   UNL     1       0.507  11.873  20.647  0.00  0.00    +0.000 OA
ENDBRANCH   1  20
BRANCH   7  21
ATOM     21  O   UNL     1       0.534  10.063  22.962  0.00  0.00    +0.000 OA
ATOM     22  C   UNL     1      -0.842  10.158  23.294  0.00  0.00    +0.000 C 
ENDBRANCH   7  21
TORSDOF 4
ENDMDL
