MODEL 1
REMARK VINA RESULT:      -7.7      0.000      0.000
REMARK  Name = 
REMARK  2 active torsions:
REMARK  status: ('A' for Active; 'I' for Inactive)
REMARK    1  A    between atoms: C_6  and  N_7
REMARK    2  A    between atoms: C_11  and  N_12
REMARK                            x       y       z     vdW  Elec       q    Type
REMARK                         _______ _______ _______ _____ _____    ______ ____
ROOT
ATOM      1  N   UNL     1       3.268   5.449  19.306  0.00  0.00    +0.000 N 
ATOM      2  C   UNL     1       2.571   6.663  19.542  0.00  0.00    +0.000 A 
ATOM      3  C   UNL     1       1.814   6.783  20.703  0.00  0.00    +0.000 A 
ATOM      4  C   UNL     1       1.086   7.956  20.934  0.00  0.00    +0.000 A 
ATOM      5  C   UNL     1       1.060   8.983  19.992  0.00  0.00    +0.000 A 
ATOM      6  C   UNL     1       1.840   8.753  18.858  0.00  0.00    +0.000 A 
ATOM      7  N   UNL     1       2.583   7.643  18.618  0.00  0.00    +0.000 NA
ATOM      8  H   UNL     1       3.530   5.039  20.197  0.00  0.00    +0.000 HD
ENDROOT
BRANCH   1  14
ATOM      9  C   UNL     1       5.709   5.502  18.926  0.00  0.00    +0.000 A 
ATOM     10  C   UNL     1       6.818   5.320  18.098  0.00  0.00    +0.000 A 
ATOM     11  C   UNL     1       6.579   4.958  16.792  0.00  0.00    +0.000 A 
ATOM     12  C   UNL     1       5.304   4.761  16.317  0.00  0.00    +0.000 A 
ATOM     13  C   UNL     1       4.192   4.921  17.118  0.00  0.00    +0.000 A 
ATOM     14  C   UNL     1       4.390   5.343  18.440  0.00  0.00    +0.000 A 
ATOM     15  O   UNL     1       5.295   4.397  15.004  0.00  0.00    +0.000 OA
ATOM     16  C   UNL     1       6.705   4.450  14.700  0.00  0.00    +0.000 C 
ATOM     17  O   UNL     1       7.530   4.748  15.843  0.00  0.00    +0.000 OA
ENDBRANCH   1  14
BRANCH   5  18
ATOM     18  N   UNL     1       0.326  10.157  20.140  0.00  0.00    +0.000 N 
ATOM     19  C   UNL     1       0.999  11.396  20.583  0.00  0.00    +0.000 C 
ATOM     20  C   UNL     1       0.728  12.589  19.641  0.00  0.00    +0.000 C 
ATOM     21  C   UNL     1      -0.778  12.907  19.509  0.00  0.00    +0.000 C 
ATOM     22  C   UNL     1      -0.737  11.738  18.496  0.00  0.00    +0.000 C 
ATOM     23  C   UNL     1      -0.773  10.338  19.159  0.00  0.00    +0.000 C 
ATOM     24  N   UNL     1       0.679  12.187  18.179  0.00  0.00    +0.000 NA
ATOM     25  H   UNL     1       0.712  12.983  17.544  0.00  0.00    +0.000 HD
ENDBRANCH   5  18
TORSDOF 2
ENDMDL
MODEL 2
REMARK VINA RESULT:      -7.6      2.433      3.238
REMARK  Name = 
REMARK  2 active torsions:
REMARK  status: ('A' for Active; 'I' for Inactive)
REMARK    1  A    between atoms: C_6  and  N_7
REMARK    2  A    between atoms: C_11  and  N_12
REMARK                            x       y       z     vdW  Elec       q    Type
REMARK                         _______ _______ _______ _____ _____    ______ ____
ROOT
ATOM      1  N   UNL     1       3.039   7.238  17.862  0.00  0.00    +0.000 N 
ATOM      2  C   UNL     1       2.241   8.240  18.475  0.00  0.00    +0.000 A 
ATOM      3  C   UNL     1       2.002   9.421  17.779  0.00  0.00    +0.000 A 
ATOM      4  C   UNL     1       1.254  10.437  18.383  0.00  0.00    +0.000 A 
ATOM      5  C   UNL     1       0.794  10.311  19.693  0.00  0.00    +0.000 A 
ATOM      6  C   UNL     1       1.104   9.095  20.304  0.00  0.00    +0.000 A 
ATOM      7  N   UNL     1       1.797   8.076  19.736  0.00  0.00    +0.000 NA
ATOM      8  H   UNL     1       2.914   7.286  16.855  0.00  0.00    +0.000 HD
ENDROOT
BRANCH   1  14
ATOM      9  C   UNL     1       1.910   5.040  17.868  0.00  0.00    +0.000 A 
ATOM     10  C   UNL     1       1.902   3.675  18.158  0.00  0.00    +0.000 A 
ATOM     11  C   UNL     1       3.005   3.158  18.797  0.00  0.00    +0.000 A 
ATOM     12  C   UNL     1       4.087   3.942  19.121  0.00  0.00    +0.000 A 
ATOM     13  C   UNL     1       4.127   5.290  18.833  0.00  0.00    +0.000 A 
ATOM     14  C   UNL     1       2.998   5.866  18.233  0.00  0.00    +0.000 A 
ATOM     15  O   UNL     1       5.073   3.229  19.735  0.00  0.00    +0.000 OA
ATOM     16  C   UNL     1       4.456   1.927  19.812  0.00  0.00    +0.000 C 
ATOM     17  O   UNL     1       3.169   1.859  19.167  0.00  0.00    +0.000 OA
ENDBRANCH   1  14
BRANCH   5  18
ATOM     18  N   UNL     1       0.080  11.299  20.366  0.00  0.00    +0.000 N 
ATOM     19  C   UNL     1       0.695  12.623  20.602  0.00  0.00    +0.000 C 
ATOM     20  C   UNL     1      -0.197  13.787  20.117  0.00  0.00    +0.000 C 
ATOM     21  C   UNL     1      -1.581  13.795  20.803  0.00  0.00    +0.000 C 
ATOM     22  C   UNL     1      -1.899  12.719  19.737  0.00  0.00    +0.000 C 
ATOM     23  C   UNL     1      -1.381  11.306  20.103  0.00  0.00    +0.000 C 
ATOM     24  N   UNL     1      -0.936  13.467  18.831  0.00  0.00    +0.000 NA
ATOM     25  H   UNL     1      -1.355  14.289  18.396  0.00  0.00    +0.000 HD
ENDBRANCH   5  18
TORSDOF 2
ENDMDL
MODEL 3
REMARK VINA RESULT:      -7.5      0.863      1.237
REMARK  Name = 
REMARK  2 active torsions:
REMARK  status: ('A' for Active; 'I' for Inactive)
REMARK    1  A    between atoms: C_6  and  N_7
REMARK    2  A    between atoms: C_11  and  N_12
REMARK                            x       y       z     vdW  Elec       q    Type
REMARK                         _______ _______ _______ _____ _____    ______ ____
ROOT
ATOM      1  N   UNL     1       3.317   5.775  19.263  0.00  0.00    +0.000 N 
ATOM      2  C   UNL     1       2.636   7.020  19.298  0.00  0.00    +0.000 A 
ATOM      3  C   UNL     1       1.869   7.331  20.415  0.00  0.00    +0.000 A 
ATOM      4  C   UNL     1       1.156   8.535  20.450  0.00  0.00    +0.000 A 
ATOM      5  C   UNL     1       1.155   9.402  19.358  0.00  0.00    +0.000 A 
ATOM      6  C   UNL     1       1.944   8.986  18.284  0.00  0.00    +0.000 A 
ATOM      7  N   UNL     1       2.673   7.843  18.231  0.00  0.00    +0.000 NA
ATOM      8  H   UNL     1       3.564   5.507  20.212  0.00  0.00    +0.000 HD
ENDROOT
BRANCH   1  14
ATOM      9  C   UNL     1       5.751   5.449  18.984  0.00  0.00    +0.000 A 
ATOM     10  C   UNL     1       6.853   5.119  18.194  0.00  0.00    +0.000 A 
ATOM     11  C   UNL     1       6.620   4.844  16.866  0.00  0.00    +0.000 A 
ATOM     12  C   UNL     1       5.353   4.870  16.333  0.00  0.00    +0.000 A 
ATOM     13  C   UNL     1       4.244   5.179  17.094  0.00  0.00    +0.000 A 
ATOM     14  C   UNL     1       4.447   5.520  18.439  0.00  0.00    +0.000 A 
ATOM     15  O   UNL     1       5.346   4.555  15.008  0.00  0.00    +0.000 OA
ATOM     16  C   UNL     1       6.758   4.393  14.762  0.00  0.00    +0.000 C 
ATOM     17  O   UNL     1       7.568   4.516  15.948  0.00  0.00    +0.000 OA
ENDBRANCH   1  14
BRANCH   5  18
ATOM     18  N   UNL     1       0.438  10.594  19.310  0.00  0.00    +0.000 N 
ATOM     19  C   UNL     1      -0.710  10.800  20.220  0.00  0.00    +0.000 C 
ATOM     20  C   UNL     1      -0.606  12.119  21.017  0.00  0.00    +0.000 C 
ATOM     21  C   UNL     1      -0.519  13.359  20.099  0.00  0.00    +0.000 C 
ATOM     22  C   UNL     1       0.971  12.949  20.016  0.00  0.00    +0.000 C 
ATOM     23  C   UNL     1       1.247  11.802  19.012  0.00  0.00    +0.000 C 
ATOM     24  N   UNL     1       0.814  12.443  21.439  0.00  0.00    +0.000 NA
ATOM     25  H   UNL     1       0.866  13.187  22.134  0.00  0.00    +0.000 HD
ENDBRANCH   5  18
TORSDOF 2
ENDMDL
MODEL 4
REMARK VINA RESULT:      -7.5      1.110      1.749
REMARK  Name = 
REMARK  2 active torsions:
REMARK  status: ('A' for Active; 'I' for Inactive)
REMARK    1  A    between atoms: C_6  and  N_7
REMARK    2  A    between atoms: C_11  and  N_12
REMARK                            x       y       z     vdW  Elec       q    Type
REMARK                         _______ _______ _______ _____ _____    ______ ____
ROOT
ATOM      1  N   UNL     1       2.431   5.707  19.897  0.00  0.00    +0.000 N 
ATOM      2  C   UNL     1       1.967   7.047  19.983  0.00  0.00    +0.000 A 
ATOM      3  C   UNL     1       1.293   7.448  21.132  0.00  0.00    +0.000 A 
ATOM      4  C   UNL     1       0.792   8.751  21.218  0.00  0.00    +0.000 A 
ATOM      5  C   UNL     1       0.904   9.637  20.148  0.00  0.00    +0.000 A 
ATOM      6  C   UNL     1       1.583   9.128  19.039  0.00  0.00    +0.000 A 
ATOM      7  N   UNL     1       2.110   7.882  18.935  0.00  0.00    +0.000 NA
ATOM      8  H   UNL     1       2.656   5.375  20.830  0.00  0.00    +0.000 HD
ENDROOT
BRANCH   1  14
ATOM      9  C   UNL     1       3.224   4.947  17.684  0.00  0.00    +0.000 A 
ATOM     10  C   UNL     1       4.259   4.618  16.807  0.00  0.00    +0.000 A 
ATOM     11  C   UNL     1       5.543   4.663  17.300  0.00  0.00    +0.000 A 
ATOM     12  C   UNL     1       5.808   5.037  18.596  0.00  0.00    +0.000 A 
ATOM     13  C   UNL     1       4.805   5.381  19.479  0.00  0.00    +0.000 A 
ATOM     14  C   UNL     1       3.479   5.293  19.031  0.00  0.00    +0.000 A 
ATOM     15  O   UNL     1       7.142   5.026  18.871  0.00  0.00    +0.000 OA
ATOM     16  C   UNL     1       7.672   4.543  17.619  0.00  0.00    +0.000 C 
ATOM     17  O   UNL     1       6.669   4.367  16.598  0.00  0.00    +0.000 OA
ENDBRANCH   1  14
BRANCH   5  18
ATOM     18  N   UNL     1       0.393  10.933  20.152  0.00  0.00    +0.000 N 
ATOM     19  C   UNL     1       1.270  12.070  20.504  0.00  0.00    +0.000 C 
ATOM     20  C   UNL     1       1.245  13.191  19.442  0.00  0.00    +0.000 C 
ATOM     21  C   UNL     1      -0.174  13.758  19.215  0.00  0.00    +0.000 C 
ATOM     22  C   UNL     1      -0.320  12.504  18.321  0.00  0.00    +0.000 C 
ATOM     23  C   UNL     1      -0.628  11.208  19.111  0.00  0.00    +0.000 C 
ATOM     24  N   UNL     1       1.161  12.658  18.024  0.00  0.00    +0.000 NA
ATOM     25  H   UNL     1       1.355  13.367  17.318  0.00  0.00    +0.000 HD
ENDBRANCH   5  18
TORSDOF 2
ENDMDL
MODEL 5
REMARK VINA RESULT:      -7.4      1.261      2.198
REMARK  Name = 
REMARK  2 active torsions:
REMARK  status: ('A' for Active; 'I' for Inactive)
REMARK    1  A    between atoms: C_6  and  N_7
REMARK    2  A    between atoms: C_11  and  N_12
REMARK                            x       y       z     vdW  Elec       q    Type
REMARK                         _______ _______ _______ _____ _____    ______ ____
ROOT
ATOM      1  N   UNL     1       2.616   5.880  19.880  0.00  0.00    +0.000 N 
ATOM      2  C   UNL     1       2.121   7.209  19.803  0.00  0.00    +0.000 A 
ATOM      3  C   UNL     1       1.478   7.747  20.913  0.00  0.00    +0.000 A 
ATOM      4  C   UNL     1       0.946   9.040  20.842  0.00  0.00    +0.000 A 
ATOM      5  C   UNL     1       0.996   9.775  19.659  0.00  0.00    +0.000 A 
ATOM      6  C   UNL     1       1.648   9.134  18.603  0.00  0.00    +0.000 A 
ATOM      7  N   UNL     1       2.204   7.897  18.647  0.00  0.00    +0.000 NA
ATOM      8  H   UNL     1       2.884   5.683  20.840  0.00  0.00    +0.000 HD
ENDROOT
BRANCH   1  14
ATOM      9  C   UNL     1       3.357   4.898  17.737  0.00  0.00    +0.000 A 
ATOM     10  C   UNL     1       4.371   4.476  16.875  0.00  0.00    +0.000 A 
ATOM     11  C   UNL     1       5.665   4.562  17.333  0.00  0.00    +0.000 A 
ATOM     12  C   UNL     1       5.961   5.062  18.579  0.00  0.00    +0.000 A 
ATOM     13  C   UNL     1       4.979   5.498  19.445  0.00  0.00    +0.000 A 
ATOM     14  C   UNL     1       3.643   5.375  19.037  0.00  0.00    +0.000 A 
ATOM     15  O   UNL     1       7.301   5.070  18.826  0.00  0.00    +0.000 OA
ATOM     16  C   UNL     1       7.801   4.461  17.616  0.00  0.00    +0.000 C 
ATOM     17  O   UNL     1       6.775   4.190  16.640  0.00  0.00    +0.000 OA
ENDBRANCH   1  14
BRANCH   5  18
ATOM     18  N   UNL     1       0.452  11.047  19.509  0.00  0.00    +0.000 N 
ATOM     19  C   UNL     1      -0.922  11.205  18.985  0.00  0.00    +0.000 C 
ATOM     20  C   UNL     1      -1.808  12.080  19.898  0.00  0.00    +0.000 C 
ATOM     21  C   UNL     1      -1.229  13.498  20.100  0.00  0.00    +0.000 C 
ATOM     22  C   UNL     1      -0.350  12.777  21.150  0.00  0.00    +0.000 C 
ATOM     23  C   UNL     1       0.863  12.031  20.541  0.00  0.00    +0.000 C 
ATOM     24  N   UNL     1      -1.538  11.857  21.373  0.00  0.00    +0.000 NA
ATOM     25  H   UNL     1      -2.250  12.265  21.977  0.00  0.00    +0.000 HD
ENDBRANCH   5  18
TORSDOF 2
ENDMDL
MODEL 6
REMARK VINA RESULT:      -7.4      2.446      2.982
REMARK  Name = 
REMARK  2 active torsions:
REMARK  status: ('A' for Active; 'I' for Inactive)
REMARK    1  A    between atoms: C_6  and  N_7
REMARK    2  A    between atoms: C_11  and  N_12
REMARK                            x       y       z     vdW  Elec       q    Type
REMARK                         _______ _______ _______ _____ _____    ______ ____
ROOT
ATOM      1  N   UNL     1       3.295   7.446  17.790  0.00  0.00    +0.000 N 
ATOM      2  C   UNL     1       2.270   8.181  18.442  0.00  0.00    +0.000 A 
ATOM      3  C   UNL     1       1.707   9.269  17.783  0.00  0.00    +0.000 A 
ATOM      4  C   UNL     1       0.725  10.032  18.425  0.00  0.00    +0.000 A 
ATOM      5  C   UNL     1       0.343   9.756  19.737  0.00  0.00    +0.000 A 
ATOM      6  C   UNL     1       0.982   8.654  20.309  0.00  0.00    +0.000 A 
ATOM      7  N   UNL     1       1.913   7.874  19.704  0.00  0.00    +0.000 NA
ATOM      8  H   UNL     1       3.141   7.483  16.787  0.00  0.00    +0.000 HD
ENDROOT
BRANCH   1  14
ATOM      9  C   UNL     1       4.785   5.809  18.887  0.00  0.00    +0.000 A 
ATOM     10  C   UNL     1       5.079   4.504  19.285  0.00  0.00    +0.000 A 
ATOM     11  C   UNL     1       4.191   3.517  18.922  0.00  0.00    +0.000 A 
ATOM     12  C   UNL     1       3.047   3.798  18.214  0.00  0.00    +0.000 A 
ATOM     13  C   UNL     1       2.726   5.081  17.820  0.00  0.00    +0.000 A 
ATOM     14  C   UNL     1       3.633   6.107  18.123  0.00  0.00    +0.000 A 
ATOM     15  O   UNL     1       2.305   2.682  17.971  0.00  0.00    +0.000 OA
ATOM     16  C   UNL     1       3.148   1.666  18.554  0.00  0.00    +0.000 C 
ATOM     17  O   UNL     1       4.318   2.195  19.211  0.00  0.00    +0.000 OA
ENDBRANCH   1  14
BRANCH   5  18
ATOM     18  N   UNL     1      -0.597  10.498  20.448  0.00  0.00    +0.000 N 
ATOM     19  C   UNL     1      -0.587  10.478  21.927  0.00  0.00    +0.000 C 
ATOM     20  C   UNL     1      -0.558  11.895  22.540  0.00  0.00    +0.000 C 
ATOM     21  C   UNL     1      -1.765  12.753  22.100  0.00  0.00    +0.000 C 
ATOM     22  C   UNL     1      -0.903  12.965  20.832  0.00  0.00    +0.000 C 
ATOM     23  C   UNL     1      -0.976  11.790  19.825  0.00  0.00    +0.000 C 
ATOM     24  N   UNL     1       0.303  12.862  21.749  0.00  0.00    +0.000 NA
ATOM     25  H   UNL     1       0.497  13.727  22.252  0.00  0.00    +0.000 HD
ENDBRANCH   5  18
TORSDOF 2
ENDMDL
MODEL 7
REMARK VINA RESULT:      -7.4      4.126      8.475
REMARK  Name = 
REMARK  2 active torsions:
REMARK  status: ('A' for Active; 'I' for Inactive)
REMARK    1  A    between atoms: C_6  and  N_7
REMARK    2  A    between atoms: C_11  and  N_12
REMARK                            x       y       z     vdW  Elec       q    Type
REMARK                         _______ _______ _______ _____ _____    ______ ____
ROOT
ATOM      1  N   UNL     1       1.587   7.531  21.116  0.00  0.00    +0.000 N 
ATOM      2  C   UNL     1       2.230   7.018  19.959  0.00  0.00    +0.000 A 
ATOM      3  C   UNL     1       2.518   5.659  19.903  0.00  0.00    +0.000 A 
ATOM      4  C   UNL     1       3.189   5.141  18.790  0.00  0.00    +0.000 A 
ATOM      5  C   UNL     1       3.627   5.975  17.762  0.00  0.00    +0.000 A 
ATOM      6  C   UNL     1       3.300   7.322  17.927  0.00  0.00    +0.000 A 
ATOM      7  N   UNL     1       2.622   7.852  18.976  0.00  0.00    +0.000 NA
ATOM      8  H   UNL     1       0.990   6.810  21.510  0.00  0.00    +0.000 HD
ENDROOT
BRANCH   1  14
ATOM      9  C   UNL     1       0.468   9.389  19.932  0.00  0.00    +0.000 A 
ATOM     10  C   UNL     1      -0.321  10.540  19.940  0.00  0.00    +0.000 A 
ATOM     11  C   UNL     1      -0.729  11.018  21.164  0.00  0.00    +0.000 A 
ATOM     12  C   UNL     1      -0.396  10.383  22.337  0.00  0.00    +0.000 A 
ATOM     13  C   UNL     1       0.371   9.236  22.356  0.00  0.00    +0.000 A 
ATOM     14  C   UNL     1       0.853   8.749  21.133  0.00  0.00    +0.000 A 
ATOM     15  O   UNL     1      -0.911  11.014  23.428  0.00  0.00    +0.000 OA
ATOM     16  C   UNL     1      -1.550  12.149  22.806  0.00  0.00    +0.000 C 
ATOM     17  O   UNL     1      -1.490  12.127  21.366  0.00  0.00    +0.000 OA
ENDBRANCH   1  14
BRANCH   5  18
ATOM     18  N   UNL     1       4.334   5.532  16.647  0.00  0.00    +0.000 N 
ATOM     19  C   UNL     1       5.527   6.276  16.188  0.00  0.00    +0.000 C 
ATOM     20  C   UNL     1       6.766   5.368  16.024  0.00  0.00    +0.000 C 
ATOM     21  C   UNL     1       6.528   4.218  15.021  0.00  0.00    +0.000 C 
ATOM     22  C   UNL     1       5.841   3.558  16.241  0.00  0.00    +0.000 C 
ATOM     23  C   UNL     1       4.396   4.058  16.488  0.00  0.00    +0.000 C 
ATOM     24  N   UNL     1       6.858   4.297  17.094  0.00  0.00    +0.000 NA
ATOM     25  H   UNL     1       7.766   3.835  17.121  0.00  0.00    +0.000 HD
ENDBRANCH   5  18
TORSDOF 2
ENDMDL
MODEL 8
REMARK VINA RESULT:      -7.3      3.327      4.156
REMARK  Name = 
REMARK  2 active torsions:
REMARK  status: ('A' for Active; 'I' for Inactive)
REMARK    1  A    between atoms: C_6  and  N_7
REMARK    2  A    between atoms: C_11  and  N_12
REMARK                            x       y       z     vdW  Elec       q    Type
REMARK                         _______ _______ _______ _____ _____    ______ ____
ROOT
ATOM      1  N   UNL     1       2.689   6.961  18.205  0.00  0.00    +0.000 N 
ATOM      2  C   UNL     1       2.103   8.186  18.620  0.00  0.00    +0.000 A 
ATOM      3  C   UNL     1       2.200   9.291  17.780  0.00  0.00    +0.000 A 
ATOM      4  C   UNL     1       1.666  10.518  18.190  0.00  0.00    +0.000 A 
ATOM      5  C   UNL     1       1.091  10.667  19.451  0.00  0.00    +0.000 A 
ATOM      6  C   UNL     1       1.061   9.501  20.218  0.00  0.00    +0.000 A 
ATOM      7  N   UNL     1       1.539   8.289  19.839  0.00  0.00    +0.000 NA
ATOM      8  H   UNL     1       2.656   6.906  17.191  0.00  0.00    +0.000 HD
ENDROOT
BRANCH   1  14
ATOM      9  C   UNL     1       1.888   4.650  17.853  0.00  0.00    +0.000 A 
ATOM     10  C   UNL     1       1.584   3.378  18.340  0.00  0.00    +0.000 A 
ATOM     11  C   UNL     1       1.721   3.171  19.694  0.00  0.00    +0.000 A 
ATOM     12  C   UNL     1       2.160   4.163  20.537  0.00  0.00    +0.000 A 
ATOM     13  C   UNL     1       2.481   5.425  20.079  0.00  0.00    +0.000 A 
ATOM     14  C   UNL     1       2.301   5.692  18.715  0.00  0.00    +0.000 A 
ATOM     15  O   UNL     1       2.236   3.743  21.831  0.00  0.00    +0.000 OA
ATOM     16  C   UNL     1       1.734   2.395  21.705  0.00  0.00    +0.000 C 
ATOM     17  O   UNL     1       1.462   2.005  20.345  0.00  0.00    +0.000 OA
ENDBRANCH   1  14
BRANCH   5  18
ATOM     18  N   UNL     1       0.578  11.867  19.937  0.00  0.00    +0.000 N 
ATOM     19  C   UNL     1       1.134  13.152  19.461  0.00  0.00    +0.000 C 
ATOM     20  C   UNL     1       0.044  14.114  18.940  0.00  0.00    +0.000 C 
ATOM     21  C   UNL     1      -1.018  14.441  20.014  0.00  0.00    +0.000 C 
ATOM     22  C   UNL     1      -1.599  13.075  19.576  0.00  0.00    +0.000 C 
ATOM     23  C   UNL     1      -0.880  11.860  20.213  0.00  0.00    +0.000 C 
ATOM     24  N   UNL     1      -1.065  13.398  18.191  0.00  0.00    +0.000 NA
ATOM     25  H   UNL     1      -1.669  14.032  17.669  0.00  0.00    +0.000 HD
ENDBRANCH   5  18
TORSDOF 2
ENDMDL
MODEL 9
REMARK VINA RESULT:      -7.2      2.634      3.540
REMARK  Name = 
REMARK  2 active torsions:
REMARK  status: ('A' for Active; 'I' for Inactive)
REMARK    1  A    between atoms: C_6  and  N_7
REMARK    2  A    between atoms: C_11  and  N_12
REMARK                            x       y       z     vdW  Elec       q    Type
REMARK                         _______ _______ _______ _____ _____    ______ ____
ROOT
ATOM      1  N   UNL     1       2.508   7.189  18.016  0.00  0.00    +0.000 N 
ATOM      2  C   UNL     1       1.944   8.140  18.907  0.00  0.00    +0.000 A 
ATOM      3  C   UNL     1       1.484   9.347  18.391  0.00  0.00    +0.000 A 
ATOM      4  C   UNL     1       0.963  10.314  19.258  0.00  0.00    +0.000 A 
ATOM      5  C   UNL     1       0.952  10.113  20.637  0.00  0.00    +0.000 A 
ATOM      6  C   UNL     1       1.452   8.876  21.048  0.00  0.00    +0.000 A 
ATOM      7  N   UNL     1       1.932   7.903  20.233  0.00  0.00    +0.000 NA
ATOM      8  H   UNL     1       2.064   7.284  17.107  0.00  0.00    +0.000 HD
ENDROOT
BRANCH   1  14
ATOM      9  C   UNL     1       1.594   4.897  17.888  0.00  0.00    +0.000 A 
ATOM     10  C   UNL     1       1.717   3.523  18.097  0.00  0.00    +0.000 A 
ATOM     11  C   UNL     1       2.867   3.077  18.708  0.00  0.00    +0.000 A 
ATOM     12  C   UNL     1       3.870   3.940  19.081  0.00  0.00    +0.000 A 
ATOM     13  C   UNL     1       3.780   5.301  18.873  0.00  0.00    +0.000 A 
ATOM     14  C   UNL     1       2.599   5.801  18.305  0.00  0.00    +0.000 A 
ATOM     15  O   UNL     1       4.921   3.290  19.654  0.00  0.00    +0.000 OA
ATOM     16  C   UNL     1       4.432   1.932  19.652  0.00  0.00    +0.000 C 
ATOM     17  O   UNL     1       3.155   1.780  19.000  0.00  0.00    +0.000 OA
ENDBRANCH   1  14
BRANCH   5  18
ATOM     18  N   UNL     1       0.486  11.048  21.558  0.00  0.00    +0.000 N 
ATOM     19  C   UNL     1       0.439  12.481  21.194  0.00  0.00    +0.000 C 
ATOM     20  C   UNL     1      -0.949  13.110  21.438  0.00  0.00    +0.000 C 
ATOM     21  C   UNL     1      -1.400  12.996  22.911  0.00  0.00    +0.000 C 
ATOM     22  C   UNL     1      -1.799  11.566  22.474  0.00  0.00    +0.000 C 
ATOM     23  C   UNL     1      -0.612  10.572  22.435  0.00  0.00    +0.000 C 
ATOM     24  N   UNL     1      -2.091  12.166  21.110  0.00  0.00    +0.000 NA
ATOM     25  H   UNL     1      -2.996  12.633  21.065  0.00  0.00    +0.000 HD
ENDBRANCH   5  18
TORSDOF 2
ENDMDL
