MODEL 1
REMARK VINA RESULT:      -6.3      0.000      0.000
REMARK  Name = 
REMARK  13 active torsions:
REMARK  status: ('A' for Active; 'I' for Inactive)
REMARK    1  A    between atoms: C_1  and  C_2
REMARK    2  A    between atoms: C_2  and  O_3
REMARK    3  A    between atoms: O_3  and  C_4
REMARK    4  A    between atoms: C_4  and  C_6
REMARK    5  A    between atoms: C_6  and  C_7
REMARK    6  A    between atoms: C_8  and  N_9
REMARK    7  A    between atoms: N_13  and  C_14
REMARK    8  A    between atoms: C_14  and  C_15
REMARK    9  A    between atoms: C_15  and  O_16
REMARK   10  A    between atoms: O_16  and  C_17
REMARK   11  A    between atoms: C_17  and  P_18
REMARK   12  A    between atoms: P_18  and  O_20
REMARK   13  A    between atoms: P_18  and  O_21
REMARK                            x       y       z     vdW  Elec       q    Type
REMARK                         _______ _______ _______ _____ _____    ______ ____
ROOT
ATOM      1  C   UNL     1       5.152   4.577  17.210  0.00  0.00    +0.000 A 
ATOM      2  C   UNL     1       5.914   4.659  18.315  0.00  0.00    +0.000 A 
ATOM      3  N   UNL     1       5.687   3.894  19.422  0.00  0.00    +0.000 NA
ATOM      4  C   UNL     1       4.743   3.001  19.411  0.00  0.00    +0.000 A 
ATOM      5  N   UNL     1       4.605   2.257  20.543  0.00  0.00    +0.000 N 
ATOM      6  N   UNL     1       3.906   2.815  18.337  0.00  0.00    +0.000 N 
ATOM      7  C   UNL     1       4.025   3.621  17.219  0.00  0.00    +0.000 A 
ATOM      8  O   UNL     1       3.247   3.592  16.264  0.00  0.00    +0.000 OA
ATOM      9  H   UNL     1       5.135   2.646  21.317  0.00  0.00    +0.000 HD
ATOM     10  H   UNL     1       3.689   1.937  20.813  0.00  0.00    +0.000 HD
ENDROOT
BRANCH   2  11
ATOM     11  N   UNL     1       6.959   5.559  18.389  0.00  0.00    +0.000 N 
ATOM     12  H   UNL     1       6.782   6.405  17.852  0.00  0.00    +0.000 HD
ATOM     13  H   UNL     1       7.106   5.788  19.371  0.00  0.00    +0.000 HD
ENDBRANCH   2  11
BRANCH   1  14
ATOM     14  C   UNL     1       5.352   5.372  15.947  0.00  0.00    +0.000 C 
BRANCH  14  15
ATOM     15  C   UNL     1       6.439   4.701  15.144  0.00  0.00    +0.000 C 
ATOM     16  O   UNL     1       7.637   4.921  15.293  0.00  0.00    +0.000 OA
BRANCH  15  17
ATOM     17  O   UNL     1       5.902   3.874  14.203  0.00  0.00    +0.000 OA
BRANCH  17  19
ATOM     18  C   UNL     1       5.883   2.922  12.024  0.00  0.00    +0.000 C 
ATOM     19  C   UNL     1       6.455   4.019  12.888  0.00  0.00    +0.000 C 
ENDBRANCH  17  19
ENDBRANCH  15  17
ENDBRANCH  14  15
ENDBRANCH   1  14
BRANCH   6  20
ATOM     20  C   UNL     1       2.874   1.781  18.309  0.00  0.00    +0.000 C 
BRANCH  20  21
ATOM     21  C   UNL     1       1.494   2.296  18.736  0.00  0.00    +0.000 C 
BRANCH  21  22
ATOM     22  O   UNL     1       1.414   2.497  20.154  0.00  0.00    +0.000 OA
BRANCH  22  23
ATOM     23  C   UNL     1       0.772   3.749  20.439  0.00  0.00    +0.000 C 
BRANCH  23  24
ATOM     24  P   UNL     1       2.000   5.097  20.288  0.00  0.00    +0.000 P 
ATOM     25  O   UNL     1       0.946   6.121  20.721  0.00  0.00    +0.000 OA
BRANCH  24  26
ATOM     26  O   UNL     1       2.714   4.577  21.664  0.00  0.00    +0.000 OA
ATOM     27  H   UNL     1       3.685   4.528  21.532  0.00  0.00    +0.000 HD
ENDBRANCH  24  26
BRANCH  24  28
ATOM     28  O   UNL     1       3.160   6.372  20.145  0.00  0.00    +0.000 OA
ATOM     29  H   UNL     1       3.407   6.347  19.198  0.00  0.00    +0.000 HD
ENDBRANCH  24  28
ENDBRANCH  23  24
ENDBRANCH  22  23
ENDBRANCH  21  22
ENDBRANCH  20  21
ENDBRANCH   6  20
TORSDOF 12
ENDMDL
MODEL 2
REMARK VINA RESULT:      -6.2      2.473      3.110
REMARK  Name = 
REMARK  13 active torsions:
REMARK  status: ('A' for Active; 'I' for Inactive)
REMARK    1  A    between atoms: C_1  and  C_2
REMARK    2  A    between atoms: C_2  and  O_3
REMARK    3  A    between atoms: O_3  and  C_4
REMARK    4  A    between atoms: C_4  and  C_6
REMARK    5  A    between atoms: C_6  and  C_7
REMARK    6  A    between atoms: C_8  and  N_9
REMARK    7  A    between atoms: N_13  and  C_14
REMARK    8  A    between atoms: C_14  and  C_15
REMARK    9  A    between atoms: C_15  and  O_16
REMARK   10  A    between atoms: O_16  and  C_17
REMARK   11  A    between atoms: C_17  and  P_18
REMARK   12  A    between atoms: P_18  and  O_20
REMARK   13  A    between atoms: P_18  and  O_21
REMARK                            x       y       z     vdW  Elec       q    Type
REMARK                         _______ _______ _______ _____ _____    ______ ____
ROOT
ATOM      1  C   UNL     1       6.019   6.059  17.857  0.00  0.00    +0.000 A 
ATOM      2  C   UNL     1       6.260   5.578  19.089  0.00  0.00    +0.000 A 
ATOM      3  N   UNL     1       5.261   5.304  19.978  0.00  0.00    +0.000 NA
ATOM      4  C   UNL     1       4.020   5.449  19.625  0.00  0.00    +0.000 A 
ATOM      5  N   UNL     1       3.085   5.123  20.559  0.00  0.00    +0.000 N 
ATOM      6  N   UNL     1       3.647   5.922  18.389  0.00  0.00    +0.000 N 
ATOM      7  C   UNL     1       4.613   6.304  17.474  0.00  0.00    +0.000 A 
ATOM      8  O   UNL     1       4.363   6.838  16.393  0.00  0.00    +0.000 OA
ATOM      9  H   UNL     1       3.498   5.001  21.479  0.00  0.00    +0.000 HD
ATOM     10  H   UNL     1       2.213   5.626  20.581  0.00  0.00    +0.000 HD
ENDROOT
BRANCH   2  11
ATOM     11  N   UNL     1       7.553   5.363  19.526  0.00  0.00    +0.000 N 
ATOM     12  H   UNL     1       8.243   5.821  18.934  0.00  0.00    +0.000 HD
ATOM     13  H   UNL     1       7.621   5.708  20.482  0.00  0.00    +0.000 HD
ENDBRANCH   2  11
BRANCH   1  14
ATOM     14  C   UNL     1       7.064   6.366  16.817  0.00  0.00    +0.000 C 
BRANCH  14  15
ATOM     15  C   UNL     1       7.342   5.096  16.051  0.00  0.00    +0.000 C 
ATOM     16  O   UNL     1       7.976   4.148  16.502  0.00  0.00    +0.000 OA
BRANCH  15  17
ATOM     17  O   UNL     1       6.846   5.180  14.784  0.00  0.00    +0.000 OA
BRANCH  17  19
ATOM     18  C   UNL     1       6.241   3.761  12.974  0.00  0.00    +0.000 C 
ATOM     19  C   UNL     1       5.959   4.116  14.413  0.00  0.00    +0.000 C 
ENDBRANCH  17  19
ENDBRANCH  15  17
ENDBRANCH  14  15
ENDBRANCH   1  14
BRANCH   6  20
ATOM     20  C   UNL     1       2.250   6.042  17.977  0.00  0.00    +0.000 C 
BRANCH  20  21
ATOM     21  C   UNL     1       1.577   4.687  17.727  0.00  0.00    +0.000 C 
BRANCH  21  22
ATOM     22  O   UNL     1       2.447   3.777  17.040  0.00  0.00    +0.000 OA
BRANCH  22  23
ATOM     23  C   UNL     1       2.368   2.474  17.636  0.00  0.00    +0.000 C 
BRANCH  23  24
ATOM     24  P   UNL     1       3.784   2.251  18.772  0.00  0.00    +0.000 P 
ATOM     25  O   UNL     1       3.715   0.733  18.578  0.00  0.00    +0.000 OA
BRANCH  24  26
ATOM     26  O   UNL     1       4.786   2.808  17.606  0.00  0.00    +0.000 OA
ATOM     27  H   UNL     1       4.324   2.788  16.740  0.00  0.00    +0.000 HD
ENDBRANCH  24  26
BRANCH  24  28
ATOM     28  O   UNL     1       5.122   2.039  19.847  0.00  0.00    +0.000 OA
ATOM     29  H   UNL     1       5.355   1.094  19.735  0.00  0.00    +0.000 HD
ENDBRANCH  24  28
ENDBRANCH  23  24
ENDBRANCH  22  23
ENDBRANCH  21  22
ENDBRANCH  20  21
ENDBRANCH   6  20
TORSDOF 12
ENDMDL
MODEL 3
REMARK VINA RESULT:      -6.1      2.698      6.700
REMARK  Name = 
REMARK  13 active torsions:
REMARK  status: ('A' for Active; 'I' for Inactive)
REMARK    1  A    between atoms: C_1  and  C_2
REMARK    2  A    between atoms: C_2  and  O_3
REMARK    3  A    between atoms: O_3  and  C_4
REMARK    4  A    between atoms: C_4  and  C_6
REMARK    5  A    between atoms: C_6  and  C_7
REMARK    6  A    between atoms: C_8  and  N_9
REMARK    7  A    between atoms: N_13  and  C_14
REMARK    8  A    between atoms: C_14  and  C_15
REMARK    9  A    between atoms: C_15  and  O_16
REMARK   10  A    between atoms: O_16  and  C_17
REMARK   11  A    between atoms: C_17  and  P_18
REMARK   12  A    between atoms: P_18  and  O_20
REMARK   13  A    between atoms: P_18  and  O_21
REMARK                            x       y       z     vdW  Elec       q    Type
REMARK                         _______ _______ _______ _____ _____    ______ ____
ROOT
ATOM      1  C   UNL     1       3.487   4.976  18.322  0.00  0.00    +0.000 A 
ATOM      2  C   UNL     1       3.872   5.508  19.495  0.00  0.00    +0.000 A 
ATOM      3  N   UNL     1       5.184   5.615  19.857  0.00  0.00    +0.000 NA
ATOM      4  C   UNL     1       6.118   5.254  19.029  0.00  0.00    +0.000 A 
ATOM      5  N   UNL     1       7.400   5.426  19.453  0.00  0.00    +0.000 N 
ATOM      6  N   UNL     1       5.849   4.709  17.796  0.00  0.00    +0.000 N 
ATOM      7  C   UNL     1       4.540   4.488  17.407  0.00  0.00    +0.000 A 
ATOM      8  O   UNL     1       4.220   3.905  16.370  0.00  0.00    +0.000 OA
ATOM      9  H   UNL     1       7.444   5.628  20.447  0.00  0.00    +0.000 HD
ATOM     10  H   UNL     1       8.110   4.780  19.150  0.00  0.00    +0.000 HD
ENDROOT
BRANCH   2  11
ATOM     11  N   UNL     1       2.940   5.947  20.415  0.00  0.00    +0.000 N 
ATOM     12  H   UNL     1       2.371   6.711  20.056  0.00  0.00    +0.000 HD
ATOM     13  H   UNL     1       2.351   5.155  20.666  0.00  0.00    +0.000 HD
ENDBRANCH   2  11
BRANCH   1  14
ATOM     14  C   UNL     1       2.065   4.842  17.846  0.00  0.00    +0.000 C 
BRANCH  14  15
ATOM     15  C   UNL     1       1.510   3.554  18.403  0.00  0.00    +0.000 C 
ATOM     16  O   UNL     1       1.501   2.490  17.793  0.00  0.00    +0.000 OA
BRANCH  15  17
ATOM     17  O   UNL     1       0.973   3.756  19.640  0.00  0.00    +0.000 OA
BRANCH  17  19
ATOM     18  C   UNL     1       2.138   2.848  21.504  0.00  0.00    +0.000 C 
ATOM     19  C   UNL     1       1.024   2.618  20.511  0.00  0.00    +0.000 C 
ENDBRANCH  17  19
ENDBRANCH  15  17
ENDBRANCH  14  15
ENDBRANCH   1  14
BRANCH   6  20
ATOM     20  C   UNL     1       6.900   4.344  16.848  0.00  0.00    +0.000 C 
BRANCH  20  21
ATOM     21  C   UNL     1       7.259   5.479  15.881  0.00  0.00    +0.000 C 
BRANCH  21  22
ATOM     22  O   UNL     1       7.497   4.995  14.552  0.00  0.00    +0.000 OA
BRANCH  22  23
ATOM     23  C   UNL     1       6.264   4.929  13.822  0.00  0.00    +0.000 C 
BRANCH  23  24
ATOM     24  P   UNL     1       6.276   3.437  12.763  0.00  0.00    +0.000 P 
ATOM     25  O   UNL     1       4.830   3.713  12.340  0.00  0.00    +0.000 OA
BRANCH  24  26
ATOM     26  O   UNL     1       7.218   4.231  11.687  0.00  0.00    +0.000 OA
ATOM     27  H   UNL     1       6.981   5.183  11.682  0.00  0.00    +0.000 HD
ENDBRANCH  24  26
BRANCH  24  28
ATOM     28  O   UNL     1       6.287   2.027  11.761  0.00  0.00    +0.000 OA
ATOM     29  H   UNL     1       5.463   2.115  11.239  0.00  0.00    +0.000 HD
ENDBRANCH  24  28
ENDBRANCH  23  24
ENDBRANCH  22  23
ENDBRANCH  21  22
ENDBRANCH  20  21
ENDBRANCH   6  20
TORSDOF 12
ENDMDL
MODEL 4
REMARK VINA RESULT:      -6.0      2.243      2.905
REMARK  Name = 
REMARK  13 active torsions:
REMARK  status: ('A' for Active; 'I' for Inactive)
REMARK    1  A    between atoms: C_1  and  C_2
REMARK    2  A    between atoms: C_2  and  O_3
REMARK    3  A    between atoms: O_3  and  C_4
REMARK    4  A    between atoms: C_4  and  C_6
REMARK    5  A    between atoms: C_6  and  C_7
REMARK    6  A    between atoms: C_8  and  N_9
REMARK    7  A    between atoms: N_13  and  C_14
REMARK    8  A    between atoms: C_14  and  C_15
REMARK    9  A    between atoms: C_15  and  O_16
REMARK   10  A    between atoms: O_16  and  C_17
REMARK   11  A    between atoms: C_17  and  P_18
REMARK   12  A    between atoms: P_18  and  O_20
REMARK   13  A    between atoms: P_18  and  O_21
REMARK                            x       y       z     vdW  Elec       q    Type
REMARK                         _______ _______ _______ _____ _____    ______ ____
ROOT
ATOM      1  C   UNL     1       5.693   5.159  16.613  0.00  0.00    +0.000 A 
ATOM      2  C   UNL     1       5.809   6.460  16.928  0.00  0.00    +0.000 A 
ATOM      3  N   UNL     1       4.790   7.174  17.490  0.00  0.00    +0.000 NA
ATOM      4  C   UNL     1       3.677   6.581  17.799  0.00  0.00    +0.000 A 
ATOM      5  N   UNL     1       2.725   7.356  18.388  0.00  0.00    +0.000 N 
ATOM      6  N   UNL     1       3.443   5.252  17.538  0.00  0.00    +0.000 N 
ATOM      7  C   UNL     1       4.401   4.495  16.887  0.00  0.00    +0.000 A 
ATOM      8  O   UNL     1       4.226   3.333  16.519  0.00  0.00    +0.000 OA
ATOM      9  H   UNL     1       2.948   8.344  18.319  0.00  0.00    +0.000 HD
ATOM     10  H   UNL     1       1.752   7.158  18.216  0.00  0.00    +0.000 HD
ENDROOT
BRANCH   2  11
ATOM     11  N   UNL     1       6.975   7.152  16.663  0.00  0.00    +0.000 N 
ATOM     12  H   UNL     1       7.781   6.750  17.136  0.00  0.00    +0.000 HD
ATOM     13  H   UNL     1       7.119   7.149  15.654  0.00  0.00    +0.000 HD
ENDBRANCH   2  11
BRANCH   1  14
ATOM     14  C   UNL     1       6.775   4.303  16.010  0.00  0.00    +0.000 C 
BRANCH  14  15
ATOM     15  C   UNL     1       6.928   4.701  14.563  0.00  0.00    +0.000 C 
ATOM     16  O   UNL     1       7.813   5.438  14.143  0.00  0.00    +0.000 OA
BRANCH  15  17
ATOM     17  O   UNL     1       5.918   4.178  13.811  0.00  0.00    +0.000 OA
BRANCH  17  19
ATOM     18  C   UNL     1       5.099   3.077  11.868  0.00  0.00    +0.000 C 
ATOM     19  C   UNL     1       6.330   3.610  12.560  0.00  0.00    +0.000 C 
ENDBRANCH  17  19
ENDBRANCH  15  17
ENDBRANCH  14  15
ENDBRANCH   1  14
BRANCH   6  20
ATOM     20  C   UNL     1       2.207   4.576  17.927  0.00  0.00    +0.000 C 
BRANCH  20  21
ATOM     21  C   UNL     1       2.007   4.511  19.446  0.00  0.00    +0.000 C 
BRANCH  21  22
ATOM     22  O   UNL     1       1.871   3.161  19.911  0.00  0.00    +0.000 OA
BRANCH  22  23
ATOM     23  C   UNL     1       2.783   2.304  19.209  0.00  0.00    +0.000 C 
BRANCH  23  24
ATOM     24  P   UNL     1       4.152   1.842  20.331  0.00  0.00    +0.000 P 
ATOM     25  O   UNL     1       4.991   3.011  19.806  0.00  0.00    +0.000 OA
BRANCH  24  26
ATOM     26  O   UNL     1       3.296   2.435  21.592  0.00  0.00    +0.000 OA
ATOM     27  H   UNL     1       2.366   2.126  21.531  0.00  0.00    +0.000 HD
ENDBRANCH  24  26
BRANCH  24  28
ATOM     28  O   UNL     1       5.448   1.407  21.391  0.00  0.00    +0.000 OA
ATOM     29  H   UNL     1       6.249   1.621  20.869  0.00  0.00    +0.000 HD
ENDBRANCH  24  28
ENDBRANCH  23  24
ENDBRANCH  22  23
ENDBRANCH  21  22
ENDBRANCH  20  21
ENDBRANCH   6  20
TORSDOF 12
ENDMDL
MODEL 5
REMARK VINA RESULT:      -5.8      2.537      6.370
REMARK  Name = 
REMARK  13 active torsions:
REMARK  status: ('A' for Active; 'I' for Inactive)
REMARK    1  A    between atoms: C_1  and  C_2
REMARK    2  A    between atoms: C_2  and  O_3
REMARK    3  A    between atoms: O_3  and  C_4
REMARK    4  A    between atoms: C_4  and  C_6
REMARK    5  A    between atoms: C_6  and  C_7
REMARK    6  A    between atoms: C_8  and  N_9
REMARK    7  A    between atoms: N_13  and  C_14
REMARK    8  A    between atoms: C_14  and  C_15
REMARK    9  A    between atoms: C_15  and  O_16
REMARK   10  A    between atoms: O_16  and  C_17
REMARK   11  A    between atoms: C_17  and  P_18
REMARK   12  A    between atoms: P_18  and  O_20
REMARK   13  A    between atoms: P_18  and  O_21
REMARK                            x       y       z     vdW  Elec       q    Type
REMARK                         _______ _______ _______ _____ _____    ______ ____
ROOT
ATOM      1  C   UNL     1       3.608   2.842  18.497  0.00  0.00    +0.000 A 
ATOM      2  C   UNL     1       4.668   2.668  19.304  0.00  0.00    +0.000 A 
ATOM      3  N   UNL     1       5.569   3.662  19.558  0.00  0.00    +0.000 NA
ATOM      4  C   UNL     1       5.383   4.848  19.062  0.00  0.00    +0.000 A 
ATOM      5  N   UNL     1       6.308   5.791  19.392  0.00  0.00    +0.000 N 
ATOM      6  N   UNL     1       4.330   5.152  18.234  0.00  0.00    +0.000 N 
ATOM      7  C   UNL     1       3.432   4.166  17.863  0.00  0.00    +0.000 A 
ATOM      8  O   UNL     1       2.530   4.330  17.041  0.00  0.00    +0.000 OA
ATOM      9  H   UNL     1       7.130   5.378  19.821  0.00  0.00    +0.000 HD
ATOM     10  H   UNL     1       6.530   6.516  18.729  0.00  0.00    +0.000 HD
ENDROOT
BRANCH   2  11
ATOM     11  N   UNL     1       4.914   1.445  19.897  0.00  0.00    +0.000 N 
ATOM     12  H   UNL     1       4.061   0.988  20.213  0.00  0.00    +0.000 HD
ATOM     13  H   UNL     1       5.399   0.860  19.219  0.00  0.00    +0.000 HD
ENDBRANCH   2  11
BRANCH   1  14
ATOM     14  C   UNL     1       2.564   1.802  18.185  0.00  0.00    +0.000 C 
BRANCH  14  15
ATOM     15  C   UNL     1       1.352   2.093  19.035  0.00  0.00    +0.000 C 
ATOM     16  O   UNL     1       0.219   2.234  18.588  0.00  0.00    +0.000 OA
BRANCH  15  17
ATOM     17  O   UNL     1       1.705   2.233  20.344  0.00  0.00    +0.000 OA
BRANCH  17  19
ATOM     18  C   UNL     1       2.165   4.345  21.336  0.00  0.00    +0.000 C 
ATOM     19  C   UNL     1       1.087   3.337  21.019  0.00  0.00    +0.000 C 
ENDBRANCH  17  19
ENDBRANCH  15  17
ENDBRANCH  14  15
ENDBRANCH   1  14
BRANCH   6  20
ATOM     20  C   UNL     1       4.097   6.498  17.712  0.00  0.00    +0.000 C 
BRANCH  20  21
ATOM     21  C   UNL     1       5.040   6.869  16.561  0.00  0.00    +0.000 C 
BRANCH  21  22
ATOM     22  O   UNL     1       5.110   5.833  15.572  0.00  0.00    +0.000 OA
BRANCH  22  23
ATOM     23  C   UNL     1       6.413   5.233  15.578  0.00  0.00    +0.000 C 
BRANCH  23  24
ATOM     24  P   UNL     1       6.575   4.143  14.117  0.00  0.00    +0.000 P 
ATOM     25  O   UNL     1       5.112   4.405  13.746  0.00  0.00    +0.000 OA
BRANCH  24  26
ATOM     26  O   UNL     1       7.444   5.307  13.366  0.00  0.00    +0.000 OA
ATOM     27  H   UNL     1       8.378   5.264  13.665  0.00  0.00    +0.000 HD
ENDBRANCH  24  26
BRANCH  24  28
ATOM     28  O   UNL     1       6.726   3.113  12.736  0.00  0.00    +0.000 OA
ATOM     29  H   UNL     1       7.161   3.687  12.072  0.00  0.00    +0.000 HD
ENDBRANCH  24  28
ENDBRANCH  23  24
ENDBRANCH  22  23
ENDBRANCH  21  22
ENDBRANCH  20  21
ENDBRANCH   6  20
TORSDOF 12
ENDMDL
MODEL 6
REMARK VINA RESULT:      -5.7      2.381      3.139
REMARK  Name = 
REMARK  13 active torsions:
REMARK  status: ('A' for Active; 'I' for Inactive)
REMARK    1  A    between atoms: C_1  and  C_2
REMARK    2  A    between atoms: C_2  and  O_3
REMARK    3  A    between atoms: O_3  and  C_4
REMARK    4  A    between atoms: C_4  and  C_6
REMARK    5  A    between atoms: C_6  and  C_7
REMARK    6  A    between atoms: C_8  and  N_9
REMARK    7  A    between atoms: N_13  and  C_14
REMARK    8  A    between atoms: C_14  and  C_15
REMARK    9  A    between atoms: C_15  and  O_16
REMARK   10  A    between atoms: O_16  and  C_17
REMARK   11  A    between atoms: C_17  and  P_18
REMARK   12  A    between atoms: P_18  and  O_20
REMARK   13  A    between atoms: P_18  and  O_21
REMARK                            x       y       z     vdW  Elec       q    Type
REMARK                         _______ _______ _______ _____ _____    ______ ____
ROOT
ATOM      1  C   UNL     1       6.109   6.034  17.773  0.00  0.00    +0.000 A 
ATOM      2  C   UNL     1       6.321   5.431  18.956  0.00  0.00    +0.000 A 
ATOM      3  N   UNL     1       5.321   5.217  19.860  0.00  0.00    +0.000 NA
ATOM      4  C   UNL     1       4.099   5.543  19.565  0.00  0.00    +0.000 A 
ATOM      5  N   UNL     1       3.157   5.264  20.508  0.00  0.00    +0.000 N 
ATOM      6  N   UNL     1       3.755   6.153  18.383  0.00  0.00    +0.000 N 
ATOM      7  C   UNL     1       4.735   6.481  17.463  0.00  0.00    +0.000 A 
ATOM      8  O   UNL     1       4.525   7.125  16.434  0.00  0.00    +0.000 OA
ATOM      9  H   UNL     1       3.577   5.021  21.400  0.00  0.00    +0.000 HD
ATOM     10  H   UNL     1       2.357   5.870  20.600  0.00  0.00    +0.000 HD
ENDROOT
BRANCH   2  11
ATOM     11  N   UNL     1       7.588   5.024  19.327  0.00  0.00    +0.000 N 
ATOM     12  H   UNL     1       7.887   5.438  20.207  0.00  0.00    +0.000 HD
ATOM     13  H   UNL     1       7.582   4.008  19.397  0.00  0.00    +0.000 HD
ENDBRANCH   2  11
BRANCH   1  14
ATOM     14  C   UNL     1       7.155   6.287  16.719  0.00  0.00    +0.000 C 
BRANCH  14  15
ATOM     15  C   UNL     1       7.182   5.094  15.797  0.00  0.00    +0.000 C 
ATOM     16  O   UNL     1       6.827   3.966  16.123  0.00  0.00    +0.000 OA
BRANCH  15  17
ATOM     17  O   UNL     1       7.706   5.434  14.585  0.00  0.00    +0.000 OA
BRANCH  17  19
ATOM     18  C   UNL     1       7.713   5.308  12.210  0.00  0.00    +0.000 C 
ATOM     19  C   UNL     1       7.225   4.656  13.481  0.00  0.00    +0.000 C 
ENDBRANCH  17  19
ENDBRANCH  15  17
ENDBRANCH  14  15
ENDBRANCH   1  14
BRANCH   6  20
ATOM     20  C   UNL     1       2.374   6.479  18.034  0.00  0.00    +0.000 C 
BRANCH  20  21
ATOM     21  C   UNL     1       1.494   5.238  17.837  0.00  0.00    +0.000 C 
BRANCH  21  22
ATOM     22  O   UNL     1       2.265   4.091  17.455  0.00  0.00    +0.000 OA
BRANCH  22  23
ATOM     23  C   UNL     1       1.758   2.917  18.106  0.00  0.00    +0.000 C 
BRANCH  23  24
ATOM     24  P   UNL     1       3.139   1.753  18.398  0.00  0.00    +0.000 P 
ATOM     25  O   UNL     1       4.090   2.669  17.621  0.00  0.00    +0.000 OA
BRANCH  24  26
ATOM     26  O   UNL     1       3.207   2.251  19.954  0.00  0.00    +0.000 OA
ATOM     27  H   UNL     1       2.310   2.214  20.350  0.00  0.00    +0.000 HD
ENDBRANCH  24  26
BRANCH  24  28
ATOM     28  O   UNL     1       4.446   0.653  18.673  0.00  0.00    +0.000 OA
ATOM     29  H   UNL     1       4.010  -0.112  19.101  0.00  0.00    +0.000 HD
ENDBRANCH  24  28
ENDBRANCH  23  24
ENDBRANCH  22  23
ENDBRANCH  21  22
ENDBRANCH  20  21
ENDBRANCH   6  20
TORSDOF 12
ENDMDL
MODEL 7
REMARK VINA RESULT:      -5.7      5.487      7.522
REMARK  Name = 
REMARK  13 active torsions:
REMARK  status: ('A' for Active; 'I' for Inactive)
REMARK    1  A    between atoms: C_1  and  C_2
REMARK    2  A    between atoms: C_2  and  O_3
REMARK    3  A    between atoms: O_3  and  C_4
REMARK    4  A    between atoms: C_4  and  C_6
REMARK    5  A    between atoms: C_6  and  C_7
REMARK    6  A    between atoms: C_8  and  N_9
REMARK    7  A    between atoms: N_13  and  C_14
REMARK    8  A    between atoms: C_14  and  C_15
REMARK    9  A    between atoms: C_15  and  O_16
REMARK   10  A    between atoms: O_16  and  C_17
REMARK   11  A    between atoms: C_17  and  P_18
REMARK   12  A    between atoms: P_18  and  O_20
REMARK   13  A    between atoms: P_18  and  O_21
REMARK                            x       y       z     vdW  Elec       q    Type
REMARK                         _______ _______ _______ _____ _____    ______ ____
ROOT
ATOM      1  C   UNL     1       2.595   7.228  19.141  0.00  0.00    +0.000 A 
ATOM      2  C   UNL     1       2.956   7.767  17.964  0.00  0.00    +0.000 A 
ATOM      3  N   UNL     1       2.538   9.003  17.564  0.00  0.00    +0.000 NA
ATOM      4  C   UNL     1       1.812   9.731  18.358  0.00  0.00    +0.000 A 
ATOM      5  N   UNL     1       1.466  10.964  17.896  0.00  0.00    +0.000 N 
ATOM      6  N   UNL     1       1.389   9.294  19.590  0.00  0.00    +0.000 N 
ATOM      7  C   UNL     1       1.702   8.016  20.017  0.00  0.00    +0.000 A 
ATOM      8  O   UNL     1       1.271   7.511  21.054  0.00  0.00    +0.000 OA
ATOM      9  H   UNL     1       1.658  11.063  16.905  0.00  0.00    +0.000 HD
ATOM     10  H   UNL     1       0.581  11.362  18.169  0.00  0.00    +0.000 HD
ENDROOT
BRANCH   2  11
ATOM     11  N   UNL     1       3.756   7.069  17.080  0.00  0.00    +0.000 N 
ATOM     12  H   UNL     1       3.509   6.083  17.028  0.00  0.00    +0.000 HD
ATOM     13  H   UNL     1       3.666   7.506  16.165  0.00  0.00    +0.000 HD
ENDBRANCH   2  11
BRANCH   1  14
ATOM     14  C   UNL     1       3.030   5.882  19.658  0.00  0.00    +0.000 C 
BRANCH  14  15
ATOM     15  C   UNL     1       2.056   4.851  19.146  0.00  0.00    +0.000 C 
ATOM     16  O   UNL     1       1.976   4.506  17.971  0.00  0.00    +0.000 OA
BRANCH  15  17
ATOM     17  O   UNL     1       1.248   4.409  20.152  0.00  0.00    +0.000 OA
BRANCH  17  19
ATOM     18  C   UNL     1       1.688   2.555  21.575  0.00  0.00    +0.000 C 
ATOM     19  C   UNL     1       1.935   4.028  21.351  0.00  0.00    +0.000 C 
ENDBRANCH  17  19
ENDBRANCH  15  17
ENDBRANCH  14  15
ENDBRANCH   1  14
BRANCH   6  20
ATOM     20  C   UNL     1       0.610  10.131  20.501  0.00  0.00    +0.000 C 
BRANCH  20  21
ATOM     21  C   UNL     1      -0.899  10.067  20.235  0.00  0.00    +0.000 C 
BRANCH  21  22
ATOM     22  O   UNL     1      -1.260  10.761  19.033  0.00  0.00    +0.000 OA
BRANCH  22  23
ATOM     23  C   UNL     1      -1.889   9.858  18.112  0.00  0.00    +0.000 C 
BRANCH  23  24
ATOM     24  P   UNL     1      -2.643  10.822  16.751  0.00  0.00    +0.000 P 
ATOM     25  O   UNL     1      -3.809  11.216  17.663  0.00  0.00    +0.000 OA
BRANCH  24  26
ATOM     26  O   UNL     1      -1.501  11.975  16.959  0.00  0.00    +0.000 OA
ATOM     27  H   UNL     1      -0.628  11.626  16.676  0.00  0.00    +0.000 HD
ENDBRANCH  24  26
BRANCH  24  28
ATOM     28  O   UNL     1      -3.357  11.733  15.466  0.00  0.00    +0.000 OA
ATOM     29  H   UNL     1      -2.588  11.985  14.914  0.00  0.00    +0.000 HD
ENDBRANCH  24  28
ENDBRANCH  23  24
ENDBRANCH  22  23
ENDBRANCH  21  22
ENDBRANCH  20  21
ENDBRANCH   6  20
TORSDOF 12
ENDMDL
MODEL 8
REMARK VINA RESULT:      -5.7      3.189      4.504
REMARK  Name = 
REMARK  13 active torsions:
REMARK  status: ('A' for Active; 'I' for Inactive)
REMARK    1  A    between atoms: C_1  and  C_2
REMARK    2  A    between atoms: C_2  and  O_3
REMARK    3  A    between atoms: O_3  and  C_4
REMARK    4  A    between atoms: C_4  and  C_6
REMARK    5  A    between atoms: C_6  and  C_7
REMARK    6  A    between atoms: C_8  and  N_9
REMARK    7  A    between atoms: N_13  and  C_14
REMARK    8  A    between atoms: C_14  and  C_15
REMARK    9  A    between atoms: C_15  and  O_16
REMARK   10  A    between atoms: O_16  and  C_17
REMARK   11  A    between atoms: C_17  and  P_18
REMARK   12  A    between atoms: P_18  and  O_20
REMARK   13  A    between atoms: P_18  and  O_21
REMARK                            x       y       z     vdW  Elec       q    Type
REMARK                         _______ _______ _______ _____ _____    ______ ____
ROOT
ATOM      1  C   UNL     1       5.683   4.523  17.811  0.00  0.00    +0.000 A 
ATOM      2  C   UNL     1       5.070   3.917  16.779  0.00  0.00    +0.000 A 
ATOM      3  N   UNL     1       3.726   3.680  16.761  0.00  0.00    +0.000 NA
ATOM      4  C   UNL     1       2.979   4.102  17.736  0.00  0.00    +0.000 A 
ATOM      5  N   UNL     1       1.645   3.856  17.624  0.00  0.00    +0.000 N 
ATOM      6  N   UNL     1       3.488   4.746  18.839  0.00  0.00    +0.000 N 
ATOM      7  C   UNL     1       4.853   4.934  18.962  0.00  0.00    +0.000 A 
ATOM      8  O   UNL     1       5.396   5.401  19.965  0.00  0.00    +0.000 OA
ATOM      9  H   UNL     1       1.445   3.194  16.881  0.00  0.00    +0.000 HD
ATOM     10  H   UNL     1       1.103   3.691  18.457  0.00  0.00    +0.000 HD
ENDROOT
BRANCH   2  11
ATOM     11  N   UNL     1       5.792   3.471  15.689  0.00  0.00    +0.000 N 
ATOM     12  H   UNL     1       5.456   3.867  14.814  0.00  0.00    +0.000 HD
ATOM     13  H   UNL     1       6.769   3.717  15.838  0.00  0.00    +0.000 HD
ENDBRANCH   2  11
BRANCH   1  14
ATOM     14  C   UNL     1       7.155   4.835  17.895  0.00  0.00    +0.000 C 
BRANCH  14  15
ATOM     15  C   UNL     1       7.389   6.154  17.203  0.00  0.00    +0.000 C 
ATOM     16  O   UNL     1       7.555   6.275  15.994  0.00  0.00    +0.000 OA
BRANCH  15  17
ATOM     17  O   UNL     1       7.450   7.170  18.110  0.00  0.00    +0.000 OA
BRANCH  17  19
ATOM     18  C   UNL     1       8.628   9.224  18.333  0.00  0.00    +0.000 C 
ATOM     19  C   UNL     1       7.581   8.479  17.540  0.00  0.00    +0.000 C 
ENDBRANCH  17  19
ENDBRANCH  15  17
ENDBRANCH  14  15
ENDBRANCH   1  14
BRANCH   6  20
ATOM     20  C   UNL     1       2.642   5.259  19.915  0.00  0.00    +0.000 C 
BRANCH  20  21
ATOM     21  C   UNL     1       2.410   6.773  19.828  0.00  0.00    +0.000 C 
BRANCH  21  22
ATOM     22  O   UNL     1       1.557   7.244  20.881  0.00  0.00    +0.000 OA
BRANCH  22  23
ATOM     23  C   UNL     1       1.051   8.548  20.559  0.00  0.00    +0.000 C 
BRANCH  23  24
ATOM     24  P   UNL     1       0.477   9.360  22.095  0.00  0.00    +0.000 P 
ATOM     25  O   UNL     1       1.644  10.349  22.021  0.00  0.00    +0.000 OA
BRANCH  24  26
ATOM     26  O   UNL     1      -0.747  10.046  21.254  0.00  0.00    +0.000 OA
ATOM     27  H   UNL     1      -1.472   9.395  21.141  0.00  0.00    +0.000 HD
ENDBRANCH  24  26
BRANCH  24  28
ATOM     28  O   UNL     1      -0.064  10.129  23.547  0.00  0.00    +0.000 OA
ATOM     29  H   UNL     1       0.408   9.639  24.251  0.00  0.00    +0.000 HD
ENDBRANCH  24  28
ENDBRANCH  23  24
ENDBRANCH  22  23
ENDBRANCH  21  22
ENDBRANCH  20  21
ENDBRANCH   6  20
TORSDOF 12
ENDMDL
MODEL 9
REMARK VINA RESULT:      -5.6      3.093      4.357
REMARK  Name = 
REMARK  13 active torsions:
REMARK  status: ('A' for Active; 'I' for Inactive)
REMARK    1  A    between atoms: C_1  and  C_2
REMARK    2  A    between atoms: C_2  and  O_3
REMARK    3  A    between atoms: O_3  and  C_4
REMARK    4  A    between atoms: C_4  and  C_6
REMARK    5  A    between atoms: C_6  and  C_7
REMARK    6  A    between atoms: C_8  and  N_9
REMARK    7  A    between atoms: N_13  and  C_14
REMARK    8  A    between atoms: C_14  and  C_15
REMARK    9  A    between atoms: C_15  and  O_16
REMARK   10  A    between atoms: O_16  and  C_17
REMARK   11  A    between atoms: C_17  and  P_18
REMARK   12  A    between atoms: P_18  and  O_20
REMARK   13  A    between atoms: P_18  and  O_21
REMARK                            x       y       z     vdW  Elec       q    Type
REMARK                         _______ _______ _______ _____ _____    ______ ____
ROOT
ATOM      1  C   UNL     1       7.069   6.189  17.678  0.00  0.00    +0.000 A 
ATOM      2  C   UNL     1       7.362   5.636  18.868  0.00  0.00    +0.000 A 
ATOM      3  N   UNL     1       6.593   4.659  19.431  0.00  0.00    +0.000 NA
ATOM      4  C   UNL     1       5.569   4.186  18.786  0.00  0.00    +0.000 A 
ATOM      5  N   UNL     1       4.876   3.190  19.404  0.00  0.00    +0.000 N 
ATOM      6  N   UNL     1       5.178   4.661  17.558  0.00  0.00    +0.000 N 
ATOM      7  C   UNL     1       5.861   5.714  16.973  0.00  0.00    +0.000 A 
ATOM      8  O   UNL     1       5.508   6.268  15.931  0.00  0.00    +0.000 OA
ATOM      9  H   UNL     1       5.141   3.095  20.379  0.00  0.00    +0.000 HD
ATOM     10  H   UNL     1       3.882   3.116  19.255  0.00  0.00    +0.000 HD
ENDROOT
BRANCH   2  11
ATOM     11  N   UNL     1       8.454   6.061  19.598  0.00  0.00    +0.000 N 
ATOM     12  H   UNL     1       8.205   6.751  20.303  0.00  0.00    +0.000 HD
ATOM     13  H   UNL     1       8.876   5.243  20.035  0.00  0.00    +0.000 HD
ENDBRANCH   2  11
BRANCH   1  14
ATOM     14  C   UNL     1       7.878   7.254  16.985  0.00  0.00    +0.000 C 
BRANCH  14  15
ATOM     15  C   UNL     1       7.624   8.563  17.692  0.00  0.00    +0.000 C 
ATOM     16  O   UNL     1       6.646   9.274  17.488  0.00  0.00    +0.000 OA
BRANCH  15  17
ATOM     17  O   UNL     1       8.654   8.863  18.534  0.00  0.00    +0.000 OA
BRANCH  17  19
ATOM     18  C   UNL     1       9.457  10.622  19.918  0.00  0.00    +0.000 C 
ATOM     19  C   UNL     1       9.068  10.236  18.512  0.00  0.00    +0.000 C 
ENDBRANCH  17  19
ENDBRANCH  15  17
ENDBRANCH  14  15
ENDBRANCH   1  14
BRANCH   6  20
ATOM     20  C   UNL     1       4.053   4.098  16.813  0.00  0.00    +0.000 C 
BRANCH  20  21
ATOM     21  C   UNL     1       2.690   4.478  17.403  0.00  0.00    +0.000 C 
BRANCH  21  22
ATOM     22  O   UNL     1       2.097   3.390  18.125  0.00  0.00    +0.000 OA
BRANCH  22  23
ATOM     23  C   UNL     1       1.088   3.882  19.018  0.00  0.00    +0.000 C 
BRANCH  23  24
ATOM     24  P   UNL     1       1.371   3.180  20.684  0.00  0.00    +0.000 P 
ATOM     25  O   UNL     1       2.190   2.037  20.075  0.00  0.00    +0.000 OA
BRANCH  24  26
ATOM     26  O   UNL     1       2.437   4.382  20.991  0.00  0.00    +0.000 OA
ATOM     27  H   UNL     1       2.699   4.355  21.936  0.00  0.00    +0.000 HD
ENDBRANCH  24  26
BRANCH  24  28
ATOM     28  O   UNL     1       1.640   2.515  22.258  0.00  0.00    +0.000 OA
ATOM     29  H   UNL     1       1.603   1.548  22.104  0.00  0.00    +0.000 HD
ENDBRANCH  24  28
ENDBRANCH  23  24
ENDBRANCH  22  23
ENDBRANCH  21  22
ENDBRANCH  20  21
ENDBRANCH   6  20
TORSDOF 12
ENDMDL
