MODEL 1
REMARK VINA RESULT:      -6.2      0.000      0.000
REMARK  Name = 
REMARK  1 active torsions:
REMARK  status: ('A' for Active; 'I' for Inactive)
REMARK    1  A    between atoms: C_1  and  C_2
REMARK                            x       y       z     vdW  Elec       q    Type
REMARK                         _______ _______ _______ _____ _____    ______ ____
ROOT
ATOM      1  C   UNL     1       7.874   7.290  18.236  0.00  0.00    +0.000 C 
ATOM      2  C   UNL     1       7.262   6.248  17.339  0.00  0.00    +0.000 A 
ATOM      3  N   UNL     1       7.575   6.250  16.069  0.00  0.00    +0.000 NA
ATOM      4  C   UNL     1       7.011   5.277  15.284  0.00  0.00    +0.000 A 
ATOM      5  N   UNL     1       7.132   5.078  13.987  0.00  0.00    +0.000 NA
ATOM      6  C   UNL     1       6.339   3.996  13.755  0.00  0.00    +0.000 A 
ATOM      7  N   UNL     1       5.712   3.485  14.816  0.00  0.00    +0.000 NA
ATOM      8  N   UNL     1       6.153   4.298  15.809  0.00  0.00    +0.000 N 
ATOM      9  C   UNL     1       5.848   4.317  17.168  0.00  0.00    +0.000 A 
ATOM     10  C   UNL     1       6.346   5.267  17.962  0.00  0.00    +0.000 A 
ATOM     11  C   UNL     1       5.794   5.155  19.341  0.00  0.00    +0.000 C 
ATOM     12  C   UNL     1       4.652   4.117  19.139  0.00  0.00    +0.000 C 
ATOM     13  N   UNL     1       4.994   3.476  17.865  0.00  0.00    +0.000 N 
ATOM     14  H   UNL     1       4.262   3.039  17.305  0.00  0.00    +0.000 HD
ENDROOT
TORSDOF 0
ENDMDL
MODEL 2
REMARK VINA RESULT:      -6.1      0.999      1.090
REMARK  Name = 
REMARK  1 active torsions:
REMARK  status: ('A' for Active; 'I' for Inactive)
REMARK    1  A    between atoms: C_1  and  C_2
REMARK                            x       y       z     vdW  Elec       q    Type
REMARK                         _______ _______ _______ _____ _____    ______ ____
ROOT
ATOM      1  C   UNL     1       7.574   5.713  19.363  0.00  0.00    +0.000 C 
ATOM      2  C   UNL     1       6.976   5.251  18.061  0.00  0.00    +0.000 A 
ATOM      3  N   UNL     1       7.636   5.472  16.953  0.00  0.00    +0.000 NA
ATOM      4  C   UNL     1       7.069   5.024  15.787  0.00  0.00    +0.000 A 
ATOM      5  N   UNL     1       7.502   5.146  14.549  0.00  0.00    +0.000 NA
ATOM      6  C   UNL     1       6.532   4.540  13.811  0.00  0.00    +0.000 A 
ATOM      7  N   UNL     1       5.500   4.039  14.491  0.00  0.00    +0.000 NA
ATOM      8  N   UNL     1       5.846   4.335  15.768  0.00  0.00    +0.000 N 
ATOM      9  C   UNL     1       5.175   4.106  16.966  0.00  0.00    +0.000 A 
ATOM     10  C   UNL     1       5.673   4.555  18.120  0.00  0.00    +0.000 A 
ATOM     11  C   UNL     1       4.732   4.297  19.246  0.00  0.00    +0.000 C 
ATOM     12  C   UNL     1       3.447   3.852  18.486  0.00  0.00    +0.000 C 
ATOM     13  N   UNL     1       3.946   3.491  17.155  0.00  0.00    +0.000 N 
ATOM     14  H   UNL     1       3.317   3.523  16.352  0.00  0.00    +0.000 HD
ENDROOT
TORSDOF 0
ENDMDL
MODEL 3
REMARK VINA RESULT:      -6.0      2.574      4.658
REMARK  Name = 
REMARK  1 active torsions:
REMARK  status: ('A' for Active; 'I' for Inactive)
REMARK    1  A    between atoms: C_1  and  C_2
REMARK                            x       y       z     vdW  Elec       q    Type
REMARK                         _______ _______ _______ _____ _____    ______ ____
ROOT
ATOM      1  C   UNL     1       3.323   7.498  17.704  0.00  0.00    +0.000 C 
ATOM      2  C   UNL     1       3.753   6.182  18.294  0.00  0.00    +0.000 A 
ATOM      3  N   UNL     1       2.881   5.484  18.974  0.00  0.00    +0.000 NA
ATOM      4  C   UNL     1       3.303   4.282  19.484  0.00  0.00    +0.000 A 
ATOM      5  N   UNL     1       2.646   3.413  20.224  0.00  0.00    +0.000 NA
ATOM      6  C   UNL     1       3.560   2.431  20.453  0.00  0.00    +0.000 A 
ATOM      7  N   UNL     1       4.766   2.611  19.912  0.00  0.00    +0.000 NA
ATOM      8  N   UNL     1       4.604   3.796  19.273  0.00  0.00    +0.000 N 
ATOM      9  C   UNL     1       5.504   4.560  18.535  0.00  0.00    +0.000 A 
ATOM     10  C   UNL     1       5.147   5.751  18.050  0.00  0.00    +0.000 A 
ATOM     11  C   UNL     1       6.301   6.432  17.399  0.00  0.00    +0.000 C 
ATOM     12  C   UNL     1       7.489   5.526  17.839  0.00  0.00    +0.000 C 
ATOM     13  N   UNL     1       6.834   4.282  18.256  0.00  0.00    +0.000 N 
ATOM     14  H   UNL     1       7.297   3.664  18.921  0.00  0.00    +0.000 HD
ENDROOT
TORSDOF 0
ENDMDL
MODEL 4
REMARK VINA RESULT:      -6.0      2.066      2.702
REMARK  Name = 
REMARK  1 active torsions:
REMARK  status: ('A' for Active; 'I' for Inactive)
REMARK    1  A    between atoms: C_1  and  C_2
REMARK                            x       y       z     vdW  Elec       q    Type
REMARK                         _______ _______ _______ _____ _____    ______ ____
ROOT
ATOM      1  C   UNL     1       2.739   6.932  18.490  0.00  0.00    +0.000 C 
ATOM      2  C   UNL     1       3.634   6.012  17.704  0.00  0.00    +0.000 A 
ATOM      3  N   UNL     1       4.494   6.535  16.869  0.00  0.00    +0.000 NA
ATOM      4  C   UNL     1       5.304   5.668  16.181  0.00  0.00    +0.000 A 
ATOM      5  N   UNL     1       6.219   5.926  15.269  0.00  0.00    +0.000 NA
ATOM      6  C   UNL     1       6.680   4.694  14.921  0.00  0.00    +0.000 A 
ATOM      7  N   UNL     1       6.121   3.657  15.545  0.00  0.00    +0.000 NA
ATOM      8  N   UNL     1       5.243   4.278  16.371  0.00  0.00    +0.000 N 
ATOM      9  C   UNL     1       4.323   3.754  17.276  0.00  0.00    +0.000 A 
ATOM     10  C   UNL     1       3.491   4.559  17.941  0.00  0.00    +0.000 A 
ATOM     11  C   UNL     1       2.525   3.773  18.758  0.00  0.00    +0.000 C 
ATOM     12  C   UNL     1       2.769   2.328  18.229  0.00  0.00    +0.000 C 
ATOM     13  N   UNL     1       4.075   2.422  17.570  0.00  0.00    +0.000 N 
ATOM     14  H   UNL     1       4.319   1.762  16.832  0.00  0.00    +0.000 HD
ENDROOT
TORSDOF 0
ENDMDL
MODEL 5
REMARK VINA RESULT:      -6.0      1.945      2.551
REMARK  Name = 
REMARK  1 active torsions:
REMARK  status: ('A' for Active; 'I' for Inactive)
REMARK    1  A    between atoms: C_1  and  C_2
REMARK                            x       y       z     vdW  Elec       q    Type
REMARK                         _______ _______ _______ _____ _____    ______ ____
ROOT
ATOM      1  C   UNL     1       2.656   7.269  18.418  0.00  0.00    +0.000 C 
ATOM      2  C   UNL     1       3.751   6.391  17.874  0.00  0.00    +0.000 A 
ATOM      3  N   UNL     1       4.380   6.770  16.792  0.00  0.00    +0.000 NA
ATOM      4  C   UNL     1       5.382   5.954  16.333  0.00  0.00    +0.000 A 
ATOM      5  N   UNL     1       6.139   6.083  15.262  0.00  0.00    +0.000 NA
ATOM      6  C   UNL     1       6.933   4.978  15.297  0.00  0.00    +0.000 A 
ATOM      7  N   UNL     1       6.736   4.142  16.318  0.00  0.00    +0.000 NA
ATOM      8  N   UNL     1       5.747   4.773  16.999  0.00  0.00    +0.000 N 
ATOM      9  C   UNL     1       5.065   4.404  18.155  0.00  0.00    +0.000 A 
ATOM     10  C   UNL     1       4.059   5.150  18.617  0.00  0.00    +0.000 A 
ATOM     11  C   UNL     1       3.408   4.503  19.790  0.00  0.00    +0.000 C 
ATOM     12  C   UNL     1       4.050   3.085  19.763  0.00  0.00    +0.000 C 
ATOM     13  N   UNL     1       5.240   3.264  18.926  0.00  0.00    +0.000 N 
ATOM     14  H   UNL     1       5.639   2.465  18.434  0.00  0.00    +0.000 HD
ENDROOT
TORSDOF 0
ENDMDL
MODEL 6
REMARK VINA RESULT:      -6.0      3.014      5.486
REMARK  Name = 
REMARK  1 active torsions:
REMARK  status: ('A' for Active; 'I' for Inactive)
REMARK    1  A    between atoms: C_1  and  C_2
REMARK                            x       y       z     vdW  Elec       q    Type
REMARK                         _______ _______ _______ _____ _____    ______ ____
ROOT
ATOM      1  C   UNL     1       2.688   7.422  18.290  0.00  0.00    +0.000 C 
ATOM      2  C   UNL     1       2.930   6.090  18.947  0.00  0.00    +0.000 A 
ATOM      3  N   UNL     1       2.023   5.618  19.763  0.00  0.00    +0.000 NA
ATOM      4  C   UNL     1       2.269   4.395  20.332  0.00  0.00    +0.000 A 
ATOM      5  N   UNL     1       1.547   3.719  21.202  0.00  0.00    +0.000 NA
ATOM      6  C   UNL     1       2.284   2.596  21.426  0.00  0.00    +0.000 A 
ATOM      7  N   UNL     1       3.436   2.505  20.761  0.00  0.00    +0.000 NA
ATOM      8  N   UNL     1       3.427   3.655  20.041  0.00  0.00    +0.000 N 
ATOM      9  C   UNL     1       4.367   4.181  19.159  0.00  0.00    +0.000 A 
ATOM     10  C   UNL     1       4.185   5.384  18.610  0.00  0.00    +0.000 A 
ATOM     11  C   UNL     1       5.367   5.786  17.798  0.00  0.00    +0.000 C 
ATOM     12  C   UNL     1       6.408   4.700  18.200  0.00  0.00    +0.000 C 
ATOM     13  N   UNL     1       5.585   3.635  18.781  0.00  0.00    +0.000 N 
ATOM     14  H   UNL     1       5.995   2.984  19.450  0.00  0.00    +0.000 HD
ENDROOT
TORSDOF 0
ENDMDL
MODEL 7
REMARK VINA RESULT:      -5.9      1.799      4.430
REMARK  Name = 
REMARK  1 active torsions:
REMARK  status: ('A' for Active; 'I' for Inactive)
REMARK    1  A    between atoms: C_1  and  C_2
REMARK                            x       y       z     vdW  Elec       q    Type
REMARK                         _______ _______ _______ _____ _____    ______ ____
ROOT
ATOM      1  C   UNL     1       3.148   3.506  16.876  0.00  0.00    +0.000 C 
ATOM      2  C   UNL     1       4.507   4.067  17.200  0.00  0.00    +0.000 A 
ATOM      3  N   UNL     1       4.776   4.383  18.441  0.00  0.00    +0.000 NA
ATOM      4  C   UNL     1       6.028   4.877  18.703  0.00  0.00    +0.000 A 
ATOM      5  N   UNL     1       6.537   5.297  19.843  0.00  0.00    +0.000 NA
ATOM      6  C   UNL     1       7.795   5.693  19.505  0.00  0.00    +0.000 A 
ATOM      7  N   UNL     1       8.130   5.560  18.220  0.00  0.00    +0.000 NA
ATOM      8  N   UNL     1       7.000   5.020  17.699  0.00  0.00    +0.000 N 
ATOM      9  C   UNL     1       6.684   4.665  16.390  0.00  0.00    +0.000 A 
ATOM     10  C   UNL     1       5.466   4.213  16.084  0.00  0.00    +0.000 A 
ATOM     11  C   UNL     1       5.325   4.009  14.615  0.00  0.00    +0.000 C 
ATOM     12  C   UNL     1       6.615   4.696  14.077  0.00  0.00    +0.000 C 
ATOM     13  N   UNL     1       7.479   4.773  15.259  0.00  0.00    +0.000 N 
ATOM     14  H   UNL     1       8.209   5.484  15.308  0.00  0.00    +0.000 HD
ENDROOT
TORSDOF 0
ENDMDL
MODEL 8
REMARK VINA RESULT:      -5.9      1.970      4.013
REMARK  Name = 
REMARK  1 active torsions:
REMARK  status: ('A' for Active; 'I' for Inactive)
REMARK    1  A    between atoms: C_1  and  C_2
REMARK                            x       y       z     vdW  Elec       q    Type
REMARK                         _______ _______ _______ _____ _____    ______ ____
ROOT
ATOM      1  C   UNL     1       5.535   5.448  14.933  0.00  0.00    +0.000 C 
ATOM      2  C   UNL     1       5.356   4.815  16.287  0.00  0.00    +0.000 A 
ATOM      3  N   UNL     1       4.377   3.965  16.458  0.00  0.00    +0.000 NA
ATOM      4  C   UNL     1       4.253   3.397  17.700  0.00  0.00    +0.000 A 
ATOM      5  N   UNL     1       3.347   2.548  18.142  0.00  0.00    +0.000 NA
ATOM      6  C   UNL     1       3.701   2.351  19.442  0.00  0.00    +0.000 A 
ATOM      7  N   UNL     1       4.774   3.018  19.868  0.00  0.00    +0.000 NA
ATOM      8  N   UNL     1       5.144   3.684  18.746  0.00  0.00    +0.000 N 
ATOM      9  C   UNL     1       6.183   4.585  18.527  0.00  0.00    +0.000 A 
ATOM     10  C   UNL     1       6.320   5.189  17.344  0.00  0.00    +0.000 A 
ATOM     11  C   UNL     1       7.422   6.190  17.379  0.00  0.00    +0.000 C 
ATOM     12  C   UNL     1       7.733   6.262  18.904  0.00  0.00    +0.000 C 
ATOM     13  N   UNL     1       7.132   5.034  19.433  0.00  0.00    +0.000 N 
ATOM     14  H   UNL     1       6.853   4.987  20.413  0.00  0.00    +0.000 HD
ENDROOT
TORSDOF 0
ENDMDL
MODEL 9
REMARK VINA RESULT:      -5.9      1.133      2.786
REMARK  Name = 
REMARK  1 active torsions:
REMARK  status: ('A' for Active; 'I' for Inactive)
REMARK    1  A    between atoms: C_1  and  C_2
REMARK                            x       y       z     vdW  Elec       q    Type
REMARK                         _______ _______ _______ _____ _____    ______ ____
ROOT
ATOM      1  C   UNL     1       4.099   3.426  18.497  0.00  0.00    +0.000 C 
ATOM      2  C   UNL     1       5.063   3.978  17.481  0.00  0.00    +0.000 A 
ATOM      3  N   UNL     1       4.943   3.604  16.234  0.00  0.00    +0.000 NA
ATOM      4  C   UNL     1       5.828   4.138  15.333  0.00  0.00    +0.000 A 
ATOM      5  N   UNL     1       5.945   3.907  14.041  0.00  0.00    +0.000 NA
ATOM      6  C   UNL     1       6.998   4.687  13.671  0.00  0.00    +0.000 A 
ATOM      7  N   UNL     1       7.570   5.404  14.639  0.00  0.00    +0.000 NA
ATOM      8  N   UNL     1       6.811   5.066  15.712  0.00  0.00    +0.000 N 
ATOM      9  C   UNL     1       6.905   5.451  17.047  0.00  0.00    +0.000 A 
ATOM     10  C   UNL     1       6.087   4.930  17.963  0.00  0.00    +0.000 A 
ATOM     11  C   UNL     1       6.447   5.399  19.330  0.00  0.00    +0.000 C 
ATOM     12  C   UNL     1       7.821   6.086  19.075  0.00  0.00    +0.000 C 
ATOM     13  N   UNL     1       7.827   6.311  17.627  0.00  0.00    +0.000 N 
ATOM     14  H   UNL     1       8.713   6.396  17.130  0.00  0.00    +0.000 HD
ENDROOT
TORSDOF 0
ENDMDL
