MODEL 1
REMARK VINA RESULT:      -8.0      0.000      0.000
REMARK  Name = 
REMARK  3 active torsions:
REMARK  status: ('A' for Active; 'I' for Inactive)
REMARK    1  A    between atoms: N_3  and  C_4
REMARK    2  A    between atoms: N_11  and  C_12
REMARK    3  A    between atoms: N_15  and  C_16
REMARK                            x       y       z     vdW  Elec       q    Type
REMARK                         _______ _______ _______ _____ _____    ______ ____
ROOT
ATOM      1  C   UNL     1       7.877   6.090  17.896  0.00  0.00    +0.000 C 
ATOM      2  C   UNL     1       7.426   4.913  17.024  0.00  0.00    +0.000 C 
ATOM      3  C   UNL     1       5.933   4.621  17.152  0.00  0.00    +0.000 C 
ATOM      4  N   UNL     1       5.552   4.541  18.559  0.00  0.00    +0.000 N 
ATOM      5  C   UNL     1       5.940   5.609  19.464  0.00  0.00    +0.000 C 
ATOM      6  C   UNL     1       7.441   5.870  19.345  0.00  0.00    +0.000 C 
ENDROOT
BRANCH   4   7
ATOM      7  C   UNL     1       4.547   3.650  18.896  0.00  0.00    +0.000 A 
ATOM      8  N   UNL     1       4.845   2.697  19.823  0.00  0.00    +0.000 NA
ATOM      9  C   UNL     1       3.869   1.903  20.305  0.00  0.00    +0.000 A 
ATOM     10  N   UNL     1       2.571   1.892  19.969  0.00  0.00    +0.000 NA
ATOM     11  C   UNL     1       2.319   2.798  19.015  0.00  0.00    +0.000 A 
ATOM     12  N   UNL     1       1.105   3.039  18.432  0.00  0.00    +0.000 N 
ATOM     13  N   UNL     1       1.146   3.988  17.478  0.00  0.00    +0.000 NA
ATOM     14  C   UNL     1       2.430   4.362  17.476  0.00  0.00    +0.000 A 
ATOM     15  C   UNL     1       3.216   3.679  18.433  0.00  0.00    +0.000 A 
ATOM     16  H   UNL     1       0.229   2.582  18.646  0.00  0.00    +0.000 HD
ENDBRANCH   4   7
BRANCH   1  20
ATOM     17  O   UNL     1       7.133   9.537  17.057  0.00  0.00    +0.000 OA
ATOM     18  C   UNL     1       7.736   8.653  17.657  0.00  0.00    +0.000 C 
ATOM     19  N   UNL     1       8.717   8.825  18.594  0.00  0.00    +0.000 N 
ATOM     20  N   UNL     1       7.397   7.365  17.366  0.00  0.00    +0.000 N 
ATOM     21  H   UNL     1       9.057   7.995  19.046  0.00  0.00    +0.000 HD
ATOM     22  H   UNL     1       6.621   7.350  16.713  0.00  0.00    +0.000 HD
BRANCH  19  23
ATOM     23  C   UNL     1       9.286  10.043  19.030  0.00  0.00    +0.000 A 
ATOM     24  C   UNL     1       9.265  10.485  20.356  0.00  0.00    +0.000 A 
ATOM     25  C   UNL     1       9.834  11.715  20.708  0.00  0.00    +0.000 A 
ATOM     26  C   UNL     1      10.429  12.509  19.733  0.00  0.00    +0.000 A 
ATOM     27 BR   UNL     1      11.186  14.173  20.206  0.00  0.00    +0.000 Br
ATOM     28  C   UNL     1      10.463  12.082  18.409  0.00  0.00    +0.000 A 
ATOM     29  C   UNL     1       9.891  10.854  18.060  0.00  0.00    +0.000 A 
ENDBRANCH  19  23
ENDBRANCH   1  20
TORSDOF 3
ENDMDL
MODEL 2
REMARK VINA RESULT:      -7.9      6.241      7.897
REMARK  Name = 
REMARK  3 active torsions:
REMARK  status: ('A' for Active; 'I' for Inactive)
REMARK    1  A    between atoms: N_3  and  C_4
REMARK    2  A    between atoms: N_11  and  C_12
REMARK    3  A    between atoms: N_15  and  C_16
REMARK                            x       y       z     vdW  Elec       q    Type
REMARK                         _______ _______ _______ _____ _____    ______ ____
ROOT
ATOM      1  C   UNL     1       1.340   6.988  20.173  0.00  0.00    +0.000 C 
ATOM      2  C   UNL     1       1.725   5.515  20.346  0.00  0.00    +0.000 C 
ATOM      3  C   UNL     1       3.205   5.256  20.077  0.00  0.00    +0.000 C 
ATOM      4  N   UNL     1       3.602   5.862  18.810  0.00  0.00    +0.000 N 
ATOM      5  C   UNL     1       3.276   7.255  18.553  0.00  0.00    +0.000 C 
ATOM      6  C   UNL     1       1.787   7.491  18.800  0.00  0.00    +0.000 C 
ENDROOT
BRANCH   4   7
ATOM      7  C   UNL     1       4.572   5.209  18.067  0.00  0.00    +0.000 A 
ATOM      8  N   UNL     1       4.185   4.667  16.880  0.00  0.00    +0.000 NA
ATOM      9  C   UNL     1       5.110   4.156  16.044  0.00  0.00    +0.000 A 
ATOM     10  N   UNL     1       6.436   4.073  16.229  0.00  0.00    +0.000 NA
ATOM     11  C   UNL     1       6.780   4.560  17.429  0.00  0.00    +0.000 A 
ATOM     12  N   UNL     1       8.045   4.612  17.945  0.00  0.00    +0.000 N 
ATOM     13  N   UNL     1       8.097   5.126  19.188  0.00  0.00    +0.000 NA
ATOM     14  C   UNL     1       6.819   5.418  19.452  0.00  0.00    +0.000 A 
ATOM     15  C   UNL     1       5.943   5.116  18.383  0.00  0.00    +0.000 A 
ATOM     16  H   UNL     1       8.897   4.308  17.494  0.00  0.00    +0.000 HD
ENDBRANCH   4   7
BRANCH   1  20
ATOM     17  O   UNL     1       2.098   9.454  22.719  0.00  0.00    +0.000 OA
ATOM     18  C   UNL     1       1.416   8.968  21.822  0.00  0.00    +0.000 C 
ATOM     19  N   UNL     1       0.245   9.468  21.324  0.00  0.00    +0.000 N 
ATOM     20  N   UNL     1       1.869   7.812  21.259  0.00  0.00    +0.000 N 
ATOM     21  H   UNL     1      -0.149   8.986  20.536  0.00  0.00    +0.000 HD
ATOM     22  H   UNL     1       2.770   7.564  21.651  0.00  0.00    +0.000 HD
BRANCH  19  23
ATOM     23  C   UNL     1      -0.460  10.610  21.767  0.00  0.00    +0.000 A 
ATOM     24  C   UNL     1      -1.121  10.693  22.996  0.00  0.00    +0.000 A 
ATOM     25  C   UNL     1      -1.815  11.855  23.356  0.00  0.00    +0.000 A 
ATOM     26  C   UNL     1      -1.850  12.940  22.486  0.00  0.00    +0.000 A 
ATOM     27 BR   UNL     1      -2.797  14.503  22.967  0.00  0.00    +0.000 Br
ATOM     28  C   UNL     1      -1.194  12.876  21.261  0.00  0.00    +0.000 A 
ATOM     29  C   UNL     1      -0.503  11.713  20.903  0.00  0.00    +0.000 A 
ENDBRANCH  19  23
ENDBRANCH   1  20
TORSDOF 3
ENDMDL
MODEL 3
REMARK VINA RESULT:      -7.8      1.015      1.110
REMARK  Name = 
REMARK  3 active torsions:
REMARK  status: ('A' for Active; 'I' for Inactive)
REMARK    1  A    between atoms: N_3  and  C_4
REMARK    2  A    between atoms: N_11  and  C_12
REMARK    3  A    between atoms: N_15  and  C_16
REMARK                            x       y       z     vdW  Elec       q    Type
REMARK                         _______ _______ _______ _____ _____    ______ ____
ROOT
ATOM      1  C   UNL     1       7.631   6.099  17.923  0.00  0.00    +0.000 C 
ATOM      2  C   UNL     1       7.230   4.944  16.999  0.00  0.00    +0.000 C 
ATOM      3  C   UNL     1       5.724   4.696  16.984  0.00  0.00    +0.000 C 
ATOM      4  N   UNL     1       5.211   4.614  18.347  0.00  0.00    +0.000 N 
ATOM      5  C   UNL     1       5.543   5.661  19.298  0.00  0.00    +0.000 C 
ATOM      6  C   UNL     1       7.055   5.878  19.322  0.00  0.00    +0.000 C 
ENDROOT
BRANCH   4   7
ATOM      7  C   UNL     1       4.152   3.750  18.579  0.00  0.00    +0.000 A 
ATOM      8  N   UNL     1       4.265   2.484  18.089  0.00  0.00    +0.000 NA
ATOM      9  C   UNL     1       3.342   1.557  18.413  0.00  0.00    +0.000 A 
ATOM     10  N   UNL     1       2.247   1.710  19.173  0.00  0.00    +0.000 NA
ATOM     11  C   UNL     1       2.132   2.978  19.591  0.00  0.00    +0.000 A 
ATOM     12  N   UNL     1       1.126   3.482  20.368  0.00  0.00    +0.000 N 
ATOM     13  N   UNL     1       1.247   4.800  20.614  0.00  0.00    +0.000 NA
ATOM     14  C   UNL     1       2.377   5.127  19.980  0.00  0.00    +0.000 A 
ATOM     15  C   UNL     1       3.000   4.029  19.342  0.00  0.00    +0.000 A 
ATOM     16  H   UNL     1       0.339   2.972  20.747  0.00  0.00    +0.000 HD
ENDBRANCH   4   7
BRANCH   1  20
ATOM     17  O   UNL     1       7.120   9.571  17.018  0.00  0.00    +0.000 OA
ATOM     18  C   UNL     1       7.657   8.661  17.642  0.00  0.00    +0.000 C 
ATOM     19  N   UNL     1       8.635   8.786  18.589  0.00  0.00    +0.000 N 
ATOM     20  N   UNL     1       7.240   7.392  17.366  0.00  0.00    +0.000 N 
ATOM     21  H   UNL     1       8.915   7.943  19.059  0.00  0.00    +0.000 HD
ATOM     22  H   UNL     1       6.474   7.415  16.703  0.00  0.00    +0.000 HD
BRANCH  19  23
ATOM     23  C   UNL     1       9.274   9.972  19.014  0.00  0.00    +0.000 A 
ATOM     24  C   UNL     1       9.257  10.441  20.331  0.00  0.00    +0.000 A 
ATOM     25  C   UNL     1       9.900  11.638  20.671  0.00  0.00    +0.000 A 
ATOM     26  C   UNL     1      10.563  12.372  19.693  0.00  0.00    +0.000 A 
ATOM     27 BR   UNL     1      11.420  13.992  20.149  0.00  0.00    +0.000 Br
ATOM     28  C   UNL     1      10.594  11.918  18.378  0.00  0.00    +0.000 A 
ATOM     29  C   UNL     1       9.949  10.723  18.041  0.00  0.00    +0.000 A 
ENDBRANCH  19  23
ENDBRANCH   1  20
TORSDOF 3
ENDMDL
MODEL 4
REMARK VINA RESULT:      -7.7      6.156      7.955
REMARK  Name = 
REMARK  3 active torsions:
REMARK  status: ('A' for Active; 'I' for Inactive)
REMARK    1  A    between atoms: N_3  and  C_4
REMARK    2  A    between atoms: N_11  and  C_12
REMARK    3  A    between atoms: N_15  and  C_16
REMARK                            x       y       z     vdW  Elec       q    Type
REMARK                         _______ _______ _______ _____ _____    ______ ____
ROOT
ATOM      1  C   UNL     1       1.412   6.876  20.125  0.00  0.00    +0.000 C 
ATOM      2  C   UNL     1       1.975   5.458  20.264  0.00  0.00    +0.000 C 
ATOM      3  C   UNL     1       3.443   5.362  19.853  0.00  0.00    +0.000 C 
ATOM      4  N   UNL     1       3.645   5.991  18.552  0.00  0.00    +0.000 N 
ATOM      5  C   UNL     1       3.141   7.334  18.324  0.00  0.00    +0.000 C 
ATOM      6  C   UNL     1       1.665   7.406  18.713  0.00  0.00    +0.000 C 
ENDROOT
BRANCH   4   7
ATOM      7  C   UNL     1       4.607   5.440  17.721  0.00  0.00    +0.000 A 
ATOM      8  N   UNL     1       4.346   4.209  17.200  0.00  0.00    +0.000 NA
ATOM      9  C   UNL     1       5.167   3.689  16.267  0.00  0.00    +0.000 A 
ATOM     10  N   UNL     1       6.287   4.225  15.760  0.00  0.00    +0.000 NA
ATOM     11  C   UNL     1       6.550   5.408  16.333  0.00  0.00    +0.000 A 
ATOM     12  N   UNL     1       7.621   6.214  16.063  0.00  0.00    +0.000 N 
ATOM     13  N   UNL     1       7.651   7.334  16.809  0.00  0.00    +0.000 NA
ATOM     14  C   UNL     1       6.550   7.230  17.562  0.00  0.00    +0.000 A 
ATOM     15  C   UNL     1       5.798   6.062  17.296  0.00  0.00    +0.000 A 
ATOM     16  H   UNL     1       8.354   6.042  15.389  0.00  0.00    +0.000 HD
ENDBRANCH   4   7
BRANCH   1  20
ATOM     17  O   UNL     1       2.153   9.476  22.539  0.00  0.00    +0.000 OA
ATOM     18  C   UNL     1       1.456   8.918  21.697  0.00  0.00    +0.000 C 
ATOM     19  N   UNL     1       0.234   9.332  21.245  0.00  0.00    +0.000 N 
ATOM     20  N   UNL     1       1.946   7.769  21.151  0.00  0.00    +0.000 N 
ATOM     21  H   UNL     1      -0.171   8.799  20.495  0.00  0.00    +0.000 HD
ATOM     22  H   UNL     1       2.879   7.588  21.504  0.00  0.00    +0.000 HD
BRANCH  19  23
ATOM     23  C   UNL     1      -0.513  10.448  21.684  0.00  0.00    +0.000 A 
ATOM     24  C   UNL     1      -1.057  10.570  22.966  0.00  0.00    +0.000 A 
ATOM     25  C   UNL     1      -1.803  11.700  23.321  0.00  0.00    +0.000 A 
ATOM     26  C   UNL     1      -2.008  12.716  22.392  0.00  0.00    +0.000 A 
ATOM     27 BR   UNL     1      -3.025  14.236  22.867  0.00  0.00    +0.000 Br
ATOM     28  C   UNL     1      -1.470  12.613  21.113  0.00  0.00    +0.000 A 
ATOM     29  C   UNL     1      -0.727  11.481  20.761  0.00  0.00    +0.000 A 
ENDBRANCH  19  23
ENDBRANCH   1  20
TORSDOF 3
ENDMDL
MODEL 5
REMARK VINA RESULT:      -7.5      1.777      2.676
REMARK  Name = 
REMARK  3 active torsions:
REMARK  status: ('A' for Active; 'I' for Inactive)
REMARK    1  A    between atoms: N_3  and  C_4
REMARK    2  A    between atoms: N_11  and  C_12
REMARK    3  A    between atoms: N_15  and  C_16
REMARK                            x       y       z     vdW  Elec       q    Type
REMARK                         _______ _______ _______ _____ _____    ______ ____
ROOT
ATOM      1  C   UNL     1       5.771   6.343  16.818  0.00  0.00    +0.000 C 
ATOM      2  C   UNL     1       4.555   7.014  17.464  0.00  0.00    +0.000 C 
ATOM      3  C   UNL     1       3.895   6.141  18.529  0.00  0.00    +0.000 C 
ATOM      4  N   UNL     1       3.666   4.797  18.009  0.00  0.00    +0.000 N 
ATOM      5  C   UNL     1       4.759   4.082  17.374  0.00  0.00    +0.000 C 
ATOM      6  C   UNL     1       5.391   4.958  16.293  0.00  0.00    +0.000 C 
ENDROOT
BRANCH   4   7
ATOM      7  C   UNL     1       2.539   4.125  18.456  0.00  0.00    +0.000 A 
ATOM      8  N   UNL     1       1.652   3.705  17.512  0.00  0.00    +0.000 NA
ATOM      9  C   UNL     1       0.620   2.915  17.869  0.00  0.00    +0.000 A 
ATOM     10  N   UNL     1       0.301   2.473  19.094  0.00  0.00    +0.000 NA
ATOM     11  C   UNL     1       1.157   2.951  20.009  0.00  0.00    +0.000 A 
ATOM     12  N   UNL     1       1.113   2.712  21.355  0.00  0.00    +0.000 N 
ATOM     13  N   UNL     1       2.083   3.344  22.043  0.00  0.00    +0.000 NA
ATOM     14  C   UNL     1       2.765   3.988  21.090  0.00  0.00    +0.000 A 
ATOM     15  C   UNL     1       2.257   3.763  19.788  0.00  0.00    +0.000 A 
ATOM     16  H   UNL     1       0.444   2.136  21.847  0.00  0.00    +0.000 HD
ENDBRANCH   4   7
BRANCH   1  20
ATOM     17  O   UNL     1       8.654   6.900  18.943  0.00  0.00    +0.000 OA
ATOM     18  C   UNL     1       7.763   7.254  18.177  0.00  0.00    +0.000 C 
ATOM     19  N   UNL     1       7.540   8.520  17.714  0.00  0.00    +0.000 N 
ATOM     20  N   UNL     1       6.906   6.289  17.737  0.00  0.00    +0.000 N 
ATOM     21  H   UNL     1       6.811   8.626  17.031  0.00  0.00    +0.000 HD
ATOM     22  H   UNL     1       7.197   5.382  18.085  0.00  0.00    +0.000 HD
BRANCH  19  23
ATOM     23  C   UNL     1       8.243   9.697  18.056  0.00  0.00    +0.000 A 
ATOM     24  C   UNL     1       9.259   9.751  19.015  0.00  0.00    +0.000 A 
ATOM     25  C   UNL     1       9.896  10.961  19.313  0.00  0.00    +0.000 A 
ATOM     26  C   UNL     1       9.519  12.126  18.651  0.00  0.00    +0.000 A 
ATOM     27 BR   UNL     1      10.372  13.761  19.061  0.00  0.00    +0.000 Br
ATOM     28  C   UNL     1       8.514  12.090  17.691  0.00  0.00    +0.000 A 
ATOM     29  C   UNL     1       7.877  10.879  17.397  0.00  0.00    +0.000 A 
ENDBRANCH  19  23
ENDBRANCH   1  20
TORSDOF 3
ENDMDL
MODEL 6
REMARK VINA RESULT:      -7.4      5.903      7.714
REMARK  Name = 
REMARK  3 active torsions:
REMARK  status: ('A' for Active; 'I' for Inactive)
REMARK    1  A    between atoms: N_3  and  C_4
REMARK    2  A    between atoms: N_11  and  C_12
REMARK    3  A    between atoms: N_15  and  C_16
REMARK                            x       y       z     vdW  Elec       q    Type
REMARK                         _______ _______ _______ _____ _____    ______ ____
ROOT
ATOM      1  C   UNL     1       1.829   6.649  19.588  0.00  0.00    +0.000 C 
ATOM      2  C   UNL     1       2.380   5.224  19.715  0.00  0.00    +0.000 C 
ATOM      3  C   UNL     1       3.905   5.174  19.661  0.00  0.00    +0.000 C 
ATOM      4  N   UNL     1       4.396   5.936  18.518  0.00  0.00    +0.000 N 
ATOM      5  C   UNL     1       3.926   7.295  18.311  0.00  0.00    +0.000 C 
ATOM      6  C   UNL     1       2.398   7.324  18.339  0.00  0.00    +0.000 C 
ENDROOT
BRANCH   4   7
ATOM      7  C   UNL     1       5.543   5.476  17.891  0.00  0.00    +0.000 A 
ATOM      8  N   UNL     1       6.669   5.377  18.650  0.00  0.00    +0.000 NA
ATOM      9  C   UNL     1       7.771   4.792  18.140  0.00  0.00    +0.000 A 
ATOM     10  N   UNL     1       7.944   4.284  16.912  0.00  0.00    +0.000 NA
ATOM     11  C   UNL     1       6.840   4.447  16.170  0.00  0.00    +0.000 A 
ATOM     12  N   UNL     1       6.679   4.060  14.868  0.00  0.00    +0.000 N 
ATOM     13  N   UNL     1       5.473   4.376  14.359  0.00  0.00    +0.000 NA
ATOM     14  C   UNL     1       4.855   4.969  15.386  0.00  0.00    +0.000 A 
ATOM     15  C   UNL     1       5.641   5.022  16.560  0.00  0.00    +0.000 A 
ATOM     16  H   UNL     1       7.358   3.587  14.288  0.00  0.00    +0.000 HD
ENDBRANCH   4   7
BRANCH   1  20
ATOM     17  O   UNL     1       1.928   9.006  22.339  0.00  0.00    +0.000 OA
ATOM     18  C   UNL     1       1.478   8.550  21.292  0.00  0.00    +0.000 C 
ATOM     19  N   UNL     1       0.433   9.050  20.567  0.00  0.00    +0.000 N 
ATOM     20  N   UNL     1       2.078   7.431  20.797  0.00  0.00    +0.000 N 
ATOM     21  H   UNL     1       0.238   8.598  19.690  0.00  0.00    +0.000 HD
ATOM     22  H   UNL     1       2.876   7.182  21.371  0.00  0.00    +0.000 HD
BRANCH  19  23
ATOM     23  C   UNL     1      -0.386  10.155  20.887  0.00  0.00    +0.000 A 
ATOM     24  C   UNL     1      -0.922  11.033  19.939  0.00  0.00    +0.000 A 
ATOM     25  C   UNL     1      -1.711  12.119  20.337  0.00  0.00    +0.000 A 
ATOM     26  C   UNL     1      -1.967  12.332  21.688  0.00  0.00    +0.000 A 
ATOM     27 BR   UNL     1      -3.022  13.805  22.225  0.00  0.00    +0.000 Br
ATOM     28  C   UNL     1      -1.446  11.467  22.644  0.00  0.00    +0.000 A 
ATOM     29  C   UNL     1      -0.656  10.384  22.243  0.00  0.00    +0.000 A 
ENDBRANCH  19  23
ENDBRANCH   1  20
TORSDOF 3
ENDMDL
MODEL 7
REMARK VINA RESULT:      -7.3      5.317      7.057
REMARK  Name = 
REMARK  3 active torsions:
REMARK  status: ('A' for Active; 'I' for Inactive)
REMARK    1  A    between atoms: N_3  and  C_4
REMARK    2  A    between atoms: N_11  and  C_12
REMARK    3  A    between atoms: N_15  and  C_16
REMARK                            x       y       z     vdW  Elec       q    Type
REMARK                         _______ _______ _______ _____ _____    ______ ____
ROOT
ATOM      1  C   UNL     1       1.673   5.979  19.575  0.00  0.00    +0.000 C 
ATOM      2  C   UNL     1       2.415   4.654  19.779  0.00  0.00    +0.000 C 
ATOM      3  C   UNL     1       3.933   4.816  19.747  0.00  0.00    +0.000 C 
ATOM      4  N   UNL     1       4.335   5.584  18.573  0.00  0.00    +0.000 N 
ATOM      5  C   UNL     1       3.683   6.852  18.294  0.00  0.00    +0.000 C 
ATOM      6  C   UNL     1       2.166   6.668  18.302  0.00  0.00    +0.000 C 
ENDROOT
BRANCH   4   7
ATOM      7  C   UNL     1       5.546   5.260  17.984  0.00  0.00    +0.000 A 
ATOM      8  N   UNL     1       6.618   5.111  18.810  0.00  0.00    +0.000 NA
ATOM      9  C   UNL     1       7.783   4.646  18.317  0.00  0.00    +0.000 A 
ATOM     10  N   UNL     1       8.070   4.311  17.051  0.00  0.00    +0.000 NA
ATOM     11  C   UNL     1       7.016   4.524  16.252  0.00  0.00    +0.000 A 
ATOM     12  N   UNL     1       6.969   4.305  14.903  0.00  0.00    +0.000 N 
ATOM     13  N   UNL     1       5.788   4.633  14.346  0.00  0.00    +0.000 NA
ATOM     14  C   UNL     1       5.067   5.058  15.389  0.00  0.00    +0.000 A 
ATOM     15  C   UNL     1       5.763   4.990  16.618  0.00  0.00    +0.000 A 
ATOM     16  H   UNL     1       7.713   3.941  14.322  0.00  0.00    +0.000 HD
ENDBRANCH   4   7
BRANCH   1  20
ATOM     17  O   UNL     1       1.738   8.637  22.038  0.00  0.00    +0.000 OA
ATOM     18  C   UNL     1       1.515   8.169  20.926  0.00  0.00    +0.000 C 
ATOM     19  N   UNL     1       1.021   8.838  19.842  0.00  0.00    +0.000 N 
ATOM     20  N   UNL     1       1.788   6.845  20.747  0.00  0.00    +0.000 N 
ATOM     21  H   UNL     1       0.968   8.323  18.982  0.00  0.00    +0.000 HD
ATOM     22  H   UNL     1       2.207   6.460  21.586  0.00  0.00    +0.000 HD
BRANCH  19  23
ATOM     23  C   UNL     1       0.610  10.188  19.780  0.00  0.00    +0.000 A 
ATOM     24  C   UNL     1       1.277  11.177  19.049  0.00  0.00    +0.000 A 
ATOM     25  C   UNL     1       0.817  12.499  19.052  0.00  0.00    +0.000 A 
ATOM     26  C   UNL     1      -0.314  12.840  19.786  0.00  0.00    +0.000 A 
ATOM     27 BR   UNL     1      -0.927  14.627  19.799  0.00  0.00    +0.000 Br
ATOM     28  C   UNL     1      -0.993  11.869  20.516  0.00  0.00    +0.000 A 
ATOM     29  C   UNL     1      -0.530  10.548  20.513  0.00  0.00    +0.000 A 
ENDBRANCH  19  23
ENDBRANCH   1  20
TORSDOF 3
ENDMDL
MODEL 8
REMARK VINA RESULT:      -7.3      7.011      8.350
REMARK  Name = 
REMARK  3 active torsions:
REMARK  status: ('A' for Active; 'I' for Inactive)
REMARK    1  A    between atoms: N_3  and  C_4
REMARK    2  A    between atoms: N_11  and  C_12
REMARK    3  A    between atoms: N_15  and  C_16
REMARK                            x       y       z     vdW  Elec       q    Type
REMARK                         _______ _______ _______ _____ _____    ______ ____
ROOT
ATOM      1  C   UNL     1       1.664   9.561  18.860  0.00  0.00    +0.000 C 
ATOM      2  C   UNL     1       2.455   8.650  17.916  0.00  0.00    +0.000 C 
ATOM      3  C   UNL     1       2.128   7.171  18.109  0.00  0.00    +0.000 C 
ATOM      4  N   UNL     1       2.198   6.819  19.524  0.00  0.00    +0.000 N 
ATOM      5  C   UNL     1       1.484   7.628  20.496  0.00  0.00    +0.000 C 
ATOM      6  C   UNL     1       1.843   9.101  20.308  0.00  0.00    +0.000 C 
ENDROOT
BRANCH   4   7
ATOM      7  C   UNL     1       2.635   5.543  19.841  0.00  0.00    +0.000 A 
ATOM      8  N   UNL     1       1.751   4.723  20.474  0.00  0.00    +0.000 NA
ATOM      9  C   UNL     1       2.062   3.426  20.669  0.00  0.00    +0.000 A 
ATOM     10  N   UNL     1       3.194   2.789  20.336  0.00  0.00    +0.000 NA
ATOM     11  C   UNL     1       4.066   3.633  19.769  0.00  0.00    +0.000 A 
ATOM     12  N   UNL     1       5.321   3.318  19.326  0.00  0.00    +0.000 N 
ATOM     13  N   UNL     1       5.993   4.371  18.824  0.00  0.00    +0.000 NA
ATOM     14  C   UNL     1       5.120   5.376  18.946  0.00  0.00    +0.000 A 
ATOM     15  C   UNL     1       3.882   4.980  19.503  0.00  0.00    +0.000 A 
ATOM     16  H   UNL     1       5.761   2.408  19.349  0.00  0.00    +0.000 HD
ENDBRANCH   4   7
BRANCH   1  20
ATOM     17  O   UNL     1      -1.898  10.130  18.508  0.00  0.00    +0.000 OA
ATOM     18  C   UNL     1      -0.807  10.271  19.051  0.00  0.00    +0.000 C 
ATOM     19  N   UNL     1      -0.543  11.000  20.177  0.00  0.00    +0.000 N 
ATOM     20  N   UNL     1       0.255   9.635  18.478  0.00  0.00    +0.000 N 
ATOM     21  H   UNL     1       0.395  10.950  20.534  0.00  0.00    +0.000 HD
ATOM     22  H   UNL     1      -0.058   9.074  17.694  0.00  0.00    +0.000 HD
BRANCH  19  23
ATOM     23  C   UNL     1      -1.447  11.789  20.922  0.00  0.00    +0.000 A 
ATOM     24  C   UNL     1      -2.301  12.742  20.359  0.00  0.00    +0.000 A 
ATOM     25  C   UNL     1      -3.157  13.500  21.167  0.00  0.00    +0.000 A 
ATOM     26  C   UNL     1      -3.162  13.307  22.545  0.00  0.00    +0.000 A 
ATOM     27 BR   UNL     1      -4.308  14.338  23.637  0.00  0.00    +0.000 Br
ATOM     28  C   UNL     1      -2.322  12.360  23.122  0.00  0.00    +0.000 A 
ATOM     29  C   UNL     1      -1.466  11.606  22.312  0.00  0.00    +0.000 A 
ENDBRANCH  19  23
ENDBRANCH   1  20
TORSDOF 3
ENDMDL
MODEL 9
REMARK VINA RESULT:      -7.1      8.224     10.380
REMARK  Name = 
REMARK  3 active torsions:
REMARK  status: ('A' for Active; 'I' for Inactive)
REMARK    1  A    between atoms: N_3  and  C_4
REMARK    2  A    between atoms: N_11  and  C_12
REMARK    3  A    between atoms: N_15  and  C_16
REMARK                            x       y       z     vdW  Elec       q    Type
REMARK                         _______ _______ _______ _____ _____    ______ ____
ROOT
ATOM      1  C   UNL     1       0.688  11.015  19.389  0.00  0.00    +0.000 C 
ATOM      2  C   UNL     1      -0.473  10.180  19.940  0.00  0.00    +0.000 C 
ATOM      3  C   UNL     1      -1.686  10.170  19.013  0.00  0.00    +0.000 C 
ATOM      4  N   UNL     1      -2.028  11.532  18.614  0.00  0.00    +0.000 N 
ATOM      5  C   UNL     1      -0.992  12.401  18.085  0.00  0.00    +0.000 C 
ATOM      6  C   UNL     1       0.203  12.422  19.037  0.00  0.00    +0.000 C 
ENDROOT
BRANCH   4   7
ATOM      7  C   UNL     1      -3.369  11.820  18.419  0.00  0.00    +0.000 A 
ATOM      8  N   UNL     1      -3.879  11.594  17.176  0.00  0.00    +0.000 NA
ATOM      9  C   UNL     1      -5.205  11.707  16.966  0.00  0.00    +0.000 A 
ATOM     10  N   UNL     1      -6.155  12.055  17.846  0.00  0.00    +0.000 NA
ATOM     11  C   UNL     1      -5.617  12.328  19.043  0.00  0.00    +0.000 A 
ATOM     12  N   UNL     1      -6.297  12.729  20.160  0.00  0.00    +0.000 N 
ATOM     13  N   UNL     1      -5.500  12.962  21.219  0.00  0.00    +0.000 NA
ATOM     14  C   UNL     1      -4.279  12.682  20.750  0.00  0.00    +0.000 A 
ATOM     15  C   UNL     1      -4.282  12.251  19.403  0.00  0.00    +0.000 A 
ATOM     16  H   UNL     1      -7.296  12.863  20.246  0.00  0.00    +0.000 HD
ENDBRANCH   4   7
BRANCH   1  20
ATOM     17  O   UNL     1       2.407   8.856  17.040  0.00  0.00    +0.000 OA
ATOM     18  C   UNL     1       1.919   9.131  18.131  0.00  0.00    +0.000 C 
ATOM     19  N   UNL     1       1.902   8.336  19.242  0.00  0.00    +0.000 N 
ATOM     20  N   UNL     1       1.332  10.356  18.254  0.00  0.00    +0.000 N 
ATOM     21  H   UNL     1       1.526   8.743  20.080  0.00  0.00    +0.000 HD
ATOM     22  H   UNL     1       1.455  10.888  17.400  0.00  0.00    +0.000 HD
BRANCH  19  23
ATOM     23  C   UNL     1       2.388   7.015  19.361  0.00  0.00    +0.000 A 
ATOM     24  C   UNL     1       3.311   6.438  18.483  0.00  0.00    +0.000 A 
ATOM     25  C   UNL     1       3.730   5.114  18.656  0.00  0.00    +0.000 A 
ATOM     26  C   UNL     1       3.228   4.359  19.712  0.00  0.00    +0.000 A 
ATOM     27 BR   UNL     1       3.785   2.568  19.938  0.00  0.00    +0.000 Br
ATOM     28  C   UNL     1       2.312   4.917  20.597  0.00  0.00    +0.000 A 
ATOM     29  C   UNL     1       1.893   6.241  20.420  0.00  0.00    +0.000 A 
ENDBRANCH  19  23
ENDBRANCH   1  20
TORSDOF 3
ENDMDL
