MODEL 1
REMARK VINA RESULT:      -9.6      0.000      0.000
REMARK  Name = 
REMARK  8 active torsions:
REMARK  status: ('A' for Active; 'I' for Inactive)
REMARK    1  A    between atoms: C_1  and  O_2
REMARK    2  A    between atoms: O_2  and  C_3
REMARK    3  A    between atoms: C_6  and  C_7
REMARK    4  A    between atoms: C_13  and  C_14
REMARK    5  A    between atoms: C_17  and  O_18
REMARK    6  A    between atoms: O_18  and  C_19
REMARK    7  A    between atoms: C_22  and  N_23
REMARK    8  A    between atoms: C_27  and  N_28
REMARK                            x       y       z     vdW  Elec       q    Type
REMARK                         _______ _______ _______ _____ _____    ______ ____
ROOT
ATOM      1  C   UNL     1       2.207   7.945  18.954  0.00  0.00    +0.000 A 
ATOM      2  C   UNL     1       3.012   7.913  17.804  0.00  0.00    +0.000 A 
ATOM      3  C   UNL     1       3.876   6.835  17.557  0.00  0.00    +0.000 A 
ATOM      4  C   UNL     1       3.945   5.768  18.452  0.00  0.00    +0.000 A 
ATOM      5  C   UNL     1       3.111   5.761  19.572  0.00  0.00    +0.000 A 
ATOM      6  C   UNL     1       2.276   6.854  19.836  0.00  0.00    +0.000 A 
ENDROOT
BRANCH   1  13
ATOM      7  C   UNL     1      -1.056  11.616  22.154  0.00  0.00    +0.000 C 
ATOM      8  O   UNL     1      -0.261  11.087  22.923  0.00  0.00    +0.000 OA
ATOM      9  N   UNL     1      -1.088  11.486  20.783  0.00  0.00    +0.000 N 
ATOM     10  C   UNL     1      -0.233  10.690  20.051  0.00  0.00    +0.000 A 
ATOM     11  N   UNL     1      -0.103  10.785  18.746  0.00  0.00    +0.000 NA
ATOM     12  N   UNL     1       0.814   9.874  18.245  0.00  0.00    +0.000 NA
ATOM     13  C   UNL     1       1.280   9.064  19.179  0.00  0.00    +0.000 A 
ATOM     14  S   UNL     1       0.690   9.439  20.749  0.00  0.00    +0.000 S 
ATOM     15  H   UNL     1      -1.643  12.120  20.226  0.00  0.00    +0.000 HD
BRANCH   7  19
ATOM     16  C   UNL     1      -3.775  14.416  23.943  0.00  0.00    +0.000 A 
ATOM     17  C   UNL     1      -2.746  14.842  23.103  0.00  0.00    +0.000 A 
ATOM     18  C   UNL     1      -1.892  13.914  22.505  0.00  0.00    +0.000 A 
ATOM     19  C   UNL     1      -2.055  12.544  22.748  0.00  0.00    +0.000 A 
ATOM     20  C   UNL     1      -3.079  12.113  23.597  0.00  0.00    +0.000 A 
ATOM     21  C   UNL     1      -3.936  13.051  24.195  0.00  0.00    +0.000 A 
BRANCH  16  23
ATOM     22  C   UNL     1      -3.778  16.529  25.011  0.00  0.00    +0.000 C 
ATOM     23  O   UNL     1      -4.511  15.423  24.501  0.00  0.00    +0.000 OA
ENDBRANCH  16  23
ENDBRANCH   7  19
ENDBRANCH   1  13
BRANCH   4  24
ATOM     24  O   UNL     1       4.818   4.747  18.133  0.00  0.00    +0.000 OA
BRANCH  24  25
ATOM     25  C   UNL     1       5.473   4.766  16.920  0.00  0.00    +0.000 A 
ATOM     26  C   UNL     1       4.885   4.280  15.743  0.00  0.00    +0.000 A 
ATOM     27  C   UNL     1       5.559   4.353  14.521  0.00  0.00    +0.000 A 
ATOM     28  C   UNL     1       6.864   4.861  14.472  0.00  0.00    +0.000 A 
ATOM     29  C   UNL     1       7.510   5.273  15.643  0.00  0.00    +0.000 A 
ATOM     30  C   UNL     1       6.802   5.212  16.854  0.00  0.00    +0.000 A 
BRANCH  28  31
ATOM     31  N   UNL     1       7.555   4.950  13.180  0.00  0.00    +0.000 N 
ATOM     32  O   UNL     1       8.509   5.735  13.092  0.00  0.00    +0.000 OA
ATOM     33  O   UNL     1       7.148   4.226  12.262  0.00  0.00    +0.000 OA
ENDBRANCH  28  31
BRANCH  30  34
ATOM     34  N   UNL     1       7.504   5.602  18.060  0.00  0.00    +0.000 N 
ATOM     35  O   UNL     1       7.660   6.810  18.268  0.00  0.00    +0.000 OA
ATOM     36  O   UNL     1       7.949   4.681  18.765  0.00  0.00    +0.000 OA
ENDBRANCH  30  34
ENDBRANCH  24  25
ENDBRANCH   4  24
TORSDOF 7
ENDMDL
MODEL 2
REMARK VINA RESULT:      -9.1      0.566      1.283
REMARK  Name = 
REMARK  8 active torsions:
REMARK  status: ('A' for Active; 'I' for Inactive)
REMARK    1  A    between atoms: C_1  and  O_2
REMARK    2  A    between atoms: O_2  and  C_3
REMARK    3  A    between atoms: C_6  and  C_7
REMARK    4  A    between atoms: C_13  and  C_14
REMARK    5  A    between atoms: C_17  and  O_18
REMARK    6  A    between atoms: O_18  and  C_19
REMARK    7  A    between atoms: C_22  and  N_23
REMARK    8  A    between atoms: C_27  and  N_28
REMARK                            x       y       z     vdW  Elec       q    Type
REMARK                         _______ _______ _______ _____ _____    ______ ____
ROOT
ATOM      1  C   UNL     1       1.891   8.274  18.856  0.00  0.00    +0.000 A 
ATOM      2  C   UNL     1       2.044   7.195  19.741  0.00  0.00    +0.000 A 
ATOM      3  C   UNL     1       2.993   6.190  19.499  0.00  0.00    +0.000 A 
ATOM      4  C   UNL     1       3.811   6.251  18.371  0.00  0.00    +0.000 A 
ATOM      5  C   UNL     1       3.707   7.347  17.510  0.00  0.00    +0.000 A 
ATOM      6  C   UNL     1       2.734   8.329  17.733  0.00  0.00    +0.000 A 
ENDROOT
BRANCH   1  13
ATOM      7  C   UNL     1      -1.140  11.962  22.258  0.00  0.00    +0.000 C 
ATOM      8  O   UNL     1      -0.190  11.566  22.924  0.00  0.00    +0.000 OA
ATOM      9  N   UNL     1      -1.375  11.708  20.925  0.00  0.00    +0.000 N 
ATOM     10  C   UNL     1      -0.579  10.916  20.125  0.00  0.00    +0.000 A 
ATOM     11  N   UNL     1      -0.665  10.903  18.814  0.00  0.00    +0.000 NA
ATOM     12  N   UNL     1       0.239  10.022  18.240  0.00  0.00    +0.000 NA
ATOM     13  C   UNL     1       0.917   9.337  19.143  0.00  0.00    +0.000 A 
ATOM     14  S   UNL     1       0.549   9.806  20.756  0.00  0.00    +0.000 S 
ATOM     15  H   UNL     1      -2.065  12.246  20.419  0.00  0.00    +0.000 HD
BRANCH   7  19
ATOM     16  C   UNL     1      -4.046  14.586  24.020  0.00  0.00    +0.000 A 
ATOM     17  C   UNL     1      -4.433  13.489  23.251  0.00  0.00    +0.000 A 
ATOM     18  C   UNL     1      -3.474  12.629  22.713  0.00  0.00    +0.000 A 
ATOM     19  C   UNL     1      -2.112  12.862  22.935  0.00  0.00    +0.000 A 
ATOM     20  C   UNL     1      -1.718  13.966  23.696  0.00  0.00    +0.000 A 
ATOM     21  C   UNL     1      -2.687  14.828  24.236  0.00  0.00    +0.000 A 
BRANCH  16  23
ATOM     22  C   UNL     1      -4.749  16.725  24.752  0.00  0.00    +0.000 C 
ATOM     23  O   UNL     1      -5.075  15.375  24.449  0.00  0.00    +0.000 OA
ENDBRANCH  16  23
ENDBRANCH   7  19
ENDBRANCH   1  13
BRANCH   4  24
ATOM     24  O   UNL     1       4.721   5.225  18.208  0.00  0.00    +0.000 OA
BRANCH  24  25
ATOM     25  C   UNL     1       5.384   5.088  17.007  0.00  0.00    +0.000 A 
ATOM     26  C   UNL     1       4.777   4.520  15.877  0.00  0.00    +0.000 A 
ATOM     27  C   UNL     1       5.461   4.435  14.662  0.00  0.00    +0.000 A 
ATOM     28  C   UNL     1       6.793   4.864  14.578  0.00  0.00    +0.000 A 
ATOM     29  C   UNL     1       7.452   5.355  15.710  0.00  0.00    +0.000 A 
ATOM     30  C   UNL     1       6.735   5.454  16.913  0.00  0.00    +0.000 A 
BRANCH  28  31
ATOM     31  N   UNL     1       7.496   4.788  13.292  0.00  0.00    +0.000 N 
ATOM     32  O   UNL     1       7.078   3.975  12.456  0.00  0.00    +0.000 OA
ATOM     33  O   UNL     1       8.457   5.549  13.119  0.00  0.00    +0.000 OA
ENDBRANCH  28  31
BRANCH  30  34
ATOM     34  N   UNL     1       7.450   5.923  18.082  0.00  0.00    +0.000 N 
ATOM     35  O   UNL     1       7.698   7.132  18.156  0.00  0.00    +0.000 OA
ATOM     36  O   UNL     1       7.811   5.057  18.896  0.00  0.00    +0.000 OA
ENDBRANCH  30  34
ENDBRANCH  24  25
ENDBRANCH   4  24
TORSDOF 7
ENDMDL
MODEL 3
REMARK VINA RESULT:      -8.7      1.705      2.578
REMARK  Name = 
REMARK  8 active torsions:
REMARK  status: ('A' for Active; 'I' for Inactive)
REMARK    1  A    between atoms: C_1  and  O_2
REMARK    2  A    between atoms: O_2  and  C_3
REMARK    3  A    between atoms: C_6  and  C_7
REMARK    4  A    between atoms: C_13  and  C_14
REMARK    5  A    between atoms: C_17  and  O_18
REMARK    6  A    between atoms: O_18  and  C_19
REMARK    7  A    between atoms: C_22  and  N_23
REMARK    8  A    between atoms: C_27  and  N_28
REMARK                            x       y       z     vdW  Elec       q    Type
REMARK                         _______ _______ _______ _____ _____    ______ ____
ROOT
ATOM      1  C   UNL     1       1.165   8.953  19.508  0.00  0.00    +0.000 A 
ATOM      2  C   UNL     1       1.423   8.046  20.550  0.00  0.00    +0.000 A 
ATOM      3  C   UNL     1       2.243   6.926  20.346  0.00  0.00    +0.000 A 
ATOM      4  C   UNL     1       2.825   6.697  19.099  0.00  0.00    +0.000 A 
ATOM      5  C   UNL     1       2.621   7.619  18.070  0.00  0.00    +0.000 A 
ATOM      6  C   UNL     1       1.773   8.716  18.264  0.00  0.00    +0.000 A 
ENDROOT
BRANCH   1  13
ATOM      7  C   UNL     1      -1.817  12.815  22.758  0.00  0.00    +0.000 C 
ATOM      8  O   UNL     1      -1.076  12.206  23.522  0.00  0.00    +0.000 OA
ATOM      9  N   UNL     1      -1.844  12.717  21.384  0.00  0.00    +0.000 N 
ATOM     10  C   UNL     1      -1.051  11.867  20.642  0.00  0.00    +0.000 A 
ATOM     11  N   UNL     1      -0.899  11.979  19.342  0.00  0.00    +0.000 NA
ATOM     12  N   UNL     1      -0.055  11.005  18.829  0.00  0.00    +0.000 NA
ATOM     13  C   UNL     1       0.333  10.141  19.749  0.00  0.00    +0.000 A 
ATOM     14  S   UNL     1      -0.242  10.530  21.322  0.00  0.00    +0.000 S 
ATOM     15  H   UNL     1      -2.339  13.406  20.835  0.00  0.00    +0.000 HD
BRANCH   7  19
ATOM     16  C   UNL     1      -4.547  15.747  24.301  0.00  0.00    +0.000 A 
ATOM     17  C   UNL     1      -4.957  14.799  23.362  0.00  0.00    +0.000 A 
ATOM     18  C   UNL     1      -4.063  13.834  22.897  0.00  0.00    +0.000 A 
ATOM     19  C   UNL     1      -2.742  13.810  23.362  0.00  0.00    +0.000 A 
ATOM     20  C   UNL     1      -2.324  14.763  24.295  0.00  0.00    +0.000 A 
ATOM     21  C   UNL     1      -3.229  15.732  24.762  0.00  0.00    +0.000 A 
BRANCH  16  23
ATOM     22  C   UNL     1      -5.067  18.012  24.753  0.00  0.00    +0.000 C 
ATOM     23  O   UNL     1      -5.502  16.663  24.641  0.00  0.00    +0.000 OA
ENDBRANCH  16  23
ENDBRANCH   7  19
ENDBRANCH   1  13
BRANCH   4  24
ATOM     24  O   UNL     1       3.621   5.574  18.984  0.00  0.00    +0.000 OA
BRANCH  24  25
ATOM     25  C   UNL     1       4.401   5.407  17.859  0.00  0.00    +0.000 A 
ATOM     26  C   UNL     1       5.362   6.351  17.467  0.00  0.00    +0.000 A 
ATOM     27  C   UNL     1       6.167   6.132  16.346  0.00  0.00    +0.000 A 
ATOM     28  C   UNL     1       5.977   4.986  15.562  0.00  0.00    +0.000 A 
ATOM     29  C   UNL     1       4.969   4.069  15.879  0.00  0.00    +0.000 A 
ATOM     30  C   UNL     1       4.190   4.300  17.024  0.00  0.00    +0.000 A 
BRANCH  28  31
ATOM     31  N   UNL     1       6.841   4.757  14.398  0.00  0.00    +0.000 N 
ATOM     32  O   UNL     1       7.846   5.471  14.279  0.00  0.00    +0.000 OA
ATOM     33  O   UNL     1       6.516   3.856  13.612  0.00  0.00    +0.000 OA
ENDBRANCH  28  31
BRANCH  30  34
ATOM     34  N   UNL     1       3.123   3.362  17.308  0.00  0.00    +0.000 N 
ATOM     35  O   UNL     1       1.966   3.715  17.056  0.00  0.00    +0.000 OA
ATOM     36  O   UNL     1       3.454   2.290  17.840  0.00  0.00    +0.000 OA
ENDBRANCH  30  34
ENDBRANCH  24  25
ENDBRANCH   4  24
TORSDOF 7
ENDMDL
MODEL 4
REMARK VINA RESULT:      -8.7      1.788      2.854
REMARK  Name = 
REMARK  8 active torsions:
REMARK  status: ('A' for Active; 'I' for Inactive)
REMARK    1  A    between atoms: C_1  and  O_2
REMARK    2  A    between atoms: O_2  and  C_3
REMARK    3  A    between atoms: C_6  and  C_7
REMARK    4  A    between atoms: C_13  and  C_14
REMARK    5  A    between atoms: C_17  and  O_18
REMARK    6  A    between atoms: O_18  and  C_19
REMARK    7  A    between atoms: C_22  and  N_23
REMARK    8  A    between atoms: C_27  and  N_28
REMARK                            x       y       z     vdW  Elec       q    Type
REMARK                         _______ _______ _______ _____ _____    ______ ____
ROOT
ATOM      1  C   UNL     1       1.019   9.305  19.488  0.00  0.00    +0.000 A 
ATOM      2  C   UNL     1       1.248   8.419  20.553  0.00  0.00    +0.000 A 
ATOM      3  C   UNL     1       2.008   7.253  20.372  0.00  0.00    +0.000 A 
ATOM      4  C   UNL     1       2.557   6.956  19.125  0.00  0.00    +0.000 A 
ATOM      5  C   UNL     1       2.382   7.856  18.071  0.00  0.00    +0.000 A 
ATOM      6  C   UNL     1       1.594   9.000  18.243  0.00  0.00    +0.000 A 
ENDROOT
BRANCH   1  13
ATOM      7  C   UNL     1      -1.814  13.350  22.648  0.00  0.00    +0.000 C 
ATOM      8  O   UNL     1      -1.129  12.702  23.432  0.00  0.00    +0.000 OA
ATOM      9  N   UNL     1      -1.812  13.247  21.274  0.00  0.00    +0.000 N 
ATOM     10  C   UNL     1      -1.051  12.349  20.555  0.00  0.00    +0.000 A 
ATOM     11  N   UNL     1      -0.860  12.446  19.258  0.00  0.00    +0.000 NA
ATOM     12  N   UNL     1      -0.062  11.422  18.771  0.00  0.00    +0.000 NA
ATOM     13  C   UNL     1       0.252  10.541  19.703  0.00  0.00    +0.000 A 
ATOM     14  S   UNL     1      -0.339  10.971  21.260  0.00  0.00    +0.000 S 
ATOM     15  H   UNL     1      -2.251  13.961  20.710  0.00  0.00    +0.000 HD
BRANCH   7  19
ATOM     16  C   UNL     1      -4.377  16.258  24.492  0.00  0.00    +0.000 A 
ATOM     17  C   UNL     1      -3.263  15.748  25.159  0.00  0.00    +0.000 A 
ATOM     18  C   UNL     1      -2.423  14.828  24.530  0.00  0.00    +0.000 A 
ATOM     19  C   UNL     1      -2.694  14.400  23.225  0.00  0.00    +0.000 A 
ATOM     20  C   UNL     1      -3.815  14.900  22.556  0.00  0.00    +0.000 A 
ATOM     21  C   UNL     1      -4.656  15.827  23.192  0.00  0.00    +0.000 A 
BRANCH  16  23
ATOM     22  C   UNL     1      -5.330  18.416  24.691  0.00  0.00    +0.000 C 
ATOM     23  O   UNL     1      -5.143  17.115  25.231  0.00  0.00    +0.000 OA
ENDBRANCH  16  23
ENDBRANCH   7  19
ENDBRANCH   1  13
BRANCH   4  24
ATOM     24  O   UNL     1       3.293   5.792  19.033  0.00  0.00    +0.000 OA
BRANCH  24  25
ATOM     25  C   UNL     1       4.104   5.585  17.937  0.00  0.00    +0.000 A 
ATOM     26  C   UNL     1       4.973   6.573  17.451  0.00  0.00    +0.000 A 
ATOM     27  C   UNL     1       5.812   6.318  16.364  0.00  0.00    +0.000 A 
ATOM     28  C   UNL     1       5.749   5.082  15.706  0.00  0.00    +0.000 A 
ATOM     29  C   UNL     1       4.831   4.108  16.114  0.00  0.00    +0.000 A 
ATOM     30  C   UNL     1       4.016   4.380  17.224  0.00  0.00    +0.000 A 
BRANCH  28  31
ATOM     31  N   UNL     1       6.649   4.818  14.578  0.00  0.00    +0.000 N 
ATOM     32  O   UNL     1       6.283   3.992  13.730  0.00  0.00    +0.000 OA
ATOM     33  O   UNL     1       7.716   5.446  14.538  0.00  0.00    +0.000 OA
ENDBRANCH  28  31
BRANCH  30  34
ATOM     34  N   UNL     1       3.042   3.375  17.602  0.00  0.00    +0.000 N 
ATOM     35  O   UNL     1       3.403   2.494  18.390  0.00  0.00    +0.000 OA
ATOM     36  O   UNL     1       1.931   3.446  17.053  0.00  0.00    +0.000 OA
ENDBRANCH  30  34
ENDBRANCH  24  25
ENDBRANCH   4  24
TORSDOF 7
ENDMDL
MODEL 5
REMARK VINA RESULT:      -8.5      1.705      2.392
REMARK  Name = 
REMARK  8 active torsions:
REMARK  status: ('A' for Active; 'I' for Inactive)
REMARK    1  A    between atoms: C_1  and  O_2
REMARK    2  A    between atoms: O_2  and  C_3
REMARK    3  A    between atoms: C_6  and  C_7
REMARK    4  A    between atoms: C_13  and  C_14
REMARK    5  A    between atoms: C_17  and  O_18
REMARK    6  A    between atoms: O_18  and  C_19
REMARK    7  A    between atoms: C_22  and  N_23
REMARK    8  A    between atoms: C_27  and  N_28
REMARK                            x       y       z     vdW  Elec       q    Type
REMARK                         _______ _______ _______ _____ _____    ______ ____
ROOT
ATOM      1  C   UNL     1       1.341   8.562  19.691  0.00  0.00    +0.000 A 
ATOM      2  C   UNL     1       2.054   8.332  18.503  0.00  0.00    +0.000 A 
ATOM      3  C   UNL     1       2.871   7.200  18.359  0.00  0.00    +0.000 A 
ATOM      4  C   UNL     1       2.983   6.275  19.397  0.00  0.00    +0.000 A 
ATOM      5  C   UNL     1       2.238   6.464  20.563  0.00  0.00    +0.000 A 
ATOM      6  C   UNL     1       1.453   7.613  20.720  0.00  0.00    +0.000 A 
ENDROOT
BRANCH   1  13
ATOM      7  C   UNL     1      -1.846  12.577  22.535  0.00  0.00    +0.000 C 
ATOM      8  O   UNL     1      -1.102  12.064  23.363  0.00  0.00    +0.000 OA
ATOM      9  N   UNL     1      -1.839  12.360  21.174  0.00  0.00    +0.000 N 
ATOM     10  C   UNL     1      -1.000  11.480  20.524  0.00  0.00    +0.000 A 
ATOM     11  N   UNL     1      -0.824  11.485  19.222  0.00  0.00    +0.000 NA
ATOM     12  N   UNL     1       0.065  10.502  18.813  0.00  0.00    +0.000 NA
ATOM     13  C   UNL     1       0.462   9.735  19.812  0.00  0.00    +0.000 A 
ATOM     14  S   UNL     1      -0.160  10.237  21.333  0.00  0.00    +0.000 S 
ATOM     15  H   UNL     1      -2.345  12.981  20.558  0.00  0.00    +0.000 HD
BRANCH   7  19
ATOM     16  C   UNL     1      -4.629  15.598  23.784  0.00  0.00    +0.000 A 
ATOM     17  C   UNL     1      -4.760  14.958  22.552  0.00  0.00    +0.000 A 
ATOM     18  C   UNL     1      -3.864  13.956  22.177  0.00  0.00    +0.000 A 
ATOM     19  C   UNL     1      -2.819  13.586  23.033  0.00  0.00    +0.000 A 
ATOM     20  C   UNL     1      -2.677  14.232  24.264  0.00  0.00    +0.000 A 
ATOM     21  C   UNL     1      -3.582  15.239  24.637  0.00  0.00    +0.000 A 
BRANCH  16  23
ATOM     22  C   UNL     1      -6.819  16.419  23.418  0.00  0.00    +0.000 C 
ATOM     23  O   UNL     1      -5.539  16.591  24.012  0.00  0.00    +0.000 OA
ENDBRANCH  16  23
ENDBRANCH   7  19
ENDBRANCH   1  13
BRANCH   4  24
ATOM     24  O   UNL     1       3.804   5.188  19.173  0.00  0.00    +0.000 OA
BRANCH  24  25
ATOM     25  C   UNL     1       4.540   5.119  18.009  0.00  0.00    +0.000 A 
ATOM     26  C   UNL     1       5.523   6.067  17.688  0.00  0.00    +0.000 A 
ATOM     27  C   UNL     1       6.282   5.946  16.520  0.00  0.00    +0.000 A 
ATOM     28  C   UNL     1       6.021   4.902  15.623  0.00  0.00    +0.000 A 
ATOM     29  C   UNL     1       4.989   3.991  15.873  0.00  0.00    +0.000 A 
ATOM     30  C   UNL     1       4.258   4.120  17.065  0.00  0.00    +0.000 A 
BRANCH  28  31
ATOM     31  N   UNL     1       6.837   4.773  14.409  0.00  0.00    +0.000 N 
ATOM     32  O   UNL     1       7.820   5.519  14.295  0.00  0.00    +0.000 OA
ATOM     33  O   UNL     1       6.498   3.919  13.579  0.00  0.00    +0.000 OA
ENDBRANCH  28  31
BRANCH  30  34
ATOM     34  N   UNL     1       3.165   3.194  17.283  0.00  0.00    +0.000 N 
ATOM     35  O   UNL     1       2.019   3.596  17.056  0.00  0.00    +0.000 OA
ATOM     36  O   UNL     1       3.466   2.080  17.741  0.00  0.00    +0.000 OA
ENDBRANCH  30  34
ENDBRANCH  24  25
ENDBRANCH   4  24
TORSDOF 7
ENDMDL
MODEL 6
REMARK VINA RESULT:      -8.5      1.855      2.333
REMARK  Name = 
REMARK  8 active torsions:
REMARK  status: ('A' for Active; 'I' for Inactive)
REMARK    1  A    between atoms: C_1  and  O_2
REMARK    2  A    between atoms: O_2  and  C_3
REMARK    3  A    between atoms: C_6  and  C_7
REMARK    4  A    between atoms: C_13  and  C_14
REMARK    5  A    between atoms: C_17  and  O_18
REMARK    6  A    between atoms: O_18  and  C_19
REMARK    7  A    between atoms: C_22  and  N_23
REMARK    8  A    between atoms: C_27  and  N_28
REMARK                            x       y       z     vdW  Elec       q    Type
REMARK                         _______ _______ _______ _____ _____    ______ ____
ROOT
ATOM      1  C   UNL     1       2.417   7.015  19.480  0.00  0.00    +0.000 A 
ATOM      2  C   UNL     1       2.817   5.869  20.187  0.00  0.00    +0.000 A 
ATOM      3  C   UNL     1       3.644   4.905  19.591  0.00  0.00    +0.000 A 
ATOM      4  C   UNL     1       4.089   5.072  18.280  0.00  0.00    +0.000 A 
ATOM      5  C   UNL     1       3.742   6.232  17.583  0.00  0.00    +0.000 A 
ATOM      6  C   UNL     1       2.888   7.176  18.166  0.00  0.00    +0.000 A 
ENDROOT
BRANCH   1  13
ATOM      7  C   UNL     1      -0.623  12.017  19.812  0.00  0.00    +0.000 C 
ATOM      8  O   UNL     1      -0.456  11.781  18.620  0.00  0.00    +0.000 OA
ATOM      9  N   UNL     1      -0.290  11.197  20.868  0.00  0.00    +0.000 N 
ATOM     10  C   UNL     1       0.334   9.973  20.745  0.00  0.00    +0.000 A 
ATOM     11  N   UNL     1       0.398   9.098  21.723  0.00  0.00    +0.000 NA
ATOM     12  N   UNL     1       1.080   7.949  21.351  0.00  0.00    +0.000 NA
ATOM     13  C   UNL     1       1.581   8.034  20.132  0.00  0.00    +0.000 A 
ATOM     14  S   UNL     1       1.160   9.496  19.333  0.00  0.00    +0.000 S 
ATOM     15  H   UNL     1      -0.655  11.384  21.791  0.00  0.00    +0.000 HD
BRANCH   7  19
ATOM     16  C   UNL     1      -2.417  15.768  20.880  0.00  0.00    +0.000 A 
ATOM     17  C   UNL     1      -1.311  15.710  20.033  0.00  0.00    +0.000 A 
ATOM     18  C   UNL     1      -0.761  14.479  19.671  0.00  0.00    +0.000 A 
ATOM     19  C   UNL     1      -1.312  13.288  20.161  0.00  0.00    +0.000 A 
ATOM     20  C   UNL     1      -2.414  13.341  21.019  0.00  0.00    +0.000 A 
ATOM     21  C   UNL     1      -2.964  14.583  21.378  0.00  0.00    +0.000 A 
BRANCH  16  23
ATOM     22  C   UNL     1      -1.879  17.860  21.850  0.00  0.00    +0.000 C 
ATOM     23  O   UNL     1      -2.831  17.032  21.194  0.00  0.00    +0.000 OA
ENDBRANCH  16  23
ENDBRANCH   7  19
ENDBRANCH   1  13
BRANCH   4  24
ATOM     24  O   UNL     1       4.901   4.078  17.769  0.00  0.00    +0.000 OA
BRANCH  24  25
ATOM     25  C   UNL     1       5.589   4.299  16.595  0.00  0.00    +0.000 A 
ATOM     26  C   UNL     1       5.112   3.855  15.353  0.00  0.00    +0.000 A 
ATOM     27  C   UNL     1       5.812   4.132  14.175  0.00  0.00    +0.000 A 
ATOM     28  C   UNL     1       7.038   4.809  14.233  0.00  0.00    +0.000 A 
ATOM     29  C   UNL     1       7.581   5.188  15.465  0.00  0.00    +0.000 A 
ATOM     30  C   UNL     1       6.847   4.920  16.631  0.00  0.00    +0.000 A 
BRANCH  28  31
ATOM     31  N   UNL     1       7.754   5.111  12.989  0.00  0.00    +0.000 N 
ATOM     32  O   UNL     1       7.369   4.552  11.953  0.00  0.00    +0.000 OA
ATOM     33  O   UNL     1       8.694   5.916  13.050  0.00  0.00    +0.000 OA
ENDBRANCH  28  31
BRANCH  30  34
ATOM     34  N   UNL     1       7.448   5.281  17.899  0.00  0.00    +0.000 N 
ATOM     35  O   UNL     1       7.340   6.454  18.272  0.00  0.00    +0.000 OA
ATOM     36  O   UNL     1       8.081   4.389  18.487  0.00  0.00    +0.000 OA
ENDBRANCH  30  34
ENDBRANCH  24  25
ENDBRANCH   4  24
TORSDOF 7
ENDMDL
MODEL 7
REMARK VINA RESULT:      -8.4      1.847      2.418
REMARK  Name = 
REMARK  8 active torsions:
REMARK  status: ('A' for Active; 'I' for Inactive)
REMARK    1  A    between atoms: C_1  and  O_2
REMARK    2  A    between atoms: O_2  and  C_3
REMARK    3  A    between atoms: C_6  and  C_7
REMARK    4  A    between atoms: C_13  and  C_14
REMARK    5  A    between atoms: C_17  and  O_18
REMARK    6  A    between atoms: O_18  and  C_19
REMARK    7  A    between atoms: C_22  and  N_23
REMARK    8  A    between atoms: C_27  and  N_28
REMARK                            x       y       z     vdW  Elec       q    Type
REMARK                         _______ _______ _______ _____ _____    ______ ____
ROOT
ATOM      1  C   UNL     1       2.373   7.113  19.464  0.00  0.00    +0.000 A 
ATOM      2  C   UNL     1       2.577   5.868  20.080  0.00  0.00    +0.000 A 
ATOM      3  C   UNL     1       3.429   4.910  19.510  0.00  0.00    +0.000 A 
ATOM      4  C   UNL     1       4.098   5.184  18.316  0.00  0.00    +0.000 A 
ATOM      5  C   UNL     1       3.945   6.439  17.721  0.00  0.00    +0.000 A 
ATOM      6  C   UNL     1       3.066   7.379  18.272  0.00  0.00    +0.000 A 
ENDROOT
BRANCH   1  13
ATOM      7  C   UNL     1      -0.554  12.181  19.809  0.00  0.00    +0.000 C 
ATOM      8  O   UNL     1      -0.279  12.010  18.627  0.00  0.00    +0.000 OA
ATOM      9  N   UNL     1      -0.346  11.292  20.840  0.00  0.00    +0.000 N 
ATOM     10  C   UNL     1       0.255  10.058  20.703  0.00  0.00    +0.000 A 
ATOM     11  N   UNL     1       0.202   9.126  21.628  0.00  0.00    +0.000 NA
ATOM     12  N   UNL     1       0.886   7.979  21.254  0.00  0.00    +0.000 NA
ATOM     13  C   UNL     1       1.504   8.118  20.095  0.00  0.00    +0.000 A 
ATOM     14  S   UNL     1       1.201   9.637  19.349  0.00  0.00    +0.000 S 
ATOM     15  H   UNL     1      -0.793  11.437  21.735  0.00  0.00    +0.000 HD
BRANCH   7  19
ATOM     16  C   UNL     1      -2.713  15.771  20.750  0.00  0.00    +0.000 A 
ATOM     17  C   UNL     1      -3.221  14.513  21.076  0.00  0.00    +0.000 A 
ATOM     18  C   UNL     1      -2.490  13.360  20.791  0.00  0.00    +0.000 A 
ATOM     19  C   UNL     1      -1.239  13.452  20.168  0.00  0.00    +0.000 A 
ATOM     20  C   UNL     1      -0.729  14.708  19.830  0.00  0.00    +0.000 A 
ATOM     21  C   UNL     1      -1.469  15.867  20.121  0.00  0.00    +0.000 A 
BRANCH  16  23
ATOM     22  C   UNL     1      -3.164  17.637  22.136  0.00  0.00    +0.000 C 
ATOM     23  O   UNL     1      -3.544  16.816  21.040  0.00  0.00    +0.000 OA
ENDBRANCH  16  23
ENDBRANCH   7  19
ENDBRANCH   1  13
BRANCH   4  24
ATOM     24  O   UNL     1       4.920   4.190  17.824  0.00  0.00    +0.000 OA
BRANCH  24  25
ATOM     25  C   UNL     1       5.545   4.366  16.608  0.00  0.00    +0.000 A 
ATOM     26  C   UNL     1       4.965   3.952  15.400  0.00  0.00    +0.000 A 
ATOM     27  C   UNL     1       5.605   4.183  14.180  0.00  0.00    +0.000 A 
ATOM     28  C   UNL     1       6.872   4.781  14.158  0.00  0.00    +0.000 A 
ATOM     29  C   UNL     1       7.514   5.127  15.351  0.00  0.00    +0.000 A 
ATOM     30  C   UNL     1       6.839   4.907  16.562  0.00  0.00    +0.000 A 
BRANCH  28  31
ATOM     31  N   UNL     1       7.527   5.037  12.869  0.00  0.00    +0.000 N 
ATOM     32  O   UNL     1       8.324   5.982  12.806  0.00  0.00    +0.000 OA
ATOM     33  O   UNL     1       7.248   4.283  11.926  0.00  0.00    +0.000 OA
ENDBRANCH  28  31
BRANCH  30  34
ATOM     34  N   UNL     1       7.541   5.231  17.788  0.00  0.00    +0.000 N 
ATOM     35  O   UNL     1       8.138   4.317  18.366  0.00  0.00    +0.000 OA
ATOM     36  O   UNL     1       7.436   6.400  18.194  0.00  0.00    +0.000 OA
ENDBRANCH  30  34
ENDBRANCH  24  25
ENDBRANCH   4  24
TORSDOF 7
ENDMDL
MODEL 8
REMARK VINA RESULT:      -8.4      2.473     13.278
REMARK  Name = 
REMARK  8 active torsions:
REMARK  status: ('A' for Active; 'I' for Inactive)
REMARK    1  A    between atoms: C_1  and  O_2
REMARK    2  A    between atoms: O_2  and  C_3
REMARK    3  A    between atoms: C_6  and  C_7
REMARK    4  A    between atoms: C_13  and  C_14
REMARK    5  A    between atoms: C_17  and  O_18
REMARK    6  A    between atoms: O_18  and  C_19
REMARK    7  A    between atoms: C_22  and  N_23
REMARK    8  A    between atoms: C_27  and  N_28
REMARK                            x       y       z     vdW  Elec       q    Type
REMARK                         _______ _______ _______ _____ _____    ______ ____
ROOT
ATOM      1  C   UNL     1      -0.324  10.745  20.799  0.00  0.00    +0.000 A 
ATOM      2  C   UNL     1      -0.294  10.200  22.093  0.00  0.00    +0.000 A 
ATOM      3  C   UNL     1      -1.109  10.714  23.113  0.00  0.00    +0.000 A 
ATOM      4  C   UNL     1      -1.973  11.778  22.856  0.00  0.00    +0.000 A 
ATOM      5  C   UNL     1      -2.052  12.295  21.560  0.00  0.00    +0.000 A 
ATOM      6  C   UNL     1      -1.212  11.806  20.553  0.00  0.00    +0.000 A 
ENDROOT
BRANCH   1  13
ATOM      7  C   UNL     1       2.944   6.624  18.211  0.00  0.00    +0.000 C 
ATOM      8  O   UNL     1       2.307   6.066  19.098  0.00  0.00    +0.000 OA
ATOM      9  N   UNL     1       2.815   7.933  17.803  0.00  0.00    +0.000 N 
ATOM     10  C   UNL     1       1.957   8.851  18.370  0.00  0.00    +0.000 A 
ATOM     11  N   UNL     1       1.655   9.998  17.804  0.00  0.00    +0.000 NA
ATOM     12  N   UNL     1       0.774  10.743  18.573  0.00  0.00    +0.000 NA
ATOM     13  C   UNL     1       0.510  10.171  19.733  0.00  0.00    +0.000 A 
ATOM     14  S   UNL     1       1.255   8.631  19.907  0.00  0.00    +0.000 S 
ATOM     15  H   UNL     1       3.231   8.238  16.934  0.00  0.00    +0.000 HD
BRANCH   7  19
ATOM     16  C   UNL     1       5.679   4.323  15.833  0.00  0.00    +0.000 A 
ATOM     17  C   UNL     1       5.623   5.713  15.730  0.00  0.00    +0.000 A 
ATOM     18  C   UNL     1       4.750   6.446  16.535  0.00  0.00    +0.000 A 
ATOM     19  C   UNL     1       3.916   5.793  17.451  0.00  0.00    +0.000 A 
ATOM     20  C   UNL     1       3.960   4.399  17.550  0.00  0.00    +0.000 A 
ATOM     21  C   UNL     1       4.842   3.666  16.738  0.00  0.00    +0.000 A 
BRANCH  16  23
ATOM     22  C   UNL     1       6.511   4.194  13.619  0.00  0.00    +0.000 C 
ATOM     23  O   UNL     1       6.540   3.720  14.959  0.00  0.00    +0.000 OA
ENDBRANCH  16  23
ENDBRANCH   7  19
ENDBRANCH   1  13
BRANCH   4  24
ATOM     24  O   UNL     1      -2.742  12.222  23.913  0.00  0.00    +0.000 OA
BRANCH  24  25
ATOM     25  C   UNL     1      -3.187  13.527  23.928  0.00  0.00    +0.000 A 
ATOM     26  C   UNL     1      -2.364  14.595  24.315  0.00  0.00    +0.000 A 
ATOM     27  C   UNL     1      -2.832  15.911  24.279  0.00  0.00    +0.000 A 
ATOM     28  C   UNL     1      -4.159  16.171  23.912  0.00  0.00    +0.000 A 
ATOM     29  C   UNL     1      -5.029  15.120  23.605  0.00  0.00    +0.000 A 
ATOM     30  C   UNL     1      -4.528  13.809  23.624  0.00  0.00    +0.000 A 
BRANCH  28  31
ATOM     31  N   UNL     1      -4.634  17.559  23.859  0.00  0.00    +0.000 N 
ATOM     32  O   UNL     1      -4.066  18.389  24.582  0.00  0.00    +0.000 OA
ATOM     33  O   UNL     1      -5.568  17.815  23.086  0.00  0.00    +0.000 OA
ENDBRANCH  28  31
BRANCH  30  34
ATOM     34  N   UNL     1      -5.457  12.732  23.346  0.00  0.00    +0.000 N 
ATOM     35  O   UNL     1      -5.618  12.403  22.166  0.00  0.00    +0.000 OA
ATOM     36  O   UNL     1      -6.068  12.262  24.320  0.00  0.00    +0.000 OA
ENDBRANCH  30  34
ENDBRANCH  24  25
ENDBRANCH   4  24
TORSDOF 7
ENDMDL
MODEL 9
REMARK VINA RESULT:      -8.4      2.030      3.004
REMARK  Name = 
REMARK  8 active torsions:
REMARK  status: ('A' for Active; 'I' for Inactive)
REMARK    1  A    between atoms: C_1  and  O_2
REMARK    2  A    between atoms: O_2  and  C_3
REMARK    3  A    between atoms: C_6  and  C_7
REMARK    4  A    between atoms: C_13  and  C_14
REMARK    5  A    between atoms: C_17  and  O_18
REMARK    6  A    between atoms: O_18  and  C_19
REMARK    7  A    between atoms: C_22  and  N_23
REMARK    8  A    between atoms: C_27  and  N_28
REMARK                            x       y       z     vdW  Elec       q    Type
REMARK                         _______ _______ _______ _____ _____    ______ ____
ROOT
ATOM      1  C   UNL     1       1.084   9.346  19.333  0.00  0.00    +0.000 A 
ATOM      2  C   UNL     1       1.301   8.485  20.421  0.00  0.00    +0.000 A 
ATOM      3  C   UNL     1       2.074   7.322  20.279  0.00  0.00    +0.000 A 
ATOM      4  C   UNL     1       2.649   7.004  19.049  0.00  0.00    +0.000 A 
ATOM      5  C   UNL     1       2.486   7.879  17.972  0.00  0.00    +0.000 A 
ATOM      6  C   UNL     1       1.684   9.020  18.105  0.00  0.00    +0.000 A 
ENDROOT
BRANCH   1  13
ATOM      7  C   UNL     1      -2.783  12.891  21.950  0.00  0.00    +0.000 C 
ATOM      8  O   UNL     1      -2.487  12.025  22.766  0.00  0.00    +0.000 OA
ATOM      9  N   UNL     1      -2.214  13.084  20.710  0.00  0.00    +0.000 N 
ATOM     10  C   UNL     1      -1.228  12.287  20.167  0.00  0.00    +0.000 A 
ATOM     11  N   UNL     1      -0.518  12.638  19.118  0.00  0.00    +0.000 NA
ATOM     12  N   UNL     1       0.406  11.666  18.765  0.00  0.00    +0.000 NA
ATOM     13  C   UNL     1       0.302  10.579  19.508  0.00  0.00    +0.000 A 
ATOM     14  S   UNL     1      -0.877  10.725  20.751  0.00  0.00    +0.000 S 
ATOM     15  H   UNL     1      -2.378  13.942  20.204  0.00  0.00    +0.000 HD
BRANCH   7  19
ATOM     16  C   UNL     1      -5.922  15.585  23.099  0.00  0.00    +0.000 A 
ATOM     17  C   UNL     1      -5.776  14.340  23.711  0.00  0.00    +0.000 A 
ATOM     18  C   UNL     1      -4.730  13.491  23.346  0.00  0.00    +0.000 A 
ATOM     19  C   UNL     1      -3.818  13.878  22.356  0.00  0.00    +0.000 A 
ATOM     20  C   UNL     1      -3.966  15.120  21.732  0.00  0.00    +0.000 A 
ATOM     21  C   UNL     1      -5.021  15.971  22.104  0.00  0.00    +0.000 A 
BRANCH  16  23
ATOM     22  C   UNL     1      -7.342  17.444  22.735  0.00  0.00    +0.000 C 
ATOM     23  O   UNL     1      -7.011  16.300  23.511  0.00  0.00    +0.000 OA
ENDBRANCH  16  23
ENDBRANCH   7  19
ENDBRANCH   1  13
BRANCH   4  24
ATOM     24  O   UNL     1       3.397   5.845  18.995  0.00  0.00    +0.000 OA
BRANCH  24  25
ATOM     25  C   UNL     1       4.201   5.605  17.901  0.00  0.00    +0.000 A 
ATOM     26  C   UNL     1       5.127   6.548  17.431  0.00  0.00    +0.000 A 
ATOM     27  C   UNL     1       5.958   6.258  16.346  0.00  0.00    +0.000 A 
ATOM     28  C   UNL     1       5.829   5.034  15.674  0.00  0.00    +0.000 A 
ATOM     29  C   UNL     1       4.855   4.109  16.066  0.00  0.00    +0.000 A 
ATOM     30  C   UNL     1       4.050   4.415  17.174  0.00  0.00    +0.000 A 
BRANCH  28  31
ATOM     31  N   UNL     1       6.720   4.733  14.548  0.00  0.00    +0.000 N 
ATOM     32  O   UNL     1       6.395   3.809  13.789  0.00  0.00    +0.000 OA
ATOM     33  O   UNL     1       7.737   5.428  14.420  0.00  0.00    +0.000 OA
ENDBRANCH  28  31
BRANCH  30  34
ATOM     34  N   UNL     1       3.019   3.463  17.535  0.00  0.00    +0.000 N 
ATOM     35  O   UNL     1       1.879   3.659  17.100  0.00  0.00    +0.000 OA
ATOM     36  O   UNL     1       3.353   2.549  18.307  0.00  0.00    +0.000 OA
ENDBRANCH  30  34
ENDBRANCH  24  25
ENDBRANCH   4  24
TORSDOF 7
ENDMDL
