MODEL 1
REMARK VINA RESULT:      -6.4      0.000      0.000
REMARK  Name = 
REMARK  7 active torsions:
REMARK  status: ('A' for Active; 'I' for Inactive)
REMARK    1  A    between atoms: C_1  and  C_2
REMARK    2  A    between atoms: C_3  and  O_4
REMARK    3  A    between atoms: O_4  and  C_5
REMARK    4  A    between atoms: C_5  and  C_6
REMARK    5  A    between atoms: C_15  and  N_16
REMARK    6  A    between atoms: N_16  and  S_17
REMARK    7  A    between atoms: S_17  and  C_18
REMARK                            x       y       z     vdW  Elec       q    Type
REMARK                         _______ _______ _______ _____ _____    ______ ____
ROOT
ATOM      1  C   UNL     1       2.080   5.673  19.932  0.00  0.00    +0.000 C 
ATOM      2  C   UNL     1       3.042   5.920  18.808  0.00  0.00    +0.000 A 
ATOM      3  C   UNL     1       3.194   7.213  18.245  0.00  0.00    +0.000 A 
ATOM      4  C   UNL     1       4.094   7.403  17.182  0.00  0.00    +0.000 A 
ATOM      5  C   UNL     1       4.731   6.326  16.575  0.00  0.00    +0.000 A 
ATOM      6  C   UNL     1       4.568   5.049  17.095  0.00  0.00    +0.000 A 
ATOM      7 CL   UNL     1       5.417   3.761  16.319  0.00  0.00    +0.000 Cl
ATOM      8  C   UNL     1       3.795   4.849  18.254  0.00  0.00    +0.000 A 
ENDROOT
BRANCH   8   9
ATOM      9  N   UNL     1       3.865   3.572  18.937  0.00  0.00    +0.000 N 
ATOM     10  H   UNL     1       4.824   3.210  18.909  0.00  0.00    +0.000 HD
BRANCH   9  11
ATOM     11  S   UNL     1       2.882   2.310  18.376  0.00  0.00    +0.000 S 
ATOM     12  C   UNL     1       1.752   2.186  19.743  0.00  0.00    +0.000 C 
ATOM     13  O   UNL     1       2.141   2.739  17.210  0.00  0.00    +0.000 OA
ATOM     14  O   UNL     1       3.698   1.117  18.376  0.00  0.00    +0.000 OA
ENDBRANCH   9  11
ENDBRANCH   8   9
BRANCH   3  15
ATOM     15  O   UNL     1       2.447   8.252  18.775  0.00  0.00    +0.000 OA
BRANCH  15  16
ATOM     16  C   UNL     1       1.657   8.955  17.818  0.00  0.00    +0.000 C 
BRANCH  16  17
ATOM     17  C   UNL     1       0.501   9.779  18.358  0.00  0.00    +0.000 C 
ATOM     18  N   UNL     1       0.486  10.135  19.619  0.00  0.00    +0.000 NA
ATOM     19  C   UNL     1      -0.787  10.890  19.771  0.00  0.00    +0.000 C 
ATOM     20  C   UNL     1      -1.274  11.186  18.349  0.00  0.00    +0.000 C 
ATOM     21  N   UNL     1      -0.578  10.161  17.600  0.00  0.00    +0.000 N 
ATOM     22  H   UNL     1      -0.415  10.309  16.610  0.00  0.00    +0.000 HD
ENDBRANCH  16  17
ENDBRANCH  15  16
ENDBRANCH   3  15
TORSDOF 5
ENDMDL
MODEL 2
REMARK VINA RESULT:      -6.3      2.842      3.733
REMARK  Name = 
REMARK  7 active torsions:
REMARK  status: ('A' for Active; 'I' for Inactive)
REMARK    1  A    between atoms: C_1  and  C_2
REMARK    2  A    between atoms: C_3  and  O_4
REMARK    3  A    between atoms: O_4  and  C_5
REMARK    4  A    between atoms: C_5  and  C_6
REMARK    5  A    between atoms: C_15  and  N_16
REMARK    6  A    between atoms: N_16  and  S_17
REMARK    7  A    between atoms: S_17  and  C_18
REMARK                            x       y       z     vdW  Elec       q    Type
REMARK                         _______ _______ _______ _____ _____    ______ ____
ROOT
ATOM      1  C   UNL     1       3.037   7.999  17.816  0.00  0.00    +0.000 C 
ATOM      2  C   UNL     1       2.816   6.838  18.739  0.00  0.00    +0.000 A 
ATOM      3  C   UNL     1       2.017   6.970  19.904  0.00  0.00    +0.000 A 
ATOM      4  C   UNL     1       1.846   5.864  20.754  0.00  0.00    +0.000 A 
ATOM      5  C   UNL     1       2.559   4.686  20.557  0.00  0.00    +0.000 A 
ATOM      6  C   UNL     1       3.369   4.552  19.439  0.00  0.00    +0.000 A 
ATOM      7 CL   UNL     1       4.197   3.050  19.232  0.00  0.00    +0.000 Cl
ATOM      8  C   UNL     1       3.440   5.586  18.487  0.00  0.00    +0.000 A 
ENDROOT
BRANCH   8   9
ATOM      9  N   UNL     1       4.061   5.322  17.203  0.00  0.00    +0.000 N 
ATOM     10  H   UNL     1       3.998   4.323  16.981  0.00  0.00    +0.000 HD
BRANCH   9  11
ATOM     11  S   UNL     1       5.692   5.736  17.003  0.00  0.00    +0.000 S 
ATOM     12  C   UNL     1       6.304   4.207  16.332  0.00  0.00    +0.000 C 
ATOM     13  O   UNL     1       5.823   6.762  15.992  0.00  0.00    +0.000 OA
ATOM     14  O   UNL     1       6.248   5.883  18.329  0.00  0.00    +0.000 OA
ENDBRANCH   9  11
ENDBRANCH   8   9
BRANCH   3  15
ATOM     15  O   UNL     1       1.423   8.195  20.158  0.00  0.00    +0.000 OA
BRANCH  15  16
ATOM     16  C   UNL     1       1.279   8.503  21.543  0.00  0.00    +0.000 C 
BRANCH  16  17
ATOM     17  C   UNL     1       0.310   9.616  21.900  0.00  0.00    +0.000 C 
ATOM     18  N   UNL     1       0.045   9.872  23.158  0.00  0.00    +0.000 NA
ATOM     19  C   UNL     1      -0.942  10.983  23.105  0.00  0.00    +0.000 C 
ATOM     20  C   UNL     1      -0.901  11.516  21.668  0.00  0.00    +0.000 C 
ATOM     21  N   UNL     1      -0.352  10.375  20.968  0.00  0.00    +0.000 N 
ATOM     22  H   UNL     1       0.119  10.530  20.083  0.00  0.00    +0.000 HD
ENDBRANCH  16  17
ENDBRANCH  15  16
ENDBRANCH   3  15
TORSDOF 5
ENDMDL
MODEL 3
REMARK VINA RESULT:      -6.3      1.032      1.215
REMARK  Name = 
REMARK  7 active torsions:
REMARK  status: ('A' for Active; 'I' for Inactive)
REMARK    1  A    between atoms: C_1  and  C_2
REMARK    2  A    between atoms: C_3  and  O_4
REMARK    3  A    between atoms: O_4  and  C_5
REMARK    4  A    between atoms: C_5  and  C_6
REMARK    5  A    between atoms: C_15  and  N_16
REMARK    6  A    between atoms: N_16  and  S_17
REMARK    7  A    between atoms: S_17  and  C_18
REMARK                            x       y       z     vdW  Elec       q    Type
REMARK                         _______ _______ _______ _____ _____    ______ ____
ROOT
ATOM      1  C   UNL     1       1.596   5.821  20.313  0.00  0.00    +0.000 C 
ATOM      2  C   UNL     1       2.560   6.115  19.203  0.00  0.00    +0.000 A 
ATOM      3  C   UNL     1       2.651   7.412  18.635  0.00  0.00    +0.000 A 
ATOM      4  C   UNL     1       3.555   7.645  17.585  0.00  0.00    +0.000 A 
ATOM      5  C   UNL     1       4.257   6.601  16.993  0.00  0.00    +0.000 A 
ATOM      6  C   UNL     1       4.156   5.320  17.516  0.00  0.00    +0.000 A 
ATOM      7 CL   UNL     1       5.084   4.076  16.758  0.00  0.00    +0.000 Cl
ATOM      8  C   UNL     1       3.378   5.083  18.665  0.00  0.00    +0.000 A 
ENDROOT
BRANCH   8   9
ATOM      9  N   UNL     1       3.505   3.814  19.354  0.00  0.00    +0.000 N 
ATOM     10  H   UNL     1       4.445   3.429  19.211  0.00  0.00    +0.000 HD
BRANCH   9  11
ATOM     11  S   UNL     1       2.431   2.569  18.943  0.00  0.00    +0.000 S 
ATOM     12  C   UNL     1       3.601   1.308  18.490  0.00  0.00    +0.000 C 
ATOM     13  O   UNL     1       1.714   2.125  20.118  0.00  0.00    +0.000 OA
ATOM     14  O   UNL     1       1.754   2.987  17.736  0.00  0.00    +0.000 OA
ENDBRANCH   9  11
ENDBRANCH   8   9
BRANCH   3  15
ATOM     15  O   UNL     1       1.842   8.411  19.150  0.00  0.00    +0.000 OA
BRANCH  15  16
ATOM     16  C   UNL     1       1.388   9.356  18.183  0.00  0.00    +0.000 C 
BRANCH  16  17
ATOM     17  C   UNL     1       0.192  10.208  18.566  0.00  0.00    +0.000 C 
ATOM     18  N   UNL     1       0.044  10.605  19.807  0.00  0.00    +0.000 NA
ATOM     19  C   UNL     1      -1.228  11.376  19.795  0.00  0.00    +0.000 C 
ATOM     20  C   UNL     1      -1.553  11.630  18.318  0.00  0.00    +0.000 C 
ATOM     21  N   UNL     1      -0.793  10.576  17.684  0.00  0.00    +0.000 N 
ATOM     22  H   UNL     1      -0.521  10.690  16.713  0.00  0.00    +0.000 HD
ENDBRANCH  16  17
ENDBRANCH  15  16
ENDBRANCH   3  15
TORSDOF 5
ENDMDL
MODEL 4
REMARK VINA RESULT:      -6.3      3.694      6.361
REMARK  Name = 
REMARK  7 active torsions:
REMARK  status: ('A' for Active; 'I' for Inactive)
REMARK    1  A    between atoms: C_1  and  C_2
REMARK    2  A    between atoms: C_3  and  O_4
REMARK    3  A    between atoms: O_4  and  C_5
REMARK    4  A    between atoms: C_5  and  C_6
REMARK    5  A    between atoms: C_15  and  N_16
REMARK    6  A    between atoms: N_16  and  S_17
REMARK    7  A    between atoms: S_17  and  C_18
REMARK                            x       y       z     vdW  Elec       q    Type
REMARK                         _______ _______ _______ _____ _____    ______ ____
ROOT
ATOM      1  C   UNL     1       5.187   3.466  19.367  0.00  0.00    +0.000 C 
ATOM      2  C   UNL     1       4.650   4.674  18.659  0.00  0.00    +0.000 A 
ATOM      3  C   UNL     1       5.148   5.061  17.389  0.00  0.00    +0.000 A 
ATOM      4  C   UNL     1       4.632   6.208  16.764  0.00  0.00    +0.000 A 
ATOM      5  C   UNL     1       3.748   7.054  17.425  0.00  0.00    +0.000 A 
ATOM      6  C   UNL     1       3.274   6.707  18.682  0.00  0.00    +0.000 A 
ATOM      7 CL   UNL     1       2.149   7.781  19.433  0.00  0.00    +0.000 Cl
ATOM      8  C   UNL     1       3.654   5.485  19.270  0.00  0.00    +0.000 A 
ENDROOT
BRANCH   8   9
ATOM      9  N   UNL     1       2.941   5.014  20.441  0.00  0.00    +0.000 N 
ATOM     10  H   UNL     1       3.566   4.457  21.033  0.00  0.00    +0.000 HD
BRANCH   9  11
ATOM     11  S   UNL     1       1.560   4.060  20.207  0.00  0.00    +0.000 S 
ATOM     12  C   UNL     1       1.848   2.814  21.443  0.00  0.00    +0.000 C 
ATOM     13  O   UNL     1       0.375   4.803  20.576  0.00  0.00    +0.000 OA
ATOM     14  O   UNL     1       1.705   3.430  18.913  0.00  0.00    +0.000 OA
ENDBRANCH   9  11
ENDBRANCH   8   9
BRANCH   3  15
ATOM     15  O   UNL     1       6.130   4.279  16.803  0.00  0.00    +0.000 OA
BRANCH  15  16
ATOM     16  C   UNL     1       7.051   5.004  15.991  0.00  0.00    +0.000 C 
BRANCH  16  17
ATOM     17  C   UNL     1       7.011   4.730  14.498  0.00  0.00    +0.000 C 
ATOM     18  N   UNL     1       7.776   5.420  13.687  0.00  0.00    +0.000 NA
ATOM     19  C   UNL     1       7.443   4.895  12.335  0.00  0.00    +0.000 C 
ATOM     20  C   UNL     1       6.658   3.599  12.568  0.00  0.00    +0.000 C 
ATOM     21  N   UNL     1       6.180   3.805  13.917  0.00  0.00    +0.000 N 
ATOM     22  H   UNL     1       5.935   2.994  14.475  0.00  0.00    +0.000 HD
ENDBRANCH  16  17
ENDBRANCH  15  16
ENDBRANCH   3  15
TORSDOF 5
ENDMDL
MODEL 5
REMARK VINA RESULT:      -6.3      1.433      1.544
REMARK  Name = 
REMARK  7 active torsions:
REMARK  status: ('A' for Active; 'I' for Inactive)
REMARK    1  A    between atoms: C_1  and  C_2
REMARK    2  A    between atoms: C_3  and  O_4
REMARK    3  A    between atoms: O_4  and  C_5
REMARK    4  A    between atoms: C_5  and  C_6
REMARK    5  A    between atoms: C_15  and  N_16
REMARK    6  A    between atoms: N_16  and  S_17
REMARK    7  A    between atoms: S_17  and  C_18
REMARK                            x       y       z     vdW  Elec       q    Type
REMARK                         _______ _______ _______ _____ _____    ______ ____
ROOT
ATOM      1  C   UNL     1       1.664   5.834  20.442  0.00  0.00    +0.000 C 
ATOM      2  C   UNL     1       2.539   6.192  19.278  0.00  0.00    +0.000 A 
ATOM      3  C   UNL     1       2.583   7.518  18.775  0.00  0.00    +0.000 A 
ATOM      4  C   UNL     1       3.402   7.813  17.673  0.00  0.00    +0.000 A 
ATOM      5  C   UNL     1       4.058   6.806  16.972  0.00  0.00    +0.000 A 
ATOM      6  C   UNL     1       4.000   5.498  17.432  0.00  0.00    +0.000 A 
ATOM      7 CL   UNL     1       4.868   4.301  16.539  0.00  0.00    +0.000 Cl
ATOM      8  C   UNL     1       3.314   5.196  18.623  0.00  0.00    +0.000 A 
ENDROOT
BRANCH   8   9
ATOM      9  N   UNL     1       3.496   3.892  19.231  0.00  0.00    +0.000 N 
ATOM     10  H   UNL     1       4.460   3.571  19.091  0.00  0.00    +0.000 HD
BRANCH   9  11
ATOM     11  S   UNL     1       2.507   2.619  18.708  0.00  0.00    +0.000 S 
ATOM     12  C   UNL     1       1.656   2.263  20.229  0.00  0.00    +0.000 C 
ATOM     13  O   UNL     1       1.540   3.105  17.748  0.00  0.00    +0.000 OA
ATOM     14  O   UNL     1       3.382   1.503  18.427  0.00  0.00    +0.000 OA
ENDBRANCH   9  11
ENDBRANCH   8   9
BRANCH   3  15
ATOM     15  O   UNL     1       1.815   8.484  19.404  0.00  0.00    +0.000 OA
BRANCH  15  16
ATOM     16  C   UNL     1       1.049   9.295  18.516  0.00  0.00    +0.000 C 
BRANCH  16  17
ATOM     17  C   UNL     1       1.320  10.788  18.546  0.00  0.00    +0.000 C 
ATOM     18  N   UNL     1       0.558  11.576  19.266  0.00  0.00    +0.000 NA
ATOM     19  C   UNL     1       1.108  12.937  19.024  0.00  0.00    +0.000 C 
ATOM     20  C   UNL     1       2.473  12.729  18.360  0.00  0.00    +0.000 C 
ATOM     21  N   UNL     1       2.318  11.394  17.824  0.00  0.00    +0.000 N 
ATOM     22  H   UNL     1       3.151  10.844  17.641  0.00  0.00    +0.000 HD
ENDBRANCH  16  17
ENDBRANCH  15  16
ENDBRANCH   3  15
TORSDOF 5
ENDMDL
MODEL 6
REMARK VINA RESULT:      -6.2      2.275      2.899
REMARK  Name = 
REMARK  7 active torsions:
REMARK  status: ('A' for Active; 'I' for Inactive)
REMARK    1  A    between atoms: C_1  and  C_2
REMARK    2  A    between atoms: C_3  and  O_4
REMARK    3  A    between atoms: O_4  and  C_5
REMARK    4  A    between atoms: C_5  and  C_6
REMARK    5  A    between atoms: C_15  and  N_16
REMARK    6  A    between atoms: N_16  and  S_17
REMARK    7  A    between atoms: S_17  and  C_18
REMARK                            x       y       z     vdW  Elec       q    Type
REMARK                         _______ _______ _______ _____ _____    ______ ____
ROOT
ATOM      1  C   UNL     1       1.998   5.224  20.845  0.00  0.00    +0.000 C 
ATOM      2  C   UNL     1       2.349   6.299  19.860  0.00  0.00    +0.000 A 
ATOM      3  C   UNL     1       1.738   7.578  19.922  0.00  0.00    +0.000 A 
ATOM      4  C   UNL     1       2.081   8.555  18.972  0.00  0.00    +0.000 A 
ATOM      5  C   UNL     1       2.896   8.251  17.887  0.00  0.00    +0.000 A 
ATOM      6  C   UNL     1       3.477   6.994  17.794  0.00  0.00    +0.000 A 
ATOM      7 CL   UNL     1       4.510   6.693  16.443  0.00  0.00    +0.000 Cl
ATOM      8  C   UNL     1       3.277   6.044  18.812  0.00  0.00    +0.000 A 
ENDROOT
BRANCH   8   9
ATOM      9  N   UNL     1       4.105   4.854  18.841  0.00  0.00    +0.000 N 
ATOM     10  H   UNL     1       5.056   5.080  18.531  0.00  0.00    +0.000 HD
BRANCH   9  11
ATOM     11  S   UNL     1       3.624   3.521  17.911  0.00  0.00    +0.000 S 
ATOM     12  C   UNL     1       3.802   2.234  19.125  0.00  0.00    +0.000 C 
ATOM     13  O   UNL     1       2.223   3.635  17.569  0.00  0.00    +0.000 OA
ATOM     14  O   UNL     1       4.649   3.322  16.911  0.00  0.00    +0.000 OA
ENDBRANCH   9  11
ENDBRANCH   8   9
BRANCH   3  15
ATOM     15  O   UNL     1       0.823   7.819  20.934  0.00  0.00    +0.000 OA
BRANCH  15  16
ATOM     16  C   UNL     1       1.285   8.718  21.940  0.00  0.00    +0.000 C 
BRANCH  16  17
ATOM     17  C   UNL     1       0.360   9.863  22.312  0.00  0.00    +0.000 C 
ATOM     18  N   UNL     1       0.478  11.020  21.708  0.00  0.00    +0.000 NA
ATOM     19  C   UNL     1      -0.560  11.874  22.346  0.00  0.00    +0.000 C 
ATOM     20  C   UNL     1      -1.474  10.918  23.121  0.00  0.00    +0.000 C 
ATOM     21  N   UNL     1      -0.600   9.778  23.290  0.00  0.00    +0.000 N 
ATOM     22  H   UNL     1      -1.016   8.866  23.447  0.00  0.00    +0.000 HD
ENDBRANCH  16  17
ENDBRANCH  15  16
ENDBRANCH   3  15
TORSDOF 5
ENDMDL
MODEL 7
REMARK VINA RESULT:      -6.2      2.656      3.851
REMARK  Name = 
REMARK  7 active torsions:
REMARK  status: ('A' for Active; 'I' for Inactive)
REMARK    1  A    between atoms: C_1  and  C_2
REMARK    2  A    between atoms: C_3  and  O_4
REMARK    3  A    between atoms: O_4  and  C_5
REMARK    4  A    between atoms: C_5  and  C_6
REMARK    5  A    between atoms: C_15  and  N_16
REMARK    6  A    between atoms: N_16  and  S_17
REMARK    7  A    between atoms: S_17  and  C_18
REMARK                            x       y       z     vdW  Elec       q    Type
REMARK                         _______ _______ _______ _____ _____    ______ ____
ROOT
ATOM      1  C   UNL     1       2.843   7.926  17.978  0.00  0.00    +0.000 C 
ATOM      2  C   UNL     1       2.562   6.796  18.924  0.00  0.00    +0.000 A 
ATOM      3  C   UNL     1       1.852   7.012  20.133  0.00  0.00    +0.000 A 
ATOM      4  C   UNL     1       1.622   5.932  21.002  0.00  0.00    +0.000 A 
ATOM      5  C   UNL     1       2.200   4.688  20.775  0.00  0.00    +0.000 A 
ATOM      6  C   UNL     1       2.925   4.468  19.612  0.00  0.00    +0.000 A 
ATOM      7 CL   UNL     1       3.584   2.890  19.372  0.00  0.00    +0.000 Cl
ATOM      8  C   UNL     1       3.042   5.486  18.648  0.00  0.00    +0.000 A 
ENDROOT
BRANCH   8   9
ATOM      9  N   UNL     1       3.556   5.157  17.332  0.00  0.00    +0.000 N 
ATOM     10  H   UNL     1       3.259   4.212  17.066  0.00  0.00    +0.000 HD
BRANCH   9  11
ATOM     11  S   UNL     1       5.233   5.195  17.095  0.00  0.00    +0.000 S 
ATOM     12  C   UNL     1       5.309   6.297  15.701  0.00  0.00    +0.000 C 
ATOM     13  O   UNL     1       5.879   5.838  18.219  0.00  0.00    +0.000 OA
ATOM     14  O   UNL     1       5.617   3.881  16.632  0.00  0.00    +0.000 OA
ENDBRANCH   9  11
ENDBRANCH   8   9
BRANCH   3  15
ATOM     15  O   UNL     1       1.399   8.292  20.409  0.00  0.00    +0.000 OA
BRANCH  15  16
ATOM     16  C   UNL     1       1.375   8.620  21.797  0.00  0.00    +0.000 C 
BRANCH  16  17
ATOM     17  C   UNL     1       0.455   9.751  22.217  0.00  0.00    +0.000 C 
ATOM     18  N   UNL     1       0.512  10.904  21.596  0.00  0.00    +0.000 NA
ATOM     19  C   UNL     1      -0.498  11.745  22.292  0.00  0.00    +0.000 C 
ATOM     20  C   UNL     1      -1.343  10.781  23.132  0.00  0.00    +0.000 C 
ATOM     21  N   UNL     1      -0.440   9.658  23.254  0.00  0.00    +0.000 N 
ATOM     22  H   UNL     1      -0.828   8.741  23.445  0.00  0.00    +0.000 HD
ENDBRANCH  16  17
ENDBRANCH  15  16
ENDBRANCH   3  15
TORSDOF 5
ENDMDL
MODEL 8
REMARK VINA RESULT:      -6.1      2.125      2.689
REMARK  Name = 
REMARK  7 active torsions:
REMARK  status: ('A' for Active; 'I' for Inactive)
REMARK    1  A    between atoms: C_1  and  C_2
REMARK    2  A    between atoms: C_3  and  O_4
REMARK    3  A    between atoms: O_4  and  C_5
REMARK    4  A    between atoms: C_5  and  C_6
REMARK    5  A    between atoms: C_15  and  N_16
REMARK    6  A    between atoms: N_16  and  S_17
REMARK    7  A    between atoms: S_17  and  C_18
REMARK                            x       y       z     vdW  Elec       q    Type
REMARK                         _______ _______ _______ _____ _____    ______ ____
ROOT
ATOM      1  C   UNL     1       1.185   7.432  21.274  0.00  0.00    +0.000 C 
ATOM      2  C   UNL     1       1.828   7.675  19.941  0.00  0.00    +0.000 A 
ATOM      3  C   UNL     1       1.522   8.832  19.179  0.00  0.00    +0.000 A 
ATOM      4  C   UNL     1       2.132   9.017  17.927  0.00  0.00    +0.000 A 
ATOM      5  C   UNL     1       2.917   8.022  17.353  0.00  0.00    +0.000 A 
ATOM      6  C   UNL     1       3.200   6.869  18.072  0.00  0.00    +0.000 A 
ATOM      7 CL   UNL     1       4.212   5.690  17.318  0.00  0.00    +0.000 Cl
ATOM      8  C   UNL     1       2.730   6.723  19.391  0.00  0.00    +0.000 A 
ENDROOT
BRANCH   8   9
ATOM      9  N   UNL     1       3.262   5.656  20.215  0.00  0.00    +0.000 N 
ATOM     10  H   UNL     1       4.208   5.410  19.906  0.00  0.00    +0.000 HD
BRANCH   9  11
ATOM     11  S   UNL     1       2.407   4.194  20.282  0.00  0.00    +0.000 S 
ATOM     12  C   UNL     1       3.686   3.079  19.752  0.00  0.00    +0.000 C 
ATOM     13  O   UNL     1       2.068   3.880  21.653  0.00  0.00    +0.000 OA
ATOM     14  O   UNL     1       1.413   4.247  19.234  0.00  0.00    +0.000 OA
ENDBRANCH   9  11
ENDBRANCH   8   9
BRANCH   3  15
ATOM     15  O   UNL     1       0.630   9.750  19.709  0.00  0.00    +0.000 OA
BRANCH  15  16
ATOM     16  C   UNL     1       0.362  10.865  18.861  0.00  0.00    +0.000 C 
BRANCH  16  17
ATOM     17  C   UNL     1      -1.042  10.971  18.293  0.00  0.00    +0.000 C 
ATOM     18  N   UNL     1      -1.979  11.578  18.979  0.00  0.00    +0.000 NA
ATOM     19  C   UNL     1      -3.193  11.458  18.127  0.00  0.00    +0.000 C 
ATOM     20  C   UNL     1      -2.696  11.015  16.746  0.00  0.00    +0.000 C 
ATOM     21  N   UNL     1      -1.417  10.431  17.088  0.00  0.00    +0.000 N 
ATOM     22  H   UNL     1      -0.703  10.370  16.370  0.00  0.00    +0.000 HD
ENDBRANCH  16  17
ENDBRANCH  15  16
ENDBRANCH   3  15
TORSDOF 5
ENDMDL
MODEL 9
REMARK VINA RESULT:      -6.1      3.827      6.696
REMARK  Name = 
REMARK  7 active torsions:
REMARK  status: ('A' for Active; 'I' for Inactive)
REMARK    1  A    between atoms: C_1  and  C_2
REMARK    2  A    between atoms: C_3  and  O_4
REMARK    3  A    between atoms: O_4  and  C_5
REMARK    4  A    between atoms: C_5  and  C_6
REMARK    5  A    between atoms: C_15  and  N_16
REMARK    6  A    between atoms: N_16  and  S_17
REMARK    7  A    between atoms: S_17  and  C_18
REMARK                            x       y       z     vdW  Elec       q    Type
REMARK                         _______ _______ _______ _____ _____    ______ ____
ROOT
ATOM      1  C   UNL     1       3.808   2.759  17.229  0.00  0.00    +0.000 C 
ATOM      2  C   UNL     1       4.056   4.230  17.073  0.00  0.00    +0.000 A 
ATOM      3  C   UNL     1       5.148   4.712  16.306  0.00  0.00    +0.000 A 
ATOM      4  C   UNL     1       5.358   6.097  16.196  0.00  0.00    +0.000 A 
ATOM      5  C   UNL     1       4.608   7.001  16.940  0.00  0.00    +0.000 A 
ATOM      6  C   UNL     1       3.555   6.544  17.720  0.00  0.00    +0.000 A 
ATOM      7 CL   UNL     1       2.639   7.722  18.589  0.00  0.00    +0.000 Cl
ATOM      8  C   UNL     1       3.222   5.176  17.730  0.00  0.00    +0.000 A 
ENDROOT
BRANCH   8   9
ATOM      9  N   UNL     1       1.965   4.760  18.320  0.00  0.00    +0.000 N 
ATOM     10  H   UNL     1       1.263   5.500  18.210  0.00  0.00    +0.000 HD
BRANCH   9  11
ATOM     11  S   UNL     1       1.949   4.351  19.964  0.00  0.00    +0.000 S 
ATOM     12  C   UNL     1       0.924   2.899  19.897  0.00  0.00    +0.000 C 
ATOM     13  O   UNL     1       3.273   3.955  20.390  0.00  0.00    +0.000 OA
ATOM     14  O   UNL     1       1.197   5.384  20.641  0.00  0.00    +0.000 OA
ENDBRANCH   9  11
ENDBRANCH   8   9
BRANCH   3  15
ATOM     15  O   UNL     1       5.969   3.788  15.680  0.00  0.00    +0.000 OA
BRANCH  15  16
ATOM     16  C   UNL     1       6.478   4.215  14.418  0.00  0.00    +0.000 C 
BRANCH  16  17
ATOM     17  C   UNL     1       5.873   3.571  13.183  0.00  0.00    +0.000 C 
ATOM     18  N   UNL     1       4.716   3.988  12.730  0.00  0.00    +0.000 NA
ATOM     19  C   UNL     1       4.449   3.119  11.553  0.00  0.00    +0.000 C 
ATOM     20  C   UNL     1       5.777   2.423  11.233  0.00  0.00    +0.000 C 
ATOM     21  N   UNL     1       6.457   2.530  12.506  0.00  0.00    +0.000 N 
ATOM     22  H   UNL     1       7.470   2.483  12.520  0.00  0.00    +0.000 HD
ENDBRANCH  16  17
ENDBRANCH  15  16
ENDBRANCH   3  15
TORSDOF 5
ENDMDL
