MODEL 1
REMARK VINA RESULT:     -10.1      0.000      0.000
REMARK  Name = 
REMARK  8 active torsions:
REMARK  status: ('A' for Active; 'I' for Inactive)
REMARK    1  A    between atoms: C_2  and  C_28
REMARK    2  A    between atoms: N_3  and  N_4
REMARK    3  A    between atoms: C_5  and  C_6
REMARK    4  A    between atoms: C_9  and  O_10
REMARK    5  A    between atoms: O_10  and  C_11
REMARK    6  A    between atoms: C_16  and  S_17
REMARK    7  A    between atoms: S_17  and  C_20
REMARK    8  A    between atoms: C_31  and  O_32
REMARK                            x       y       z     vdW  Elec       q    Type
REMARK                         _______ _______ _______ _____ _____    ______ ____
ROOT
ATOM      1  C   UNL     1       6.795   6.573  17.410  0.00  0.00    +0.000 A 
ATOM      2  C   UNL     1       7.082   5.790  18.535  0.00  0.00    +0.000 A 
ATOM      3  C   UNL     1       6.372   4.607  18.760  0.00  0.00    +0.000 A 
ATOM      4  C   UNL     1       5.369   4.215  17.869  0.00  0.00    +0.000 A 
ATOM      5  C   UNL     1       5.120   4.977  16.722  0.00  0.00    +0.000 A 
ATOM      6  C   UNL     1       5.819   6.165  16.499  0.00  0.00    +0.000 A 
ENDROOT
BRANCH   1   8
ATOM      7  N   UNL     1       7.976   8.555  18.137  0.00  0.00    +0.000 NA
ATOM      8  C   UNL     1       7.510   7.839  17.164  0.00  0.00    +0.000 C 
BRANCH   7  11
ATOM      9  O   UNL     1       9.291  10.222  19.938  0.00  0.00    +0.000 OA
ATOM     10  C   UNL     1       9.229  10.483  18.741  0.00  0.00    +0.000 C 
ATOM     11  N   UNL     1       8.612   9.703  17.774  0.00  0.00    +0.000 N 
ATOM     12  H   UNL     1       8.707   9.923  16.790  0.00  0.00    +0.000 HD
BRANCH  10  13
ATOM     13  C   UNL     1       9.892  11.717  18.232  0.00  0.00    +0.000 A 
ATOM     14  C   UNL     1       9.155  12.909  18.206  0.00  0.00    +0.000 A 
ATOM     15  C   UNL     1       9.736  14.089  17.737  0.00  0.00    +0.000 A 
ATOM     16  C   UNL     1      11.053  14.068  17.288  0.00  0.00    +0.000 A 
ATOM     17  C   UNL     1      11.792  12.889  17.293  0.00  0.00    +0.000 A 
ATOM     18  C   UNL     1      11.212  11.708  17.760  0.00  0.00    +0.000 A 
BRANCH  16  19
ATOM     19  O   UNL     1      11.664  15.192  16.819  0.00  0.00    +0.000 OA
ATOM     20  H   UNL     1      11.220  15.469  16.000  0.00  0.00    +0.000 HD
ENDBRANCH  16  19
ENDBRANCH  10  13
ENDBRANCH   7  11
ENDBRANCH   1   8
BRANCH   4  21
ATOM     21  O   UNL     1       4.705   3.040  18.148  0.00  0.00    +0.000 OA
BRANCH  21  22
ATOM     22  C   UNL     1       4.215   2.762  19.378  0.00  0.00    +0.000 A 
ATOM     23  N   UNL     1       4.974   2.121  20.271  0.00  0.00    +0.000 NA
ATOM     24  O   UNL     1       4.200   2.033  21.425  0.00  0.00    +0.000 OA
ATOM     25  N   UNL     1       2.915   2.603  21.123  0.00  0.00    +0.000 N 
ATOM     26  O   UNL     1       2.118   2.689  22.082  0.00  0.00    +0.000 OA
ATOM     27  C   UNL     1       2.946   3.031  19.876  0.00  0.00    +0.000 A 
BRANCH  27  28
ATOM     28  S   UNL     1       1.634   3.750  19.138  0.00  0.00    +0.000 S 
ATOM     29  O   UNL     1       1.711   3.354  17.747  0.00  0.00    +0.000 OA
ATOM     30  O   UNL     1       0.507   3.377  19.966  0.00  0.00    +0.000 OA
BRANCH  28  31
ATOM     31  C   UNL     1       1.876   5.502  19.230  0.00  0.00    +0.000 A 
ATOM     32  C   UNL     1       2.210   6.209  18.070  0.00  0.00    +0.000 A 
ATOM     33  C   UNL     1       2.342   7.597  18.123  0.00  0.00    +0.000 A 
ATOM     34  C   UNL     1       2.136   8.274  19.326  0.00  0.00    +0.000 A 
ATOM     35  C   UNL     1       1.793   7.566  20.479  0.00  0.00    +0.000 A 
ATOM     36  C   UNL     1       1.652   6.178  20.432  0.00  0.00    +0.000 A 
ENDBRANCH  28  31
ENDBRANCH  27  28
ENDBRANCH  21  22
ENDBRANCH   4  21
TORSDOF 8
ENDMDL
MODEL 2
REMARK VINA RESULT:     -10.0      0.177      1.184
REMARK  Name = 
REMARK  8 active torsions:
REMARK  status: ('A' for Active; 'I' for Inactive)
REMARK    1  A    between atoms: C_2  and  C_28
REMARK    2  A    between atoms: N_3  and  N_4
REMARK    3  A    between atoms: C_5  and  C_6
REMARK    4  A    between atoms: C_9  and  O_10
REMARK    5  A    between atoms: O_10  and  C_11
REMARK    6  A    between atoms: C_16  and  S_17
REMARK    7  A    between atoms: S_17  and  C_20
REMARK    8  A    between atoms: C_31  and  O_32
REMARK                            x       y       z     vdW  Elec       q    Type
REMARK                         _______ _______ _______ _____ _____    ______ ____
ROOT
ATOM      1  C   UNL     1       6.780   6.738  17.513  0.00  0.00    +0.000 A 
ATOM      2  C   UNL     1       5.660   6.384  16.752  0.00  0.00    +0.000 A 
ATOM      3  C   UNL     1       5.002   5.177  17.002  0.00  0.00    +0.000 A 
ATOM      4  C   UNL     1       5.471   4.321  18.002  0.00  0.00    +0.000 A 
ATOM      5  C   UNL     1       6.562   4.702  18.790  0.00  0.00    +0.000 A 
ATOM      6  C   UNL     1       7.228   5.903  18.537  0.00  0.00    +0.000 A 
ENDROOT
BRANCH   1   8
ATOM      7  N   UNL     1       8.121   8.632  18.196  0.00  0.00    +0.000 NA
ATOM      8  C   UNL     1       7.509   7.994  17.251  0.00  0.00    +0.000 C 
BRANCH   7  11
ATOM      9  O   UNL     1       9.338  10.375  19.995  0.00  0.00    +0.000 OA
ATOM     10  C   UNL     1       9.318  10.599  18.788  0.00  0.00    +0.000 C 
ATOM     11  N   UNL     1       8.751   9.781  17.823  0.00  0.00    +0.000 N 
ATOM     12  H   UNL     1       8.880   9.972  16.837  0.00  0.00    +0.000 HD
BRANCH  10  13
ATOM     13  C   UNL     1       9.979  11.829  18.268  0.00  0.00    +0.000 A 
ATOM     14  C   UNL     1       9.263  13.034  18.292  0.00  0.00    +0.000 A 
ATOM     15  C   UNL     1       9.845  14.211  17.814  0.00  0.00    +0.000 A 
ATOM     16  C   UNL     1      11.139  14.173  17.305  0.00  0.00    +0.000 A 
ATOM     17  C   UNL     1      11.856  12.981  17.259  0.00  0.00    +0.000 A 
ATOM     18  C   UNL     1      11.276  11.804  17.735  0.00  0.00    +0.000 A 
BRANCH  16  19
ATOM     19  O   UNL     1      11.748  15.293  16.825  0.00  0.00    +0.000 OA
ATOM     20  H   UNL     1      12.455  15.026  16.214  0.00  0.00    +0.000 HD
ENDBRANCH  16  19
ENDBRANCH  10  13
ENDBRANCH   7  11
ENDBRANCH   1   8
BRANCH   4  21
ATOM     21  O   UNL     1       4.779   3.144  18.197  0.00  0.00    +0.000 OA
BRANCH  21  22
ATOM     22  C   UNL     1       4.270   2.797  19.401  0.00  0.00    +0.000 A 
ATOM     23  N   UNL     1       5.041   2.181  20.302  0.00  0.00    +0.000 NA
ATOM     24  O   UNL     1       4.238   2.008  21.426  0.00  0.00    +0.000 OA
ATOM     25  N   UNL     1       2.928   2.500  21.096  0.00  0.00    +0.000 N 
ATOM     26  O   UNL     1       2.097   2.504  22.030  0.00  0.00    +0.000 OA
ATOM     27  C   UNL     1       2.970   2.966  19.864  0.00  0.00    +0.000 A 
BRANCH  27  28
ATOM     28  S   UNL     1       1.637   3.618  19.101  0.00  0.00    +0.000 S 
ATOM     29  O   UNL     1       1.766   3.237  17.710  0.00  0.00    +0.000 OA
ATOM     30  O   UNL     1       0.515   3.177  19.902  0.00  0.00    +0.000 OA
BRANCH  28  31
ATOM     31  C   UNL     1       1.781   5.380  19.209  0.00  0.00    +0.000 A 
ATOM     32  C   UNL     1       1.672   6.000  20.458  0.00  0.00    +0.000 A 
ATOM     33  C   UNL     1       1.845   7.381  20.559  0.00  0.00    +0.000 A 
ATOM     34  C   UNL     1       2.129   8.135  19.419  0.00  0.00    +0.000 A 
ATOM     35  C   UNL     1       2.247   7.512  18.176  0.00  0.00    +0.000 A 
ATOM     36  C   UNL     1       2.083   6.130  18.069  0.00  0.00    +0.000 A 
ENDBRANCH  28  31
ENDBRANCH  27  28
ENDBRANCH  21  22
ENDBRANCH   4  21
TORSDOF 8
ENDMDL
MODEL 3
REMARK VINA RESULT:      -9.6      0.738      1.042
REMARK  Name = 
REMARK  8 active torsions:
REMARK  status: ('A' for Active; 'I' for Inactive)
REMARK    1  A    between atoms: C_2  and  C_28
REMARK    2  A    between atoms: N_3  and  N_4
REMARK    3  A    between atoms: C_5  and  C_6
REMARK    4  A    between atoms: C_9  and  O_10
REMARK    5  A    between atoms: O_10  and  C_11
REMARK    6  A    between atoms: C_16  and  S_17
REMARK    7  A    between atoms: S_17  and  C_20
REMARK    8  A    between atoms: C_31  and  O_32
REMARK                            x       y       z     vdW  Elec       q    Type
REMARK                         _______ _______ _______ _____ _____    ______ ____
ROOT
ATOM      1  C   UNL     1       7.024   6.623  17.676  0.00  0.00    +0.000 A 
ATOM      2  C   UNL     1       6.897   5.687  16.644  0.00  0.00    +0.000 A 
ATOM      3  C   UNL     1       6.172   4.510  16.857  0.00  0.00    +0.000 A 
ATOM      4  C   UNL     1       5.587   4.267  18.102  0.00  0.00    +0.000 A 
ATOM      5  C   UNL     1       5.679   5.229  19.115  0.00  0.00    +0.000 A 
ATOM      6  C   UNL     1       6.411   6.400  18.909  0.00  0.00    +0.000 A 
ENDROOT
BRANCH   1   8
ATOM      7  N   UNL     1       8.197   8.575  18.491  0.00  0.00    +0.000 NA
ATOM      8  C   UNL     1       7.806   7.860  17.486  0.00  0.00    +0.000 C 
BRANCH   7  11
ATOM      9  O   UNL     1       9.328  10.263  20.396  0.00  0.00    +0.000 OA
ATOM     10  C   UNL     1       9.423  10.488  19.194  0.00  0.00    +0.000 C 
ATOM     11  N   UNL     1       8.908   9.695  18.179  0.00  0.00    +0.000 N 
ATOM     12  H   UNL     1       9.130   9.881  17.209  0.00  0.00    +0.000 HD
BRANCH  10  13
ATOM     13  C   UNL     1      10.180  11.688  18.738  0.00  0.00    +0.000 A 
ATOM     14  C   UNL     1      10.840  12.466  19.699  0.00  0.00    +0.000 A 
ATOM     15  C   UNL     1      11.561  13.599  19.316  0.00  0.00    +0.000 A 
ATOM     16  C   UNL     1      11.611  13.953  17.971  0.00  0.00    +0.000 A 
ATOM     17  C   UNL     1      10.948  13.200  17.008  0.00  0.00    +0.000 A 
ATOM     18  C   UNL     1      10.225  12.068  17.389  0.00  0.00    +0.000 A 
BRANCH  16  19
ATOM     19  O   UNL     1      12.299  15.050  17.549  0.00  0.00    +0.000 OA
ATOM     20  H   UNL     1      11.773  15.843  17.746  0.00  0.00    +0.000 HD
ENDBRANCH  16  19
ENDBRANCH  10  13
ENDBRANCH   7  11
ENDBRANCH   1   8
BRANCH   4  21
ATOM     21  O   UNL     1       4.888   3.088  18.248  0.00  0.00    +0.000 OA
BRANCH  21  22
ATOM     22  C   UNL     1       4.312   2.730  19.419  0.00  0.00    +0.000 A 
ATOM     23  N   UNL     1       5.019   2.066  20.338  0.00  0.00    +0.000 NA
ATOM     24  O   UNL     1       4.158   1.895  21.419  0.00  0.00    +0.000 OA
ATOM     25  N   UNL     1       2.883   2.440  21.042  0.00  0.00    +0.000 N 
ATOM     26  O   UNL     1       2.010   2.452  21.937  0.00  0.00    +0.000 OA
ATOM     27  C   UNL     1       2.999   2.934  19.825  0.00  0.00    +0.000 A 
BRANCH  27  28
ATOM     28  S   UNL     1       1.726   3.651  19.020  0.00  0.00    +0.000 S 
ATOM     29  O   UNL     1       1.887   3.271  17.632  0.00  0.00    +0.000 OA
ATOM     30  O   UNL     1       0.556   3.259  19.777  0.00  0.00    +0.000 OA
BRANCH  28  31
ATOM     31  C   UNL     1       1.947   5.403  19.144  0.00  0.00    +0.000 A 
ATOM     32  C   UNL     1       2.240   6.140  17.991  0.00  0.00    +0.000 A 
ATOM     33  C   UNL     1       2.355   7.528  18.071  0.00  0.00    +0.000 A 
ATOM     34  C   UNL     1       2.173   8.176  19.294  0.00  0.00    +0.000 A 
ATOM     35  C   UNL     1       1.871   7.439  20.440  0.00  0.00    +0.000 A 
ATOM     36  C   UNL     1       1.747   6.050  20.366  0.00  0.00    +0.000 A 
ENDBRANCH  28  31
ENDBRANCH  27  28
ENDBRANCH  21  22
ENDBRANCH   4  21
TORSDOF 8
ENDMDL
MODEL 4
REMARK VINA RESULT:      -8.9      1.352      2.168
REMARK  Name = 
REMARK  8 active torsions:
REMARK  status: ('A' for Active; 'I' for Inactive)
REMARK    1  A    between atoms: C_2  and  C_28
REMARK    2  A    between atoms: N_3  and  N_4
REMARK    3  A    between atoms: C_5  and  C_6
REMARK    4  A    between atoms: C_9  and  O_10
REMARK    5  A    between atoms: O_10  and  C_11
REMARK    6  A    between atoms: C_16  and  S_17
REMARK    7  A    between atoms: S_17  and  C_20
REMARK    8  A    between atoms: C_31  and  O_32
REMARK                            x       y       z     vdW  Elec       q    Type
REMARK                         _______ _______ _______ _____ _____    ______ ____
ROOT
ATOM      1  C   UNL     1       7.291   7.161  17.832  0.00  0.00    +0.000 A 
ATOM      2  C   UNL     1       6.192   6.736  17.076  0.00  0.00    +0.000 A 
ATOM      3  C   UNL     1       5.539   5.545  17.406  0.00  0.00    +0.000 A 
ATOM      4  C   UNL     1       5.991   4.776  18.481  0.00  0.00    +0.000 A 
ATOM      5  C   UNL     1       7.060   5.230  19.261  0.00  0.00    +0.000 A 
ATOM      6  C   UNL     1       7.722   6.413  18.929  0.00  0.00    +0.000 A 
ENDROOT
BRANCH   1   8
ATOM      7  N   UNL     1       8.555   9.143  18.399  0.00  0.00    +0.000 NA
ATOM      8  C   UNL     1       8.015   8.400  17.488  0.00  0.00    +0.000 C 
BRANCH   7  11
ATOM      9  O   UNL     1       9.337  11.242  20.054  0.00  0.00    +0.000 OA
ATOM     10  C   UNL     1       9.530  11.266  18.843  0.00  0.00    +0.000 C 
ATOM     11  N   UNL     1       9.190  10.262  17.949  0.00  0.00    +0.000 N 
ATOM     12  H   UNL     1       9.490  10.301  16.983  0.00  0.00    +0.000 HD
BRANCH  10  13
ATOM     13  C   UNL     1      10.218  12.443  18.242  0.00  0.00    +0.000 A 
ATOM     14  C   UNL     1       9.675  13.718  18.457  0.00  0.00    +0.000 A 
ATOM     15  C   UNL     1      10.288  14.848  17.912  0.00  0.00    +0.000 A 
ATOM     16  C   UNL     1      11.439  14.696  17.145  0.00  0.00    +0.000 A 
ATOM     17  C   UNL     1      11.981  13.436  16.909  0.00  0.00    +0.000 A 
ATOM     18  C   UNL     1      11.369  12.305  17.452  0.00  0.00    +0.000 A 
BRANCH  16  19
ATOM     19  O   UNL     1      12.072  15.767  16.591  0.00  0.00    +0.000 OA
ATOM     20  H   UNL     1      13.012  15.736  16.837  0.00  0.00    +0.000 HD
ENDBRANCH  16  19
ENDBRANCH  10  13
ENDBRANCH   7  11
ENDBRANCH   1   8
BRANCH   4  21
ATOM     21  O   UNL     1       5.305   3.611  18.753  0.00  0.00    +0.000 OA
BRANCH  21  22
ATOM     22  C   UNL     1       4.066   3.372  18.265  0.00  0.00    +0.000 A 
ATOM     23  N   UNL     1       3.915   2.674  17.136  0.00  0.00    +0.000 NA
ATOM     24  O   UNL     1       2.541   2.573  16.940  0.00  0.00    +0.000 OA
ATOM     25  N   UNL     1       1.903   3.318  17.990  0.00  0.00    +0.000 N 
ATOM     26  O   UNL     1       0.654   3.258  18.020  0.00  0.00    +0.000 OA
ATOM     27  C   UNL     1       2.846   3.798  18.776  0.00  0.00    +0.000 A 
BRANCH  27  28
ATOM     28  S   UNL     1       2.513   4.736  20.115  0.00  0.00    +0.000 S 
ATOM     29  O   UNL     1       1.279   4.207  20.657  0.00  0.00    +0.000 OA
ATOM     30  O   UNL     1       3.742   4.717  20.881  0.00  0.00    +0.000 OA
BRANCH  28  31
ATOM     31  C   UNL     1       2.204   6.382  19.538  0.00  0.00    +0.000 A 
ATOM     32  C   UNL     1       1.649   7.321  20.413  0.00  0.00    +0.000 A 
ATOM     33  C   UNL     1       1.459   8.635  19.985  0.00  0.00    +0.000 A 
ATOM     34  C   UNL     1       1.828   9.008  18.691  0.00  0.00    +0.000 A 
ATOM     35  C   UNL     1       2.392   8.071  17.824  0.00  0.00    +0.000 A 
ATOM     36  C   UNL     1       2.591   6.756  18.249  0.00  0.00    +0.000 A 
ENDBRANCH  28  31
ENDBRANCH  27  28
ENDBRANCH  21  22
ENDBRANCH   4  21
TORSDOF 8
ENDMDL
MODEL 5
REMARK VINA RESULT:      -8.7      5.586      8.890
REMARK  Name = 
REMARK  8 active torsions:
REMARK  status: ('A' for Active; 'I' for Inactive)
REMARK    1  A    between atoms: C_2  and  C_28
REMARK    2  A    between atoms: N_3  and  N_4
REMARK    3  A    between atoms: C_5  and  C_6
REMARK    4  A    between atoms: C_9  and  O_10
REMARK    5  A    between atoms: O_10  and  C_11
REMARK    6  A    between atoms: C_16  and  S_17
REMARK    7  A    between atoms: S_17  and  C_20
REMARK    8  A    between atoms: C_31  and  O_32
REMARK                            x       y       z     vdW  Elec       q    Type
REMARK                         _______ _______ _______ _____ _____    ______ ____
ROOT
ATOM      1  C   UNL     1       0.855   9.554  19.671  0.00  0.00    +0.000 A 
ATOM      2  C   UNL     1       1.441   8.496  20.375  0.00  0.00    +0.000 A 
ATOM      3  C   UNL     1       2.146   7.506  19.684  0.00  0.00    +0.000 A 
ATOM      4  C   UNL     1       2.252   7.568  18.292  0.00  0.00    +0.000 A 
ATOM      5  C   UNL     1       1.704   8.654  17.599  0.00  0.00    +0.000 A 
ATOM      6  C   UNL     1       0.990   9.639  18.285  0.00  0.00    +0.000 A 
ENDROOT
BRANCH   1   8
ATOM      7  N   UNL     1       0.587  11.263  21.362  0.00  0.00    +0.000 NA
ATOM      8  C   UNL     1       0.083  10.598  20.373  0.00  0.00    +0.000 C 
BRANCH   7  11
ATOM      9  O   UNL     1      -1.176  10.705  23.444  0.00  0.00    +0.000 OA
ATOM     10  C   UNL     1      -1.091  11.825  22.950  0.00  0.00    +0.000 C 
ATOM     11  N   UNL     1      -0.232  12.195  21.926  0.00  0.00    +0.000 N 
ATOM     12  H   UNL     1      -0.132  13.165  21.654  0.00  0.00    +0.000 HD
BRANCH  10  13
ATOM     13  C   UNL     1      -1.941  12.923  23.491  0.00  0.00    +0.000 A 
ATOM     14  C   UNL     1      -3.310  12.680  23.676  0.00  0.00    +0.000 A 
ATOM     15  C   UNL     1      -4.143  13.681  24.181  0.00  0.00    +0.000 A 
ATOM     16  C   UNL     1      -3.603  14.926  24.489  0.00  0.00    +0.000 A 
ATOM     17  C   UNL     1      -2.250  15.187  24.295  0.00  0.00    +0.000 A 
ATOM     18  C   UNL     1      -1.416  14.188  23.789  0.00  0.00    +0.000 A 
BRANCH  16  19
ATOM     19  O   UNL     1      -4.375  15.934  24.981  0.00  0.00    +0.000 OA
ATOM     20  H   UNL     1      -3.795  16.605  25.380  0.00  0.00    +0.000 HD
ENDBRANCH  16  19
ENDBRANCH  10  13
ENDBRANCH   7  11
ENDBRANCH   1   8
BRANCH   4  21
ATOM     21  O   UNL     1       2.957   6.560  17.670  0.00  0.00    +0.000 OA
BRANCH  21  22
ATOM     22  C   UNL     1       4.308   6.560  17.601  0.00  0.00    +0.000 A 
ATOM     23  N   UNL     1       4.959   7.668  17.233  0.00  0.00    +0.000 NA
ATOM     24  O   UNL     1       6.312   7.348  17.306  0.00  0.00    +0.000 OA
ATOM     25  N   UNL     1       6.405   5.961  17.671  0.00  0.00    +0.000 N 
ATOM     26  O   UNL     1       7.560   5.526  17.872  0.00  0.00    +0.000 OA
ATOM     27  C   UNL     1       5.179   5.504  17.838  0.00  0.00    +0.000 A 
BRANCH  27  28
ATOM     28  S   UNL     1       4.857   3.922  18.257  0.00  0.00    +0.000 S 
ATOM     29  O   UNL     1       4.790   3.198  17.005  0.00  0.00    +0.000 OA
ATOM     30  O   UNL     1       5.854   3.606  19.258  0.00  0.00    +0.000 OA
BRANCH  28  31
ATOM     31  C   UNL     1       3.249   3.894  19.000  0.00  0.00    +0.000 A 
ATOM     32  C   UNL     1       2.153   3.467  18.243  0.00  0.00    +0.000 A 
ATOM     33  C   UNL     1       0.894   3.385  18.839  0.00  0.00    +0.000 A 
ATOM     34  C   UNL     1       0.734   3.721  20.185  0.00  0.00    +0.000 A 
ATOM     35  C   UNL     1       1.832   4.136  20.940  0.00  0.00    +0.000 A 
ATOM     36  C   UNL     1       3.095   4.214  20.351  0.00  0.00    +0.000 A 
ENDBRANCH  28  31
ENDBRANCH  27  28
ENDBRANCH  21  22
ENDBRANCH   4  21
TORSDOF 8
ENDMDL
MODEL 6
REMARK VINA RESULT:      -8.6      5.586      8.957
REMARK  Name = 
REMARK  8 active torsions:
REMARK  status: ('A' for Active; 'I' for Inactive)
REMARK    1  A    between atoms: C_2  and  C_28
REMARK    2  A    between atoms: N_3  and  N_4
REMARK    3  A    between atoms: C_5  and  C_6
REMARK    4  A    between atoms: C_9  and  O_10
REMARK    5  A    between atoms: O_10  and  C_11
REMARK    6  A    between atoms: C_16  and  S_17
REMARK    7  A    between atoms: S_17  and  C_20
REMARK    8  A    between atoms: C_31  and  O_32
REMARK                            x       y       z     vdW  Elec       q    Type
REMARK                         _______ _______ _______ _____ _____    ______ ____
ROOT
ATOM      1  C   UNL     1       0.911   9.591  19.672  0.00  0.00    +0.000 A 
ATOM      2  C   UNL     1       1.429   8.482  20.349  0.00  0.00    +0.000 A 
ATOM      3  C   UNL     1       2.140   7.505  19.645  0.00  0.00    +0.000 A 
ATOM      4  C   UNL     1       2.322   7.633  18.266  0.00  0.00    +0.000 A 
ATOM      5  C   UNL     1       1.843   8.769  17.603  0.00  0.00    +0.000 A 
ATOM      6  C   UNL     1       1.123   9.741  18.300  0.00  0.00    +0.000 A 
ENDROOT
BRANCH   1   8
ATOM      7  N   UNL     1       0.623  11.257  21.402  0.00  0.00    +0.000 NA
ATOM      8  C   UNL     1       0.134  10.622  20.386  0.00  0.00    +0.000 C 
BRANCH   7  11
ATOM      9  O   UNL     1      -1.296  10.631  23.320  0.00  0.00    +0.000 OA
ATOM     10  C   UNL     1      -1.139  11.777  22.911  0.00  0.00    +0.000 C 
ATOM     11  N   UNL     1      -0.200  12.180  21.974  0.00  0.00    +0.000 N 
ATOM     12  H   UNL     1      -0.049  13.161  21.777  0.00  0.00    +0.000 HD
BRANCH  10  13
ATOM     13  C   UNL     1      -1.986  12.868  23.470  0.00  0.00    +0.000 A 
ATOM     14  C   UNL     1      -1.375  14.088  23.796  0.00  0.00    +0.000 A 
ATOM     15  C   UNL     1      -2.131  15.138  24.322  0.00  0.00    +0.000 A 
ATOM     16  C   UNL     1      -3.496  14.958  24.529  0.00  0.00    +0.000 A 
ATOM     17  C   UNL     1      -4.113  13.748  24.226  0.00  0.00    +0.000 A 
ATOM     18  C   UNL     1      -3.358  12.697  23.701  0.00  0.00    +0.000 A 
BRANCH  16  19
ATOM     19  O   UNL     1      -4.275  15.951  25.042  0.00  0.00    +0.000 OA
ATOM     20  H   UNL     1      -3.739  16.482  25.655  0.00  0.00    +0.000 HD
ENDBRANCH  16  19
ENDBRANCH  10  13
ENDBRANCH   7  11
ENDBRANCH   1   8
BRANCH   4  21
ATOM     21  O   UNL     1       3.030   6.636  17.630  0.00  0.00    +0.000 OA
BRANCH  21  22
ATOM     22  C   UNL     1       4.375   6.682  17.490  0.00  0.00    +0.000 A 
ATOM     23  N   UNL     1       4.973   7.825  17.143  0.00  0.00    +0.000 NA
ATOM     24  O   UNL     1       6.337   7.544  17.130  0.00  0.00    +0.000 OA
ATOM     25  N   UNL     1       6.488   6.145  17.422  0.00  0.00    +0.000 N 
ATOM     26  O   UNL     1       7.664   5.737  17.541  0.00  0.00    +0.000 OA
ATOM     27  C   UNL     1       5.287   5.643  17.630  0.00  0.00    +0.000 A 
BRANCH  27  28
ATOM     28  S   UNL     1       5.033   4.034  17.989  0.00  0.00    +0.000 S 
ATOM     29  O   UNL     1       4.960   3.362  16.709  0.00  0.00    +0.000 OA
ATOM     30  O   UNL     1       6.066   3.713  18.951  0.00  0.00    +0.000 OA
BRANCH  28  31
ATOM     31  C   UNL     1       3.447   3.915  18.769  0.00  0.00    +0.000 A 
ATOM     32  C   UNL     1       3.330   4.207  20.131  0.00  0.00    +0.000 A 
ATOM     33  C   UNL     1       2.074   4.174  20.738  0.00  0.00    +0.000 A 
ATOM     34  C   UNL     1       0.942   3.856  19.986  0.00  0.00    +0.000 A 
ATOM     35  C   UNL     1       1.061   3.575  18.624  0.00  0.00    +0.000 A 
ATOM     36  C   UNL     1       2.314   3.613  18.009  0.00  0.00    +0.000 A 
ENDBRANCH  28  31
ENDBRANCH  27  28
ENDBRANCH  21  22
ENDBRANCH   4  21
TORSDOF 8
ENDMDL
MODEL 7
REMARK VINA RESULT:      -8.6      5.440      9.036
REMARK  Name = 
REMARK  8 active torsions:
REMARK  status: ('A' for Active; 'I' for Inactive)
REMARK    1  A    between atoms: C_2  and  C_28
REMARK    2  A    between atoms: N_3  and  N_4
REMARK    3  A    between atoms: C_5  and  C_6
REMARK    4  A    between atoms: C_9  and  O_10
REMARK    5  A    between atoms: O_10  and  C_11
REMARK    6  A    between atoms: C_16  and  S_17
REMARK    7  A    between atoms: S_17  and  C_20
REMARK    8  A    between atoms: C_31  and  O_32
REMARK                            x       y       z     vdW  Elec       q    Type
REMARK                         _______ _______ _______ _____ _____    ______ ____
ROOT
ATOM      1  C   UNL     1       1.469   8.284  20.112  0.00  0.00    +0.000 A 
ATOM      2  C   UNL     1       1.780   6.987  20.537  0.00  0.00    +0.000 A 
ATOM      3  C   UNL     1       2.444   6.112  19.673  0.00  0.00    +0.000 A 
ATOM      4  C   UNL     1       2.784   6.528  18.384  0.00  0.00    +0.000 A 
ATOM      5  C   UNL     1       2.513   7.841  17.982  0.00  0.00    +0.000 A 
ATOM      6  C   UNL     1       1.840   8.715  18.838  0.00  0.00    +0.000 A 
ENDROOT
BRANCH   1   8
ATOM      7  N   UNL     1       0.953  10.495  20.947  0.00  0.00    +0.000 NA
ATOM      8  C   UNL     1       0.745   9.218  20.995  0.00  0.00    +0.000 C 
BRANCH   7  11
ATOM      9  O   UNL     1      -1.505  11.638  20.310  0.00  0.00    +0.000 OA
ATOM     10  C   UNL     1      -0.985  11.791  21.411  0.00  0.00    +0.000 C 
ATOM     11  N   UNL     1       0.223  11.246  21.818  0.00  0.00    +0.000 N 
ATOM     12  H   UNL     1       0.528  11.317  22.781  0.00  0.00    +0.000 HD
BRANCH  10  13
ATOM     13  C   UNL     1      -1.697  12.596  22.443  0.00  0.00    +0.000 A 
ATOM     14  C   UNL     1      -1.015  13.661  23.049  0.00  0.00    +0.000 A 
ATOM     15  C   UNL     1      -1.645  14.441  24.021  0.00  0.00    +0.000 A 
ATOM     16  C   UNL     1      -2.954  14.145  24.390  0.00  0.00    +0.000 A 
ATOM     17  C   UNL     1      -3.638  13.081  23.810  0.00  0.00    +0.000 A 
ATOM     18  C   UNL     1      -3.010  12.299  22.839  0.00  0.00    +0.000 A 
BRANCH  16  19
ATOM     19  O   UNL     1      -3.610  14.875  25.335  0.00  0.00    +0.000 OA
ATOM     20  H   UNL     1      -3.549  14.409  26.186  0.00  0.00    +0.000 HD
ENDBRANCH  16  19
ENDBRANCH  10  13
ENDBRANCH   7  11
ENDBRANCH   1   8
BRANCH   4  21
ATOM     21  O   UNL     1       3.436   5.617  17.580  0.00  0.00    +0.000 OA
BRANCH  21  22
ATOM     22  C   UNL     1       4.624   5.070  17.924  0.00  0.00    +0.000 A 
ATOM     23  N   UNL     1       4.709   4.272  18.993  0.00  0.00    +0.000 NA
ATOM     24  O   UNL     1       6.035   3.851  19.040  0.00  0.00    +0.000 OA
ATOM     25  N   UNL     1       6.732   4.512  17.972  0.00  0.00    +0.000 N 
ATOM     26  O   UNL     1       7.926   4.176  17.810  0.00  0.00    +0.000 OA
ATOM     27  C   UNL     1       5.859   5.249  17.314  0.00  0.00    +0.000 A 
BRANCH  27  28
ATOM     28  S   UNL     1       6.280   6.187  16.000  0.00  0.00    +0.000 S 
ATOM     29  O   UNL     1       5.171   7.098  15.807  0.00  0.00    +0.000 OA
ATOM     30  O   UNL     1       7.607   6.672  16.317  0.00  0.00    +0.000 OA
BRANCH  28  31
ATOM     31  C   UNL     1       6.367   5.113  14.595  0.00  0.00    +0.000 A 
ATOM     32  C   UNL     1       5.286   4.274  14.307  0.00  0.00    +0.000 A 
ATOM     33  C   UNL     1       5.322   3.470  13.167  0.00  0.00    +0.000 A 
ATOM     34  C   UNL     1       6.430   3.509  12.319  0.00  0.00    +0.000 A 
ATOM     35  C   UNL     1       7.502   4.356  12.603  0.00  0.00    +0.000 A 
ATOM     36  C   UNL     1       7.469   5.168  13.738  0.00  0.00    +0.000 A 
ENDBRANCH  28  31
ENDBRANCH  27  28
ENDBRANCH  21  22
ENDBRANCH   4  21
TORSDOF 8
ENDMDL
MODEL 8
REMARK VINA RESULT:      -8.5      1.754      2.302
REMARK  Name = 
REMARK  8 active torsions:
REMARK  status: ('A' for Active; 'I' for Inactive)
REMARK    1  A    between atoms: C_2  and  C_28
REMARK    2  A    between atoms: N_3  and  N_4
REMARK    3  A    between atoms: C_5  and  C_6
REMARK    4  A    between atoms: C_9  and  O_10
REMARK    5  A    between atoms: O_10  and  C_11
REMARK    6  A    between atoms: C_16  and  S_17
REMARK    7  A    between atoms: S_17  and  C_20
REMARK    8  A    between atoms: C_31  and  O_32
REMARK                            x       y       z     vdW  Elec       q    Type
REMARK                         _______ _______ _______ _____ _____    ______ ____
ROOT
ATOM      1  C   UNL     1       7.716   7.684  17.891  0.00  0.00    +0.000 A 
ATOM      2  C   UNL     1       8.092   6.699  18.810  0.00  0.00    +0.000 A 
ATOM      3  C   UNL     1       7.347   5.520  18.912  0.00  0.00    +0.000 A 
ATOM      4  C   UNL     1       6.223   5.334  18.104  0.00  0.00    +0.000 A 
ATOM      5  C   UNL     1       5.880   6.303  17.154  0.00  0.00    +0.000 A 
ATOM      6  C   UNL     1       6.615   7.486  17.057  0.00  0.00    +0.000 A 
ENDROOT
BRANCH   1   8
ATOM      7  N   UNL     1       8.725   9.676  18.823  0.00  0.00    +0.000 NA
ATOM      8  C   UNL     1       8.469   8.949  17.784  0.00  0.00    +0.000 C 
BRANCH   7  11
ATOM      9  O   UNL     1       7.695  11.845  17.412  0.00  0.00    +0.000 OA
ATOM     10  C   UNL     1       8.838  11.847  17.860  0.00  0.00    +0.000 C 
ATOM     11  N   UNL     1       9.424  10.821  18.586  0.00  0.00    +0.000 N 
ATOM     12  H   UNL     1      10.328  10.945  19.025  0.00  0.00    +0.000 HD
BRANCH  10  13
ATOM     13  C   UNL     1       9.693  13.051  17.659  0.00  0.00    +0.000 A 
ATOM     14  C   UNL     1       9.170  14.306  18.000  0.00  0.00    +0.000 A 
ATOM     15  C   UNL     1       9.937  15.461  17.828  0.00  0.00    +0.000 A 
ATOM     16  C   UNL     1      11.223  15.353  17.307  0.00  0.00    +0.000 A 
ATOM     17  C   UNL     1      11.750  14.116  16.949  0.00  0.00    +0.000 A 
ATOM     18  C   UNL     1      10.984  12.961  17.119  0.00  0.00    +0.000 A 
BRANCH  16  19
ATOM     19  O   UNL     1      12.009  16.450  17.118  0.00  0.00    +0.000 OA
ATOM     20  H   UNL     1      11.732  16.895  16.300  0.00  0.00    +0.000 HD
ENDBRANCH  16  19
ENDBRANCH  10  13
ENDBRANCH   7  11
ENDBRANCH   1   8
BRANCH   4  21
ATOM     21  O   UNL     1       5.530   4.152  18.253  0.00  0.00    +0.000 OA
BRANCH  21  22
ATOM     22  C   UNL     1       4.285   3.977  17.754  0.00  0.00    +0.000 A 
ATOM     23  N   UNL     1       4.119   3.429  16.546  0.00  0.00    +0.000 NA
ATOM     24  O   UNL     1       2.742   3.354  16.356  0.00  0.00    +0.000 OA
ATOM     25  N   UNL     1       2.118   3.958  17.501  0.00  0.00    +0.000 N 
ATOM     26  O   UNL     1       0.870   3.894  17.539  0.00  0.00    +0.000 OA
ATOM     27  C   UNL     1       3.072   4.333  18.330  0.00  0.00    +0.000 A 
BRANCH  27  28
ATOM     28  S   UNL     1       2.756   5.091  19.782  0.00  0.00    +0.000 S 
ATOM     29  O   UNL     1       1.566   4.450  20.300  0.00  0.00    +0.000 OA
ATOM     30  O   UNL     1       4.014   5.035  20.497  0.00  0.00    +0.000 OA
BRANCH  28  31
ATOM     31  C   UNL     1       2.363   6.779  19.418  0.00  0.00    +0.000 A 
ATOM     32  C   UNL     1       2.647   7.290  18.147  0.00  0.00    +0.000 A 
ATOM     33  C   UNL     1       2.284   8.600  17.833  0.00  0.00    +0.000 A 
ATOM     34  C   UNL     1       1.637   9.393  18.783  0.00  0.00    +0.000 A 
ATOM     35  C   UNL     1       1.346   8.877  20.047  0.00  0.00    +0.000 A 
ATOM     36  C   UNL     1       1.700   7.565  20.365  0.00  0.00    +0.000 A 
ENDBRANCH  28  31
ENDBRANCH  27  28
ENDBRANCH  21  22
ENDBRANCH   4  21
TORSDOF 8
ENDMDL
MODEL 9
REMARK VINA RESULT:      -8.5      5.541      9.036
REMARK  Name = 
REMARK  8 active torsions:
REMARK  status: ('A' for Active; 'I' for Inactive)
REMARK    1  A    between atoms: C_2  and  C_28
REMARK    2  A    between atoms: N_3  and  N_4
REMARK    3  A    between atoms: C_5  and  C_6
REMARK    4  A    between atoms: C_9  and  O_10
REMARK    5  A    between atoms: O_10  and  C_11
REMARK    6  A    between atoms: C_16  and  S_17
REMARK    7  A    between atoms: S_17  and  C_20
REMARK    8  A    between atoms: C_31  and  O_32
REMARK                            x       y       z     vdW  Elec       q    Type
REMARK                         _______ _______ _______ _____ _____    ______ ____
ROOT
ATOM      1  C   UNL     1       1.137   9.288  19.818  0.00  0.00    +0.000 A 
ATOM      2  C   UNL     1       1.608   8.139  20.463  0.00  0.00    +0.000 A 
ATOM      3  C   UNL     1       2.245   7.138  19.724  0.00  0.00    +0.000 A 
ATOM      4  C   UNL     1       2.399   7.281  18.342  0.00  0.00    +0.000 A 
ATOM      5  C   UNL     1       1.968   8.454  17.712  0.00  0.00    +0.000 A 
ATOM      6  C   UNL     1       1.322   9.451  18.445  0.00  0.00    +0.000 A 
ENDROOT
BRANCH   1   8
ATOM      7  N   UNL     1      -0.846  10.496  20.497  0.00  0.00    +0.000 NA
ATOM      8  C   UNL     1       0.438  10.348  20.571  0.00  0.00    +0.000 C 
BRANCH   7  11
ATOM      9  O   UNL     1      -0.845  10.533  23.282  0.00  0.00    +0.000 OA
ATOM     10  C   UNL     1      -1.338  11.443  22.622  0.00  0.00    +0.000 C 
ATOM     11  N   UNL     1      -1.367  11.514  21.238  0.00  0.00    +0.000 N 
ATOM     12  H   UNL     1      -1.682  12.353  20.766  0.00  0.00    +0.000 HD
BRANCH  10  13
ATOM     13  C   UNL     1      -1.936  12.610  23.330  0.00  0.00    +0.000 A 
ATOM     14  C   UNL     1      -3.289  12.549  23.693  0.00  0.00    +0.000 A 
ATOM     15  C   UNL     1      -3.890  13.621  24.357  0.00  0.00    +0.000 A 
ATOM     16  C   UNL     1      -3.135  14.753  24.647  0.00  0.00    +0.000 A 
ATOM     17  C   UNL     1      -1.796  14.834  24.279  0.00  0.00    +0.000 A 
ATOM     18  C   UNL     1      -1.194  13.765  23.613  0.00  0.00    +0.000 A 
BRANCH  16  19
ATOM     19  O   UNL     1      -3.677  15.824  25.291  0.00  0.00    +0.000 OA
ATOM     20  H   UNL     1      -3.171  15.988  26.105  0.00  0.00    +0.000 HD
ENDBRANCH  16  19
ENDBRANCH  10  13
ENDBRANCH   7  11
ENDBRANCH   1   8
BRANCH   4  21
ATOM     21  O   UNL     1       3.033   6.258  17.671  0.00  0.00    +0.000 OA
BRANCH  21  22
ATOM     22  C   UNL     1       4.249   6.414  17.098  0.00  0.00    +0.000 A 
ATOM     23  N   UNL     1       4.384   7.183  16.014  0.00  0.00    +0.000 NA
ATOM     24  O   UNL     1       5.743   7.165  15.710  0.00  0.00    +0.000 OA
ATOM     25  N   UNL     1       6.379   6.280  16.646  0.00  0.00    +0.000 N 
ATOM     26  O   UNL     1       7.625   6.215  16.574  0.00  0.00    +0.000 OA
ATOM     27  C   UNL     1       5.454   5.832  17.472  0.00  0.00    +0.000 A 
BRANCH  27  28
ATOM     28  S   UNL     1       5.790   4.762  18.707  0.00  0.00    +0.000 S 
ATOM     29  O   UNL     1       6.925   3.989  18.246  0.00  0.00    +0.000 OA
ATOM     30  O   UNL     1       5.874   5.593  19.889  0.00  0.00    +0.000 OA
BRANCH  28  31
ATOM     31  C   UNL     1       4.401   3.673  18.850  0.00  0.00    +0.000 A 
ATOM     32  C   UNL     1       3.635   3.691  20.021  0.00  0.00    +0.000 A 
ATOM     33  C   UNL     1       2.503   2.881  20.117  0.00  0.00    +0.000 A 
ATOM     34  C   UNL     1       2.137   2.062  19.047  0.00  0.00    +0.000 A 
ATOM     35  C   UNL     1       2.898   2.054  17.877  0.00  0.00    +0.000 A 
ATOM     36  C   UNL     1       4.027   2.868  17.772  0.00  0.00    +0.000 A 
ENDBRANCH  28  31
ENDBRANCH  27  28
ENDBRANCH  21  22
ENDBRANCH   4  21
TORSDOF 8
ENDMDL
