MODEL 1
REMARK VINA RESULT:      -8.5      0.000      0.000
REMARK  Name = 
REMARK  2 active torsions:
REMARK  status: ('A' for Active; 'I' for Inactive)
REMARK    1  A    between atoms: C_4  and  C_5
REMARK    2  A    between atoms: C_8  and  C_9
REMARK                            x       y       z     vdW  Elec       q    Type
REMARK                         _______ _______ _______ _____ _____    ______ ____
ROOT
ATOM      1  O   UNL     1       7.840   6.335  15.870  0.00  0.00    +0.000 OA
ATOM      2  C   UNL     1       7.010   5.538  15.479  0.00  0.00    +0.000 C 
ATOM      3  C   UNL     1       5.836   5.009  16.246  0.00  0.00    +0.000 C 
ATOM      4  C   UNL     1       5.525   5.431  17.478  0.00  0.00    +0.000 C 
ATOM      5  C   UNL     1       5.108   4.012  15.382  0.00  0.00    +0.000 C 
ATOM      6  C   UNL     1       5.855   4.057  14.087  0.00  0.00    +0.000 A 
ATOM      7  C   UNL     1       5.567   3.364  12.923  0.00  0.00    +0.000 A 
ATOM      8  C   UNL     1       6.403   3.550  11.819  0.00  0.00    +0.000 A 
ATOM      9  C   UNL     1       7.512   4.411  11.892  0.00  0.00    +0.000 A 
ATOM     10  C   UNL     1       7.800   5.106  13.071  0.00  0.00    +0.000 A 
ATOM     11  C   UNL     1       6.953   4.914  14.148  0.00  0.00    +0.000 A 
ENDROOT
BRANCH   4  12
ATOM     12  C   UNL     1       4.366   4.921  18.214  0.00  0.00    +0.000 A 
ATOM     13  C   UNL     1       3.104   5.484  18.015  0.00  0.00    +0.000 A 
ATOM     14  C   UNL     1       1.991   4.974  18.690  0.00  0.00    +0.000 A 
ATOM     15  C   UNL     1       2.122   3.888  19.569  0.00  0.00    +0.000 A 
ATOM     16  C   UNL     1       3.399   3.345  19.786  0.00  0.00    +0.000 A 
ATOM     17  C   UNL     1       4.513   3.865  19.119  0.00  0.00    +0.000 A 
BRANCH  15  18
ATOM     18  C   UNL     1       0.911   3.301  20.254  0.00  0.00    +0.000 C 
ATOM     19  F   UNL     1       0.217   2.427  19.470  0.00  0.00    +0.000 F 
ATOM     20  F   UNL     1       1.233   2.610  21.382  0.00  0.00    +0.000 F 
ATOM     21  F   UNL     1       0.011   4.248  20.638  0.00  0.00    +0.000 F 
ENDBRANCH  15  18
ENDBRANCH   4  12
TORSDOF 2
ENDMDL
MODEL 2
REMARK VINA RESULT:      -8.4      0.125      1.344
REMARK  Name = 
REMARK  2 active torsions:
REMARK  status: ('A' for Active; 'I' for Inactive)
REMARK    1  A    between atoms: C_4  and  C_5
REMARK    2  A    between atoms: C_8  and  C_9
REMARK                            x       y       z     vdW  Elec       q    Type
REMARK                         _______ _______ _______ _____ _____    ______ ____
ROOT
ATOM      1  O   UNL     1       7.843   6.280  15.863  0.00  0.00    +0.000 OA
ATOM      2  C   UNL     1       7.018   5.490  15.446  0.00  0.00    +0.000 C 
ATOM      3  C   UNL     1       5.835   4.947  16.186  0.00  0.00    +0.000 C 
ATOM      4  C   UNL     1       5.507   5.345  17.422  0.00  0.00    +0.000 C 
ATOM      5  C   UNL     1       5.119   3.966  15.294  0.00  0.00    +0.000 C 
ATOM      6  C   UNL     1       5.883   4.036  14.011  0.00  0.00    +0.000 A 
ATOM      7  C   UNL     1       5.611   3.365  12.829  0.00  0.00    +0.000 A 
ATOM      8  C   UNL     1       6.462   3.571  11.741  0.00  0.00    +0.000 A 
ATOM      9  C   UNL     1       7.570   4.431  11.845  0.00  0.00    +0.000 A 
ATOM     10  C   UNL     1       7.842   5.104  13.041  0.00  0.00    +0.000 A 
ATOM     11  C   UNL     1       6.980   4.891  14.103  0.00  0.00    +0.000 A 
ENDROOT
BRANCH   4  12
ATOM     12  C   UNL     1       4.338   4.821  18.132  0.00  0.00    +0.000 A 
ATOM     13  C   UNL     1       4.487   3.804  19.077  0.00  0.00    +0.000 A 
ATOM     14  C   UNL     1       3.377   3.328  19.781  0.00  0.00    +0.000 A 
ATOM     15  C   UNL     1       2.101   3.867  19.555  0.00  0.00    +0.000 A 
ATOM     16  C   UNL     1       1.954   4.870  18.583  0.00  0.00    +0.000 A 
ATOM     17  C   UNL     1       3.064   5.335  17.870  0.00  0.00    +0.000 A 
BRANCH  15  18
ATOM     18  C   UNL     1       0.912   3.393  20.356  0.00  0.00    +0.000 C 
ATOM     19  F   UNL     1       1.256   2.776  21.522  0.00  0.00    +0.000 F 
ATOM     20  F   UNL     1       0.080   4.412  20.709  0.00  0.00    +0.000 F 
ATOM     21  F   UNL     1       0.142   2.499  19.677  0.00  0.00    +0.000 F 
ENDBRANCH  15  18
ENDBRANCH   4  12
TORSDOF 2
ENDMDL
MODEL 3
REMARK VINA RESULT:      -7.8      4.627      7.970
REMARK  Name = 
REMARK  2 active torsions:
REMARK  status: ('A' for Active; 'I' for Inactive)
REMARK    1  A    between atoms: C_4  and  C_5
REMARK    2  A    between atoms: C_8  and  C_9
REMARK                            x       y       z     vdW  Elec       q    Type
REMARK                         _______ _______ _______ _____ _____    ______ ____
ROOT
ATOM      1  O   UNL     1       1.532  10.639  18.514  0.00  0.00    +0.000 OA
ATOM      2  C   UNL     1       1.251   9.855  19.399  0.00  0.00    +0.000 C 
ATOM      3  C   UNL     1       1.571   8.392  19.444  0.00  0.00    +0.000 C 
ATOM      4  C   UNL     1       2.296   7.780  18.499  0.00  0.00    +0.000 C 
ATOM      5  C   UNL     1       0.990   7.811  20.707  0.00  0.00    +0.000 C 
ATOM      6  C   UNL     1       0.409   9.000  21.404  0.00  0.00    +0.000 A 
ATOM      7  C   UNL     1      -0.208   9.031  22.645  0.00  0.00    +0.000 A 
ATOM      8  C   UNL     1      -0.689  10.256  23.113  0.00  0.00    +0.000 A 
ATOM      9  C   UNL     1      -0.558  11.424  22.341  0.00  0.00    +0.000 A 
ATOM     10  C   UNL     1       0.062  11.387  21.088  0.00  0.00    +0.000 A 
ATOM     11  C   UNL     1       0.539  10.164  20.649  0.00  0.00    +0.000 A 
ENDROOT
BRANCH   4  12
ATOM     12  C   UNL     1       2.619   6.353  18.559  0.00  0.00    +0.000 A 
ATOM     13  C   UNL     1       3.702   5.909  19.322  0.00  0.00    +0.000 A 
ATOM     14  C   UNL     1       3.989   4.544  19.408  0.00  0.00    +0.000 A 
ATOM     15  C   UNL     1       3.194   3.600  18.740  0.00  0.00    +0.000 A 
ATOM     16  C   UNL     1       2.125   4.055  17.951  0.00  0.00    +0.000 A 
ATOM     17  C   UNL     1       1.847   5.423  17.856  0.00  0.00    +0.000 A 
BRANCH  15  18
ATOM     18  C   UNL     1       3.470   2.122  18.880  0.00  0.00    +0.000 C 
ATOM     19  F   UNL     1       4.500   1.842  19.728  0.00  0.00    +0.000 F 
ATOM     20  F   UNL     1       2.398   1.434  19.360  0.00  0.00    +0.000 F 
ATOM     21  F   UNL     1       3.794   1.532  17.696  0.00  0.00    +0.000 F 
ENDBRANCH  15  18
ENDBRANCH   4  12
TORSDOF 2
ENDMDL
MODEL 4
REMARK VINA RESULT:      -7.7      4.676      7.877
REMARK  Name = 
REMARK  2 active torsions:
REMARK  status: ('A' for Active; 'I' for Inactive)
REMARK    1  A    between atoms: C_4  and  C_5
REMARK    2  A    between atoms: C_8  and  C_9
REMARK                            x       y       z     vdW  Elec       q    Type
REMARK                         _______ _______ _______ _____ _____    ______ ____
ROOT
ATOM      1  O   UNL     1       1.629  10.560  18.451  0.00  0.00    +0.000 OA
ATOM      2  C   UNL     1       1.310   9.809  19.352  0.00  0.00    +0.000 C 
ATOM      3  C   UNL     1       1.587   8.339  19.441  0.00  0.00    +0.000 C 
ATOM      4  C   UNL     1       2.307   7.680  18.524  0.00  0.00    +0.000 C 
ATOM      5  C   UNL     1       0.969   7.810  20.709  0.00  0.00    +0.000 C 
ATOM      6  C   UNL     1       0.412   9.033  21.365  0.00  0.00    +0.000 A 
ATOM      7  C   UNL     1      -0.222   9.116  22.594  0.00  0.00    +0.000 A 
ATOM      8  C   UNL     1      -0.673  10.367  23.022  0.00  0.00    +0.000 A 
ATOM      9  C   UNL     1      -0.496  11.509  22.222  0.00  0.00    +0.000 A 
ATOM     10  C   UNL     1       0.142  11.420  20.981  0.00  0.00    +0.000 A 
ATOM     11  C   UNL     1       0.589  10.172  20.581  0.00  0.00    +0.000 A 
ENDROOT
BRANCH   4  12
ATOM     12  C   UNL     1       2.587   6.247  18.628  0.00  0.00    +0.000 A 
ATOM     13  C   UNL     1       1.789   5.324  17.947  0.00  0.00    +0.000 A 
ATOM     14  C   UNL     1       2.077   3.958  18.016  0.00  0.00    +0.000 A 
ATOM     15  C   UNL     1       3.172   3.493  18.762  0.00  0.00    +0.000 A 
ATOM     16  C   UNL     1       3.952   4.424  19.468  0.00  0.00    +0.000 A 
ATOM     17  C   UNL     1       3.653   5.789  19.407  0.00  0.00    +0.000 A 
BRANCH  15  18
ATOM     18  C   UNL     1       3.517   2.023  18.791  0.00  0.00    +0.000 C 
ATOM     19  F   UNL     1       3.936   1.543  17.585  0.00  0.00    +0.000 F 
ATOM     20  F   UNL     1       4.517   1.739  19.670  0.00  0.00    +0.000 F 
ATOM     21  F   UNL     1       2.463   1.241  19.154  0.00  0.00    +0.000 F 
ENDBRANCH  15  18
ENDBRANCH   4  12
TORSDOF 2
ENDMDL
MODEL 5
REMARK VINA RESULT:      -7.5      5.015      7.916
REMARK  Name = 
REMARK  2 active torsions:
REMARK  status: ('A' for Active; 'I' for Inactive)
REMARK    1  A    between atoms: C_4  and  C_5
REMARK    2  A    between atoms: C_8  and  C_9
REMARK                            x       y       z     vdW  Elec       q    Type
REMARK                         _______ _______ _______ _____ _____    ______ ____
ROOT
ATOM      1  O   UNL     1       1.539   7.984  21.580  0.00  0.00    +0.000 OA
ATOM      2  C   UNL     1       1.432   8.337  20.422  0.00  0.00    +0.000 C 
ATOM      3  C   UNL     1       2.139   7.759  19.234  0.00  0.00    +0.000 C 
ATOM      4  C   UNL     1       2.951   6.697  19.320  0.00  0.00    +0.000 C 
ATOM      5  C   UNL     1       1.735   8.537  18.009  0.00  0.00    +0.000 C 
ATOM      6  C   UNL     1       0.725   9.509  18.528  0.00  0.00    +0.000 A 
ATOM      7  C   UNL     1      -0.006  10.435  17.800  0.00  0.00    +0.000 A 
ATOM      8  C   UNL     1      -0.901  11.258  18.488  0.00  0.00    +0.000 A 
ATOM      9  C   UNL     1      -1.050  11.154  19.882  0.00  0.00    +0.000 A 
ATOM     10  C   UNL     1      -0.308  10.220  20.612  0.00  0.00    +0.000 A 
ATOM     11  C   UNL     1       0.566   9.409  19.909  0.00  0.00    +0.000 A 
ENDROOT
BRANCH   4  12
ATOM     12  C   UNL     1       3.624   6.128  18.151  0.00  0.00    +0.000 A 
ATOM     13  C   UNL     1       4.456   6.925  17.361  0.00  0.00    +0.000 A 
ATOM     14  C   UNL     1       5.128   6.374  16.266  0.00  0.00    +0.000 A 
ATOM     15  C   UNL     1       4.984   5.014  15.947  0.00  0.00    +0.000 A 
ATOM     16  C   UNL     1       4.123   4.225  16.728  0.00  0.00    +0.000 A 
ATOM     17  C   UNL     1       3.442   4.782  17.816  0.00  0.00    +0.000 A 
BRANCH  15  18
ATOM     18  C   UNL     1       5.754   4.406  14.800  0.00  0.00    +0.000 C 
ATOM     19  F   UNL     1       6.300   3.192  15.098  0.00  0.00    +0.000 F 
ATOM     20  F   UNL     1       4.978   4.202  13.700  0.00  0.00    +0.000 F 
ATOM     21  F   UNL     1       6.790   5.187  14.388  0.00  0.00    +0.000 F 
ENDBRANCH  15  18
ENDBRANCH   4  12
TORSDOF 2
ENDMDL
MODEL 6
REMARK VINA RESULT:      -7.5      4.330      7.536
REMARK  Name = 
REMARK  2 active torsions:
REMARK  status: ('A' for Active; 'I' for Inactive)
REMARK    1  A    between atoms: C_4  and  C_5
REMARK    2  A    between atoms: C_8  and  C_9
REMARK                            x       y       z     vdW  Elec       q    Type
REMARK                         _______ _______ _______ _____ _____    ______ ____
ROOT
ATOM      1  O   UNL     1       2.039  10.459  17.751  0.00  0.00    +0.000 OA
ATOM      2  C   UNL     1       1.700   9.765  18.689  0.00  0.00    +0.000 C 
ATOM      3  C   UNL     1       1.941   8.295  18.857  0.00  0.00    +0.000 C 
ATOM      4  C   UNL     1       2.646   7.572  17.979  0.00  0.00    +0.000 C 
ATOM      5  C   UNL     1       1.308   7.849  20.149  0.00  0.00    +0.000 C 
ATOM      6  C   UNL     1       0.780   9.119  20.738  0.00  0.00    +0.000 A 
ATOM      7  C   UNL     1       0.145   9.282  21.959  0.00  0.00    +0.000 A 
ATOM      8  C   UNL     1      -0.277  10.564  22.318  0.00  0.00    +0.000 A 
ATOM      9  C   UNL     1      -0.070  11.658  21.459  0.00  0.00    +0.000 A 
ATOM     10  C   UNL     1       0.568  11.487  20.227  0.00  0.00    +0.000 A 
ATOM     11  C   UNL     1       0.986  10.210  19.895  0.00  0.00    +0.000 A 
ENDROOT
BRANCH   4  12
ATOM     12  C   UNL     1       2.891   6.139  18.159  0.00  0.00    +0.000 A 
ATOM     13  C   UNL     1       4.104   5.694  18.689  0.00  0.00    +0.000 A 
ATOM     14  C   UNL     1       4.324   4.329  18.895  0.00  0.00    +0.000 A 
ATOM     15  C   UNL     1       3.332   3.388  18.580  0.00  0.00    +0.000 A 
ATOM     16  C   UNL     1       2.126   3.840  18.020  0.00  0.00    +0.000 A 
ATOM     17  C   UNL     1       1.913   5.205  17.803  0.00  0.00    +0.000 A 
BRANCH  15  18
ATOM     18  C   UNL     1       3.548   1.919  18.855  0.00  0.00    +0.000 C 
ATOM     19  F   UNL     1       2.435   1.288  19.328  0.00  0.00    +0.000 F 
ATOM     20  F   UNL     1       3.920   1.228  17.743  0.00  0.00    +0.000 F 
ATOM     21  F   UNL     1       4.522   1.694  19.780  0.00  0.00    +0.000 F 
ENDBRANCH  15  18
ENDBRANCH   4  12
TORSDOF 2
ENDMDL
MODEL 7
REMARK VINA RESULT:      -7.4      1.293      1.512
REMARK  Name = 
REMARK  2 active torsions:
REMARK  status: ('A' for Active; 'I' for Inactive)
REMARK    1  A    between atoms: C_4  and  C_5
REMARK    2  A    between atoms: C_8  and  C_9
REMARK                            x       y       z     vdW  Elec       q    Type
REMARK                         _______ _______ _______ _____ _____    ______ ____
ROOT
ATOM      1  O   UNL     1       8.265   5.771  14.649  0.00  0.00    +0.000 OA
ATOM      2  C   UNL     1       7.217   5.160  14.562  0.00  0.00    +0.000 C 
ATOM      3  C   UNL     1       6.139   5.067  15.599  0.00  0.00    +0.000 C 
ATOM      4  C   UNL     1       6.190   5.734  16.759  0.00  0.00    +0.000 C 
ATOM      5  C   UNL     1       5.048   4.169  15.078  0.00  0.00    +0.000 C 
ATOM      6  C   UNL     1       5.504   3.829  13.695  0.00  0.00    +0.000 A 
ATOM      7  C   UNL     1       4.836   3.065  12.751  0.00  0.00    +0.000 A 
ATOM      8  C   UNL     1       5.447   2.865  11.510  0.00  0.00    +0.000 A 
ATOM      9  C   UNL     1       6.710   3.418  11.232  0.00  0.00    +0.000 A 
ATOM     10  C   UNL     1       7.380   4.186  12.189  0.00  0.00    +0.000 A 
ATOM     11  C   UNL     1       6.752   4.379  13.407  0.00  0.00    +0.000 A 
ENDROOT
BRANCH   4  12
ATOM     12  C   UNL     1       5.124   5.651  17.760  0.00  0.00    +0.000 A 
ATOM     13  C   UNL     1       4.074   6.572  17.747  0.00  0.00    +0.000 A 
ATOM     14  C   UNL     1       3.037   6.471  18.679  0.00  0.00    +0.000 A 
ATOM     15  C   UNL     1       3.030   5.444  19.635  0.00  0.00    +0.000 A 
ATOM     16  C   UNL     1       4.104   4.538  19.661  0.00  0.00    +0.000 A 
ATOM     17  C   UNL     1       5.147   4.649  18.735  0.00  0.00    +0.000 A 
BRANCH  15  18
ATOM     18  C   UNL     1       1.882   5.301  20.605  0.00  0.00    +0.000 C 
ATOM     19  F   UNL     1       0.841   4.573  20.108  0.00  0.00    +0.000 F 
ATOM     20  F   UNL     1       2.248   4.681  21.761  0.00  0.00    +0.000 F 
ATOM     21  F   UNL     1       1.352   6.499  20.974  0.00  0.00    +0.000 F 
ENDBRANCH  15  18
ENDBRANCH   4  12
TORSDOF 2
ENDMDL
MODEL 8
REMARK VINA RESULT:      -7.4      4.963      7.886
REMARK  Name = 
REMARK  2 active torsions:
REMARK  status: ('A' for Active; 'I' for Inactive)
REMARK    1  A    between atoms: C_4  and  C_5
REMARK    2  A    between atoms: C_8  and  C_9
REMARK                            x       y       z     vdW  Elec       q    Type
REMARK                         _______ _______ _______ _____ _____    ______ ____
ROOT
ATOM      1  O   UNL     1       1.479   7.671  21.583  0.00  0.00    +0.000 OA
ATOM      2  C   UNL     1       1.484   8.114  20.451  0.00  0.00    +0.000 C 
ATOM      3  C   UNL     1       2.250   7.582  19.278  0.00  0.00    +0.000 C 
ATOM      4  C   UNL     1       2.991   6.469  19.340  0.00  0.00    +0.000 C 
ATOM      5  C   UNL     1       1.988   8.472  18.090  0.00  0.00    +0.000 C 
ATOM      6  C   UNL     1       0.996   9.464  18.607  0.00  0.00    +0.000 A 
ATOM      7  C   UNL     1       0.378  10.485  17.902  0.00  0.00    +0.000 A 
ATOM      8  C   UNL     1      -0.522  11.308  18.583  0.00  0.00    +0.000 A 
ATOM      9  C   UNL     1      -0.786  11.112  19.950  0.00  0.00    +0.000 A 
ATOM     10  C   UNL     1      -0.158  10.082  20.658  0.00  0.00    +0.000 A 
ATOM     11  C   UNL     1       0.723   9.273  19.961  0.00  0.00    +0.000 A 
ENDROOT
BRANCH   4  12
ATOM     12  C   UNL     1       3.723   5.947  18.184  0.00  0.00    +0.000 A 
ATOM     13  C   UNL     1       3.599   4.603  17.823  0.00  0.00    +0.000 A 
ATOM     14  C   UNL     1       4.268   4.112  16.698  0.00  0.00    +0.000 A 
ATOM     15  C   UNL     1       5.067   4.959  15.913  0.00  0.00    +0.000 A 
ATOM     16  C   UNL     1       5.210   6.302  16.299  0.00  0.00    +0.000 A 
ATOM     17  C   UNL     1       4.549   6.788  17.432  0.00  0.00    +0.000 A 
BRANCH  15  18
ATOM     18  C   UNL     1       5.743   4.442  14.666  0.00  0.00    +0.000 C 
ATOM     19  F   UNL     1       6.667   5.305  14.154  0.00  0.00    +0.000 F 
ATOM     20  F   UNL     1       6.407   3.273  14.878  0.00  0.00    +0.000 F 
ATOM     21  F   UNL     1       4.866   4.197  13.653  0.00  0.00    +0.000 F 
ENDBRANCH  15  18
ENDBRANCH   4  12
TORSDOF 2
ENDMDL
MODEL 9
REMARK VINA RESULT:      -7.4      5.182      8.538
REMARK  Name = 
REMARK  2 active torsions:
REMARK  status: ('A' for Active; 'I' for Inactive)
REMARK    1  A    between atoms: C_4  and  C_5
REMARK    2  A    between atoms: C_8  and  C_9
REMARK                            x       y       z     vdW  Elec       q    Type
REMARK                         _______ _______ _______ _____ _____    ______ ____
ROOT
ATOM      1  O   UNL     1       0.137  11.237  18.407  0.00  0.00    +0.000 OA
ATOM      2  C   UNL     1       0.384  10.415  19.268  0.00  0.00    +0.000 C 
ATOM      3  C   UNL     1       1.196   9.165  19.114  0.00  0.00    +0.000 C 
ATOM      4  C   UNL     1       1.821   8.842  17.975  0.00  0.00    +0.000 C 
ATOM      5  C   UNL     1       1.199   8.429  20.429  0.00  0.00    +0.000 C 
ATOM      6  C   UNL     1       0.438   9.338  21.341  0.00  0.00    +0.000 A 
ATOM      7  C   UNL     1       0.189   9.161  22.693  0.00  0.00    +0.000 A 
ATOM      8  C   UNL     1      -0.553  10.138  23.362  0.00  0.00    +0.000 A 
ATOM      9  C   UNL     1      -1.041  11.266  22.679  0.00  0.00    +0.000 A 
ATOM     10  C   UNL     1      -0.790  11.438  21.314  0.00  0.00    +0.000 A 
ATOM     11  C   UNL     1      -0.045  10.463  20.674  0.00  0.00    +0.000 A 
ENDROOT
BRANCH   4  12
ATOM     12  C   UNL     1       2.626   7.626  17.839  0.00  0.00    +0.000 A 
ATOM     13  C   UNL     1       2.072   6.379  18.134  0.00  0.00    +0.000 A 
ATOM     14  C   UNL     1       2.829   5.215  17.970  0.00  0.00    +0.000 A 
ATOM     15  C   UNL     1       4.150   5.280  17.502  0.00  0.00    +0.000 A 
ATOM     16  C   UNL     1       4.711   6.540  17.234  0.00  0.00    +0.000 A 
ATOM     17  C   UNL     1       3.955   7.704  17.411  0.00  0.00    +0.000 A 
BRANCH  15  18
ATOM     18  C   UNL     1       4.949   4.020  17.270  0.00  0.00    +0.000 C 
ATOM     19  F   UNL     1       5.257   3.808  15.958  0.00  0.00    +0.000 F 
ATOM     20  F   UNL     1       6.138   4.025  17.933  0.00  0.00    +0.000 F 
ATOM     21  F   UNL     1       4.295   2.898  17.682  0.00  0.00    +0.000 F 
ENDBRANCH  15  18
ENDBRANCH   4  12
TORSDOF 2
ENDMDL
