MODEL 1
REMARK VINA RESULT:      -8.5      0.000      0.000
REMARK  Name = 
REMARK  4 active torsions:
REMARK  status: ('A' for Active; 'I' for Inactive)
REMARK    1  A    between atoms: C_1  and  O_2
REMARK    2  A    between atoms: O_2  and  C_3
REMARK    3  A    between atoms: C_10  and  C_11
REMARK    4  A    between atoms: C_16  and  C_17
REMARK                            x       y       z     vdW  Elec       q    Type
REMARK                         _______ _______ _______ _____ _____    ______ ____
ROOT
ATOM      1  C   UNL     1       2.490   5.433  18.976  0.00  0.00    +0.000 A 
ATOM      2  N   UNL     1       1.953   5.767  20.108  0.00  0.00    +0.000 NA
ATOM      3  C   UNL     1       1.604   7.119  20.299  0.00  0.00    +0.000 A 
ATOM      4  C   UNL     1       1.045   7.518  21.511  0.00  0.00    +0.000 A 
ATOM      5  C   UNL     1       0.723   8.861  21.742  0.00  0.00    +0.000 A 
ATOM      6  C   UNL     1       0.951   9.837  20.756  0.00  0.00    +0.000 A 
ATOM      7  C   UNL     1       1.497   9.441  19.534  0.00  0.00    +0.000 A 
ATOM      8  C   UNL     1       1.815   8.098  19.326  0.00  0.00    +0.000 A 
ATOM      9  C   UNL     1       2.410   7.674  18.058  0.00  0.00    +0.000 A 
ATOM     10  O   UNL     1       2.639   8.458  17.146  0.00  0.00    +0.000 OA
ATOM     11  N   UNL     1       2.702   6.343  17.973  0.00  0.00    +0.000 N 
ATOM     12  H   UNL     1       3.148   6.089  17.106  0.00  0.00    +0.000 HD
ENDROOT
BRANCH   1  20
ATOM     13  C   UNL     1       6.600   4.973  15.678  0.00  0.00    +0.000 A 
ATOM     14  C   UNL     1       7.370   5.291  16.796  0.00  0.00    +0.000 A 
ATOM     15  C   UNL     1       6.908   4.974  18.074  0.00  0.00    +0.000 A 
ATOM     16  C   UNL     1       5.663   4.375  18.240  0.00  0.00    +0.000 A 
ATOM     17  C   UNL     1       4.837   4.148  17.135  0.00  0.00    +0.000 A 
ATOM     18  C   UNL     1       5.331   4.413  15.851  0.00  0.00    +0.000 A 
ATOM     19  C   UNL     1       3.411   3.708  17.319  0.00  0.00    +0.000 C 
ATOM     20  C   UNL     1       2.923   3.982  18.740  0.00  0.00    +0.000 C 
ATOM     21  C   UNL     1       4.004   3.550  19.725  0.00  0.00    +0.000 C 
ATOM     22  O   UNL     1       5.257   4.216  19.536  0.00  0.00    +0.000 OA
BRANCH  13  24
ATOM     23  C   UNL     1       6.562   4.229  13.442  0.00  0.00    +0.000 C 
ATOM     24  O   UNL     1       6.961   5.221  14.382  0.00  0.00    +0.000 OA
ENDBRANCH  13  24
ENDBRANCH   1  20
BRANCH   6  25
ATOM     25  C   UNL     1       0.648  11.234  21.010  0.00  0.00    +0.000 A 
ATOM     26  C   UNL     1      -0.333  11.835  21.830  0.00  0.00    +0.000 A 
ATOM     27  N   UNL     1      -0.280  13.169  21.808  0.00  0.00    +0.000 NA
ATOM     28  N   UNL     1       0.743  13.430  20.978  0.00  0.00    +0.000 N 
ATOM     29  C   UNL     1       1.331  12.307  20.472  0.00  0.00    +0.000 A 
ATOM     30  H   UNL     1       0.986  14.399  20.803  0.00  0.00    +0.000 HD
ENDBRANCH   6  25
TORSDOF 3
ENDMDL
MODEL 2
REMARK VINA RESULT:      -8.5      0.794      1.062
REMARK  Name = 
REMARK  4 active torsions:
REMARK  status: ('A' for Active; 'I' for Inactive)
REMARK    1  A    between atoms: C_1  and  O_2
REMARK    2  A    between atoms: O_2  and  C_3
REMARK    3  A    between atoms: C_10  and  C_11
REMARK    4  A    between atoms: C_16  and  C_17
REMARK                            x       y       z     vdW  Elec       q    Type
REMARK                         _______ _______ _______ _____ _____    ______ ____
ROOT
ATOM      1  C   UNL     1       2.273   6.084  19.116  0.00  0.00    +0.000 A 
ATOM      2  N   UNL     1       1.847   6.471  20.277  0.00  0.00    +0.000 NA
ATOM      3  C   UNL     1       1.514   7.832  20.436  0.00  0.00    +0.000 A 
ATOM      4  C   UNL     1       1.074   8.289  21.677  0.00  0.00    +0.000 A 
ATOM      5  C   UNL     1       0.771   9.642  21.874  0.00  0.00    +0.000 A 
ATOM      6  C   UNL     1       0.897  10.568  20.824  0.00  0.00    +0.000 A 
ATOM      7  C   UNL     1       1.323  10.115  19.575  0.00  0.00    +0.000 A 
ATOM      8  C   UNL     1       1.625   8.762  19.402  0.00  0.00    +0.000 A 
ATOM      9  C   UNL     1       2.094   8.278  18.104  0.00  0.00    +0.000 A 
ATOM     10  O   UNL     1       2.230   9.016  17.137  0.00  0.00    +0.000 OA
ATOM     11  N   UNL     1       2.382   6.944  18.054  0.00  0.00    +0.000 N 
ATOM     12  H   UNL     1       2.742   6.648  17.161  0.00  0.00    +0.000 HD
ENDROOT
BRANCH   1  20
ATOM     13  C   UNL     1       6.819   5.539  16.467  0.00  0.00    +0.000 A 
ATOM     14  C   UNL     1       7.420   5.803  17.697  0.00  0.00    +0.000 A 
ATOM     15  C   UNL     1       6.759   5.476  18.881  0.00  0.00    +0.000 A 
ATOM     16  C   UNL     1       5.483   4.922  18.840  0.00  0.00    +0.000 A 
ATOM     17  C   UNL     1       4.828   4.750  17.616  0.00  0.00    +0.000 A 
ATOM     18  C   UNL     1       5.520   5.024  16.430  0.00  0.00    +0.000 A 
ATOM     19  C   UNL     1       3.376   4.361  17.571  0.00  0.00    +0.000 C 
ATOM     20  C   UNL     1       2.687   4.622  18.908  0.00  0.00    +0.000 C 
ATOM     21  C   UNL     1       3.589   4.129  20.034  0.00  0.00    +0.000 C 
ATOM     22  O   UNL     1       4.879   4.750  20.055  0.00  0.00    +0.000 OA
BRANCH  13  24
ATOM     23  C   UNL     1       6.980   4.931  14.195  0.00  0.00    +0.000 C 
ATOM     24  O   UNL     1       7.382   5.801  15.247  0.00  0.00    +0.000 OA
ENDBRANCH  13  24
ENDBRANCH   1  20
BRANCH   6  25
ATOM     25  C   UNL     1       0.615  11.977  21.039  0.00  0.00    +0.000 A 
ATOM     26  C   UNL     1       1.219  13.134  20.498  0.00  0.00    +0.000 A 
ATOM     27  N   UNL     1       0.657  14.264  20.937  0.00  0.00    +0.000 NA
ATOM     28  N   UNL     1      -0.317  13.835  21.754  0.00  0.00    +0.000 N 
ATOM     29  C   UNL     1      -0.383  12.475  21.853  0.00  0.00    +0.000 A 
ATOM     30  H   UNL     1      -0.900  14.526  22.213  0.00  0.00    +0.000 HD
ENDBRANCH   6  25
TORSDOF 3
ENDMDL
MODEL 3
REMARK VINA RESULT:      -8.3      1.333      1.972
REMARK  Name = 
REMARK  4 active torsions:
REMARK  status: ('A' for Active; 'I' for Inactive)
REMARK    1  A    between atoms: C_1  and  O_2
REMARK    2  A    between atoms: O_2  and  C_3
REMARK    3  A    between atoms: C_10  and  C_11
REMARK    4  A    between atoms: C_16  and  C_17
REMARK                            x       y       z     vdW  Elec       q    Type
REMARK                         _______ _______ _______ _____ _____    ______ ____
ROOT
ATOM      1  C   UNL     1       2.573   5.269  18.984  0.00  0.00    +0.000 A 
ATOM      2  N   UNL     1       2.754   6.188  18.087  0.00  0.00    +0.000 NA
ATOM      3  C   UNL     1       2.331   7.498  18.391  0.00  0.00    +0.000 A 
ATOM      4  C   UNL     1       2.489   8.506  17.444  0.00  0.00    +0.000 A 
ATOM      5  C   UNL     1       2.044   9.809  17.704  0.00  0.00    +0.000 A 
ATOM      6  C   UNL     1       1.433  10.130  18.928  0.00  0.00    +0.000 A 
ATOM      7  C   UNL     1       1.284   9.127  19.888  0.00  0.00    +0.000 A 
ATOM      8  C   UNL     1       1.731   7.834  19.606  0.00  0.00    +0.000 A 
ATOM      9  C   UNL     1       1.560   6.769  20.594  0.00  0.00    +0.000 A 
ATOM     10  O   UNL     1       1.040   6.963  21.686  0.00  0.00    +0.000 OA
ATOM     11  N   UNL     1       2.010   5.541  20.204  0.00  0.00    +0.000 N 
ATOM     12  H   UNL     1       1.842   4.820  20.887  0.00  0.00    +0.000 HD
ENDROOT
BRANCH   1  20
ATOM     13  C   UNL     1       6.578   4.883  15.550  0.00  0.00    +0.000 A 
ATOM     14  C   UNL     1       7.384   5.150  16.656  0.00  0.00    +0.000 A 
ATOM     15  C   UNL     1       6.956   4.791  17.934  0.00  0.00    +0.000 A 
ATOM     16  C   UNL     1       5.709   4.201  18.115  0.00  0.00    +0.000 A 
ATOM     17  C   UNL     1       4.848   4.025  17.027  0.00  0.00    +0.000 A 
ATOM     18  C   UNL     1       5.308   4.332  15.740  0.00  0.00    +0.000 A 
ATOM     19  C   UNL     1       3.422   3.596  17.238  0.00  0.00    +0.000 C 
ATOM     20  C   UNL     1       2.980   3.822  18.681  0.00  0.00    +0.000 C 
ATOM     21  C   UNL     1       4.083   3.342  19.618  0.00  0.00    +0.000 C 
ATOM     22  O   UNL     1       5.339   3.999  19.416  0.00  0.00    +0.000 OA
BRANCH  13  24
ATOM     23  C   UNL     1       6.579   4.164  13.306  0.00  0.00    +0.000 C 
ATOM     24  O   UNL     1       6.904   5.175  14.254  0.00  0.00    +0.000 OA
ENDBRANCH  13  24
ENDBRANCH   1  20
BRANCH   6  25
ATOM     25  C   UNL     1       0.941  11.472  19.183  0.00  0.00    +0.000 A 
ATOM     26  C   UNL     1      -0.271  11.920  19.755  0.00  0.00    +0.000 A 
ATOM     27  N   UNL     1      -0.344  13.252  19.834  0.00  0.00    +0.000 NA
ATOM     28  N   UNL     1       0.826  13.663  19.321  0.00  0.00    +0.000 N 
ATOM     29  C   UNL     1       1.631  12.637  18.914  0.00  0.00    +0.000 A 
ATOM     30  H   UNL     1       1.010  14.659  19.279  0.00  0.00    +0.000 HD
ENDBRANCH   6  25
TORSDOF 3
ENDMDL
MODEL 4
REMARK VINA RESULT:      -8.2      3.798      8.653
REMARK  Name = 
REMARK  4 active torsions:
REMARK  status: ('A' for Active; 'I' for Inactive)
REMARK    1  A    between atoms: C_1  and  O_2
REMARK    2  A    between atoms: O_2  and  C_3
REMARK    3  A    between atoms: C_10  and  C_11
REMARK    4  A    between atoms: C_16  and  C_17
REMARK                            x       y       z     vdW  Elec       q    Type
REMARK                         _______ _______ _______ _____ _____    ______ ____
ROOT
ATOM      1  C   UNL     1       0.746  10.696  19.516  0.00  0.00    +0.000 A 
ATOM      2  N   UNL     1       1.383  10.117  18.547  0.00  0.00    +0.000 NA
ATOM      3  C   UNL     1       1.871   8.812  18.766  0.00  0.00    +0.000 A 
ATOM      4  C   UNL     1       2.581   8.168  17.756  0.00  0.00    +0.000 A 
ATOM      5  C   UNL     1       3.109   6.886  17.958  0.00  0.00    +0.000 A 
ATOM      6  C   UNL     1       2.932   6.220  19.182  0.00  0.00    +0.000 A 
ATOM      7  C   UNL     1       2.210   6.854  20.194  0.00  0.00    +0.000 A 
ATOM      8  C   UNL     1       1.695   8.133  19.973  0.00  0.00    +0.000 A 
ATOM      9  C   UNL     1       0.957   8.819  21.033  0.00  0.00    +0.000 A 
ATOM     10  O   UNL     1       0.755   8.310  22.128  0.00  0.00    +0.000 OA
ATOM     11  N   UNL     1       0.521  10.073  20.716  0.00  0.00    +0.000 N 
ATOM     12  H   UNL     1       0.052  10.536  21.478  0.00  0.00    +0.000 HD
ENDROOT
BRANCH   1  20
ATOM     13  C   UNL     1      -3.539  11.030  16.433  0.00  0.00    +0.000 A 
ATOM     14  C   UNL     1      -4.237  10.650  17.579  0.00  0.00    +0.000 A 
ATOM     15  C   UNL     1      -3.729  10.960  18.840  0.00  0.00    +0.000 A 
ATOM     16  C   UNL     1      -2.506  11.614  18.961  0.00  0.00    +0.000 A 
ATOM     17  C   UNL     1      -1.748  11.907  17.823  0.00  0.00    +0.000 A 
ATOM     18  C   UNL     1      -2.292  11.648  16.559  0.00  0.00    +0.000 A 
ATOM     19  C   UNL     1      -0.337  12.411  17.949  0.00  0.00    +0.000 C 
ATOM     20  C   UNL     1       0.233  12.130  19.337  0.00  0.00    +0.000 C 
ATOM     21  C   UNL     1      -0.817  12.485  20.384  0.00  0.00    +0.000 C 
ATOM     22  O   UNL     1      -2.045  11.764  20.240  0.00  0.00    +0.000 OA
BRANCH  13  24
ATOM     23  C   UNL     1      -3.066  10.005  14.364  0.00  0.00    +0.000 C 
ATOM     24  O   UNL     1      -3.952  10.795  15.150  0.00  0.00    +0.000 OA
ENDBRANCH  13  24
ENDBRANCH   1  20
BRANCH   6  25
ATOM     25  C   UNL     1       3.509   4.906  19.403  0.00  0.00    +0.000 A 
ATOM     26  C   UNL     1       3.027   3.793  20.129  0.00  0.00    +0.000 A 
ATOM     27  N   UNL     1       3.855   2.746  20.081  0.00  0.00    +0.000 NA
ATOM     28  N   UNL     1       4.869   3.181  19.317  0.00  0.00    +0.000 N 
ATOM     29  C   UNL     1       4.713   4.467  18.888  0.00  0.00    +0.000 A 
ATOM     30  H   UNL     1       5.637   2.546  19.127  0.00  0.00    +0.000 HD
ENDBRANCH   6  25
TORSDOF 3
ENDMDL
MODEL 5
REMARK VINA RESULT:      -8.1      3.629      9.533
REMARK  Name = 
REMARK  4 active torsions:
REMARK  status: ('A' for Active; 'I' for Inactive)
REMARK    1  A    between atoms: C_1  and  O_2
REMARK    2  A    between atoms: O_2  and  C_3
REMARK    3  A    between atoms: C_10  and  C_11
REMARK    4  A    between atoms: C_16  and  C_17
REMARK                            x       y       z     vdW  Elec       q    Type
REMARK                         _______ _______ _______ _____ _____    ______ ____
ROOT
ATOM      1  C   UNL     1       0.840  11.054  19.699  0.00  0.00    +0.000 A 
ATOM      2  N   UNL     1       1.281  10.324  18.723  0.00  0.00    +0.000 NA
ATOM      3  C   UNL     1       1.634   8.988  19.006  0.00  0.00    +0.000 A 
ATOM      4  C   UNL     1       2.133   8.181  17.986  0.00  0.00    +0.000 A 
ATOM      5  C   UNL     1       2.525   6.862  18.246  0.00  0.00    +0.000 A 
ATOM      6  C   UNL     1       2.421   6.321  19.539  0.00  0.00    +0.000 A 
ATOM      7  C   UNL     1       1.909   7.120  20.562  0.00  0.00    +0.000 A 
ATOM      8  C   UNL     1       1.527   8.434  20.282  0.00  0.00    +0.000 A 
ATOM      9  C   UNL     1       1.011   9.289  21.350  0.00  0.00    +0.000 A 
ATOM     10  O   UNL     1       0.885   8.897  22.504  0.00  0.00    +0.000 OA
ATOM     11  N   UNL     1       0.691  10.561  20.969  0.00  0.00    +0.000 N 
ATOM     12  H   UNL     1       0.378  11.138  21.733  0.00  0.00    +0.000 HD
ENDROOT
BRANCH   1  20
ATOM     13  C   UNL     1      -3.545  12.617  22.210  0.00  0.00    +0.000 A 
ATOM     14  C   UNL     1      -2.712  12.743  23.320  0.00  0.00    +0.000 A 
ATOM     15  C   UNL     1      -1.355  13.014  23.147  0.00  0.00    +0.000 A 
ATOM     16  C   UNL     1      -0.820  13.121  21.866  0.00  0.00    +0.000 A 
ATOM     17  C   UNL     1      -1.625  12.893  20.745  0.00  0.00    +0.000 A 
ATOM     18  C   UNL     1      -2.997  12.681  20.926  0.00  0.00    +0.000 A 
ATOM     19  C   UNL     1      -1.018  12.789  19.373  0.00  0.00    +0.000 C 
ATOM     20  C   UNL     1       0.483  12.524  19.447  0.00  0.00    +0.000 C 
ATOM     21  C   UNL     1       1.096  13.439  20.501  0.00  0.00    +0.000 C 
ATOM     22  O   UNL     1       0.538  13.271  21.808  0.00  0.00    +0.000 OA
BRANCH  13  24
ATOM     23  C   UNL     1      -5.594  12.585  21.045  0.00  0.00    +0.000 C 
ATOM     24  O   UNL     1      -4.890  12.370  22.263  0.00  0.00    +0.000 OA
ENDBRANCH  13  24
ENDBRANCH   1  20
BRANCH   6  25
ATOM     25  C   UNL     1       2.861   4.965  19.815  0.00  0.00    +0.000 A 
ATOM     26  C   UNL     1       2.376   4.002  20.729  0.00  0.00    +0.000 A 
ATOM     27  N   UNL     1       3.048   2.849  20.671  0.00  0.00    +0.000 NA
ATOM     28  N   UNL     1       3.963   3.065  19.712  0.00  0.00    +0.000 N 
ATOM     29  C   UNL     1       3.895   4.316  19.169  0.00  0.00    +0.000 A 
ATOM     30  H   UNL     1       4.602   2.314  19.478  0.00  0.00    +0.000 HD
ENDBRANCH   6  25
TORSDOF 3
ENDMDL
MODEL 6
REMARK VINA RESULT:      -8.0      1.373      1.518
REMARK  Name = 
REMARK  4 active torsions:
REMARK  status: ('A' for Active; 'I' for Inactive)
REMARK    1  A    between atoms: C_1  and  O_2
REMARK    2  A    between atoms: O_2  and  C_3
REMARK    3  A    between atoms: C_10  and  C_11
REMARK    4  A    between atoms: C_16  and  C_17
REMARK                            x       y       z     vdW  Elec       q    Type
REMARK                         _______ _______ _______ _____ _____    ______ ____
ROOT
ATOM      1  C   UNL     1       3.366   5.961  19.194  0.00  0.00    +0.000 A 
ATOM      2  N   UNL     1       2.611   6.351  20.173  0.00  0.00    +0.000 NA
ATOM      3  C   UNL     1       1.900   7.558  20.016  0.00  0.00    +0.000 A 
ATOM      4  C   UNL     1       1.096   8.020  21.056  0.00  0.00    +0.000 A 
ATOM      5  C   UNL     1       0.407   9.234  20.942  0.00  0.00    +0.000 A 
ATOM      6  C   UNL     1       0.506  10.012  19.776  0.00  0.00    +0.000 A 
ATOM      7  C   UNL     1       1.298   9.548  18.725  0.00  0.00    +0.000 A 
ATOM      8  C   UNL     1       1.980   8.337  18.860  0.00  0.00    +0.000 A 
ATOM      9  C   UNL     1       2.832   7.851  17.775  0.00  0.00    +0.000 A 
ATOM     10  O   UNL     1       2.973   8.464  16.725  0.00  0.00    +0.000 OA
ATOM     11  N   UNL     1       3.469   6.669  18.025  0.00  0.00    +0.000 N 
ATOM     12  H   UNL     1       4.080   6.381  17.278  0.00  0.00    +0.000 HD
ENDROOT
BRANCH   1  20
ATOM     13  C   UNL     1       5.599   4.379  14.668  0.00  0.00    +0.000 A 
ATOM     14  C   UNL     1       6.569   5.338  14.959  0.00  0.00    +0.000 A 
ATOM     15  C   UNL     1       6.831   5.686  16.284  0.00  0.00    +0.000 A 
ATOM     16  C   UNL     1       6.100   5.106  17.317  0.00  0.00    +0.000 A 
ATOM     17  C   UNL     1       5.055   4.222  17.032  0.00  0.00    +0.000 A 
ATOM     18  C   UNL     1       4.838   3.832  15.704  0.00  0.00    +0.000 A 
ATOM     19  C   UNL     1       4.121   3.761  18.116  0.00  0.00    +0.000 C 
ATOM     20  C   UNL     1       4.190   4.676  19.336  0.00  0.00    +0.000 C 
ATOM     21  C   UNL     1       5.652   4.977  19.646  0.00  0.00    +0.000 C 
ATOM     22  O   UNL     1       6.355   5.602  18.566  0.00  0.00    +0.000 OA
BRANCH  13  24
ATOM     23  C   UNL     1       6.379   3.588  12.589  0.00  0.00    +0.000 C 
ATOM     24  O   UNL     1       5.274   3.951  13.409  0.00  0.00    +0.000 OA
ENDBRANCH  13  24
ENDBRANCH   1  20
BRANCH   6  25
ATOM     25  C   UNL     1      -0.181  11.287  19.672  0.00  0.00    +0.000 A 
ATOM     26  C   UNL     1      -0.223  12.390  20.555  0.00  0.00    +0.000 A 
ATOM     27  N   UNL     1      -0.964  13.398  20.088  0.00  0.00    +0.000 NA
ATOM     28  N   UNL     1      -1.395  12.948  18.899  0.00  0.00    +0.000 N 
ATOM     29  C   UNL     1      -0.956  11.689  18.603  0.00  0.00    +0.000 A 
ATOM     30  H   UNL     1      -1.984  13.554  18.339  0.00  0.00    +0.000 HD
ENDBRANCH   6  25
TORSDOF 3
ENDMDL
MODEL 7
REMARK VINA RESULT:      -7.9      3.451      9.343
REMARK  Name = 
REMARK  4 active torsions:
REMARK  status: ('A' for Active; 'I' for Inactive)
REMARK    1  A    between atoms: C_1  and  O_2
REMARK    2  A    between atoms: O_2  and  C_3
REMARK    3  A    between atoms: C_10  and  C_11
REMARK    4  A    between atoms: C_16  and  C_17
REMARK                            x       y       z     vdW  Elec       q    Type
REMARK                         _______ _______ _______ _____ _____    ______ ____
ROOT
ATOM      1  C   UNL     1       0.988  10.678  18.935  0.00  0.00    +0.000 A 
ATOM      2  N   UNL     1       1.695  10.022  18.069  0.00  0.00    +0.000 NA
ATOM      3  C   UNL     1       2.118   8.722  18.414  0.00  0.00    +0.000 A 
ATOM      4  C   UNL     1       2.899   7.995  17.518  0.00  0.00    +0.000 A 
ATOM      5  C   UNL     1       3.365   6.716  17.849  0.00  0.00    +0.000 A 
ATOM      6  C   UNL     1       3.053   6.135  19.090  0.00  0.00    +0.000 A 
ATOM      7  C   UNL     1       2.260   6.852  19.987  0.00  0.00    +0.000 A 
ATOM      8  C   UNL     1       1.809   8.128  19.639  0.00  0.00    +0.000 A 
ATOM      9  C   UNL     1       0.997   8.899  20.579  0.00  0.00    +0.000 A 
ATOM     10  O   UNL     1       0.677   8.467  21.680  0.00  0.00    +0.000 OA
ATOM     11  N   UNL     1       0.632  10.141  20.145  0.00  0.00    +0.000 N 
ATOM     12  H   UNL     1       0.110  10.664  20.829  0.00  0.00    +0.000 HD
ENDROOT
BRANCH   1  20
ATOM     13  C   UNL     1      -2.734  12.493  22.226  0.00  0.00    +0.000 A 
ATOM     14  C   UNL     1      -1.668  12.743  23.090  0.00  0.00    +0.000 A 
ATOM     15  C   UNL     1      -0.397  12.998  22.575  0.00  0.00    +0.000 A 
ATOM     16  C   UNL     1      -0.180  12.966  21.200  0.00  0.00    +0.000 A 
ATOM     17  C   UNL     1      -1.217  12.613  20.331  0.00  0.00    +0.000 A 
ATOM     18  C   UNL     1      -2.503  12.418  20.850  0.00  0.00    +0.000 A 
ATOM     19  C   UNL     1      -0.945  12.361  18.874  0.00  0.00    +0.000 C 
ATOM     20  C   UNL     1       0.540  12.110  18.620  0.00  0.00    +0.000 C 
ATOM     21  C   UNL     1       1.355  13.138  19.397  0.00  0.00    +0.000 C 
ATOM     22  O   UNL     1       1.122  13.112  20.809  0.00  0.00    +0.000 OA
BRANCH  13  24
ATOM     23  C   UNL     1      -4.330  12.642  23.953  0.00  0.00    +0.000 C 
ATOM     24  O   UNL     1      -4.021  12.249  22.621  0.00  0.00    +0.000 OA
ENDBRANCH  13  24
ENDBRANCH   1  20
BRANCH   6  25
ATOM     25  C   UNL     1       3.565   4.824  19.446  0.00  0.00    +0.000 A 
ATOM     26  C   UNL     1       2.964   3.754  20.147  0.00  0.00    +0.000 A 
ATOM     27  N   UNL     1       3.767   2.693  20.260  0.00  0.00    +0.000 NA
ATOM     28  N   UNL     1       4.885   3.075  19.623  0.00  0.00    +0.000 N 
ATOM     29  C   UNL     1       4.817   4.343  19.120  0.00  0.00    +0.000 A 
ATOM     30  H   UNL     1       5.656   2.420  19.569  0.00  0.00    +0.000 HD
ENDBRANCH   6  25
TORSDOF 3
ENDMDL
MODEL 8
REMARK VINA RESULT:      -7.9      2.210      3.095
REMARK  Name = 
REMARK  4 active torsions:
REMARK  status: ('A' for Active; 'I' for Inactive)
REMARK    1  A    between atoms: C_1  and  O_2
REMARK    2  A    between atoms: O_2  and  C_3
REMARK    3  A    between atoms: C_10  and  C_11
REMARK    4  A    between atoms: C_16  and  C_17
REMARK                            x       y       z     vdW  Elec       q    Type
REMARK                         _______ _______ _______ _____ _____    ______ ____
ROOT
ATOM      1  C   UNL     1       3.092   6.300  18.204  0.00  0.00    +0.000 A 
ATOM      2  N   UNL     1       2.789   7.528  17.922  0.00  0.00    +0.000 NA
ATOM      3  C   UNL     1       2.003   8.242  18.849  0.00  0.00    +0.000 A 
ATOM      4  C   UNL     1       1.638   9.557  18.568  0.00  0.00    +0.000 A 
ATOM      5  C   UNL     1       0.828  10.280  19.453  0.00  0.00    +0.000 A 
ATOM      6  C   UNL     1       0.368   9.697  20.646  0.00  0.00    +0.000 A 
ATOM      7  C   UNL     1       0.740   8.385  20.940  0.00  0.00    +0.000 A 
ATOM      8  C   UNL     1       1.546   7.681  20.042  0.00  0.00    +0.000 A 
ATOM      9  C   UNL     1       1.924   6.297  20.327  0.00  0.00    +0.000 A 
ATOM     10  O   UNL     1       1.569   5.715  21.344  0.00  0.00    +0.000 OA
ATOM     11  N   UNL     1       2.693   5.699  19.370  0.00  0.00    +0.000 N 
ATOM     12  H   UNL     1       2.903   4.736  19.574  0.00  0.00    +0.000 HD
ENDROOT
BRANCH   1  20
ATOM     13  C   UNL     1       8.160   7.783  17.891  0.00  0.00    +0.000 A 
ATOM     14  C   UNL     1       8.321   7.023  19.049  0.00  0.00    +0.000 A 
ATOM     15  C   UNL     1       7.477   5.941  19.297  0.00  0.00    +0.000 A 
ATOM     16  C   UNL     1       6.446   5.640  18.411  0.00  0.00    +0.000 A 
ATOM     17  C   UNL     1       6.209   6.458  17.302  0.00  0.00    +0.000 A 
ATOM     18  C   UNL     1       7.097   7.505  17.027  0.00  0.00    +0.000 A 
ATOM     19  C   UNL     1       4.974   6.276  16.464  0.00  0.00    +0.000 C 
ATOM     20  C   UNL     1       3.910   5.471  17.207  0.00  0.00    +0.000 C 
ATOM     21  C   UNL     1       4.575   4.276  17.882  0.00  0.00    +0.000 C 
ATOM     22  O   UNL     1       5.606   4.636  18.808  0.00  0.00    +0.000 OA
BRANCH  13  24
ATOM     23  C   UNL     1       8.738  10.028  18.315  0.00  0.00    +0.000 C 
ATOM     24  O   UNL     1       8.940   8.851  17.540  0.00  0.00    +0.000 OA
ENDBRANCH  13  24
ENDBRANCH   1  20
BRANCH   6  25
ATOM     25  C   UNL     1      -0.501  10.434  21.546  0.00  0.00    +0.000 A 
ATOM     26  C   UNL     1      -0.809  10.229  22.910  0.00  0.00    +0.000 A 
ATOM     27  N   UNL     1      -1.652  11.146  23.394  0.00  0.00    +0.000 NA
ATOM     28  N   UNL     1      -1.881  11.949  22.343  0.00  0.00    +0.000 N 
ATOM     29  C   UNL     1      -1.218  11.566  21.212  0.00  0.00    +0.000 A 
ATOM     30  H   UNL     1      -2.500  12.742  22.469  0.00  0.00    +0.000 HD
ENDBRANCH   6  25
TORSDOF 3
ENDMDL
MODEL 9
REMARK VINA RESULT:      -7.8      5.001     10.751
REMARK  Name = 
REMARK  4 active torsions:
REMARK  status: ('A' for Active; 'I' for Inactive)
REMARK    1  A    between atoms: C_1  and  O_2
REMARK    2  A    between atoms: O_2  and  C_3
REMARK    3  A    between atoms: C_10  and  C_11
REMARK    4  A    between atoms: C_16  and  C_17
REMARK                            x       y       z     vdW  Elec       q    Type
REMARK                         _______ _______ _______ _____ _____    ______ ____
ROOT
ATOM      1  C   UNL     1      -2.420  12.758  21.633  0.00  0.00    +0.000 A 
ATOM      2  N   UNL     1      -2.192  12.520  20.380  0.00  0.00    +0.000 NA
ATOM      3  C   UNL     1      -1.259  11.513  20.060  0.00  0.00    +0.000 A 
ATOM      4  C   UNL     1      -0.971  11.246  18.723  0.00  0.00    +0.000 A 
ATOM      5  C   UNL     1      -0.021  10.276  18.376  0.00  0.00    +0.000 A 
ATOM      6  C   UNL     1       0.659   9.548  19.367  0.00  0.00    +0.000 A 
ATOM      7  C   UNL     1       0.366   9.802  20.708  0.00  0.00    +0.000 A 
ATOM      8  C   UNL     1      -0.581  10.775  21.032  0.00  0.00    +0.000 A 
ATOM      9  C   UNL     1      -0.881  11.067  22.433  0.00  0.00    +0.000 A 
ATOM     10  O   UNL     1      -0.336  10.478  23.358  0.00  0.00    +0.000 OA
ATOM     11  N   UNL     1      -1.804  12.052  22.634  0.00  0.00    +0.000 N 
ATOM     12  H   UNL     1      -1.960  12.259  23.608  0.00  0.00    +0.000 HD
ENDROOT
BRANCH   1  20
ATOM     13  C   UNL     1      -6.972  12.624  18.943  0.00  0.00    +0.000 A 
ATOM     14  C   UNL     1      -7.334  11.631  19.854  0.00  0.00    +0.000 A 
ATOM     15  C   UNL     1      -6.780  11.624  21.134  0.00  0.00    +0.000 A 
ATOM     16  C   UNL     1      -5.837  12.582  21.494  0.00  0.00    +0.000 A 
ATOM     17  C   UNL     1      -5.390  13.518  20.557  0.00  0.00    +0.000 A 
ATOM     18  C   UNL     1      -5.993  13.557  19.293  0.00  0.00    +0.000 A 
ATOM     19  C   UNL     1      -4.220  14.412  20.863  0.00  0.00    +0.000 C 
ATOM     20  C   UNL     1      -3.396  13.873  22.029  0.00  0.00    +0.000 C 
ATOM     21  C   UNL     1      -4.343  13.423  23.137  0.00  0.00    +0.000 C 
ATOM     22  O   UNL     1      -5.273  12.414  22.728  0.00  0.00    +0.000 OA
BRANCH  13  24
ATOM     23  C   UNL     1      -6.865  13.756  16.879  0.00  0.00    +0.000 C 
ATOM     24  O   UNL     1      -7.465  12.737  17.671  0.00  0.00    +0.000 OA
ENDBRANCH  13  24
ENDBRANCH   1  20
BRANCH   6  25
ATOM     25  C   UNL     1       1.669   8.568  19.007  0.00  0.00    +0.000 A 
ATOM     26  C   UNL     1       2.140   7.429  19.697  0.00  0.00    +0.000 A 
ATOM     27  N   UNL     1       3.078   6.763  19.018  0.00  0.00    +0.000 NA
ATOM     28  N   UNL     1       3.205   7.469  17.883  0.00  0.00    +0.000 N 
ATOM     29  C   UNL     1       2.386   8.560  17.828  0.00  0.00    +0.000 A 
ATOM     30  H   UNL     1       3.870   7.148  17.188  0.00  0.00    +0.000 HD
ENDBRANCH   6  25
TORSDOF 3
ENDMDL
