MODEL 1
REMARK VINA RESULT:      -7.1      0.000      0.000
REMARK  Name = 
REMARK  10 active torsions:
REMARK  status: ('A' for Active; 'I' for Inactive)
REMARK    1  A    between atoms: C_1  and  C_2
REMARK    2  A    between atoms: C_2  and  O_3
REMARK    3  A    between atoms: O_3  and  C_4
REMARK    4  A    between atoms: C_9  and  C_10
REMARK    5  A    between atoms: C_10  and  O_12
REMARK    6  A    between atoms: O_12  and  C_13
REMARK    7  A    between atoms: C_13  and  C_14
REMARK    8  A    between atoms: N_16  and  C_17
REMARK    9  A    between atoms: C_20  and  O_21
REMARK   10  A    between atoms: O_21  and  C_22
REMARK                            x       y       z     vdW  Elec       q    Type
REMARK                         _______ _______ _______ _____ _____    ______ ____
ROOT
ATOM      1  C   UNL     1       1.840   4.630  20.786  0.00  0.00    +0.000 C 
ATOM      2  O   UNL     1       0.704   4.450  20.347  0.00  0.00    +0.000 OA
ATOM      3  N   UNL     1       2.591   5.791  20.629  0.00  0.00    +0.000 N 
ATOM      4  H   UNL     1       3.548   5.778  20.959  0.00  0.00    +0.000 HD
ENDROOT
BRANCH   3   5
ATOM      5  C   UNL     1       2.141   7.000  20.038  0.00  0.00    +0.000 A 
ATOM      6  C   UNL     1       2.394   7.335  18.709  0.00  0.00    +0.000 A 
ATOM      7  C   UNL     1       1.935   8.537  18.169  0.00  0.00    +0.000 A 
ATOM      8  C   UNL     1       1.197   9.430  18.944  0.00  0.00    +0.000 A 
ATOM      9  C   UNL     1       0.939   9.114  20.276  0.00  0.00    +0.000 A 
ATOM     10  C   UNL     1       1.396   7.896  20.816  0.00  0.00    +0.000 A 
BRANCH   8  11
ATOM     11  O   UNL     1       0.825  10.571  18.295  0.00  0.00    +0.000 OA
BRANCH  11  12
ATOM     12  C   UNL     1       1.591  11.725  18.589  0.00  0.00    +0.000 C 
ATOM     13  F   UNL     1       1.789  11.786  19.928  0.00  0.00    +0.000 F 
ATOM     14  F   UNL     1       2.813  11.552  18.021  0.00  0.00    +0.000 F 
ENDBRANCH  11  12
ENDBRANCH   8  11
ENDBRANCH   3   5
BRANCH   1  15
ATOM     15  C   UNL     1       2.541   3.501  21.555  0.00  0.00    +0.000 C 
BRANCH  15  16
ATOM     16  O   UNL     1       2.781   2.347  20.736  0.00  0.00    +0.000 OA
BRANCH  16  17
ATOM     17  C   UNL     1       4.011   2.330  20.177  0.00  0.00    +0.000 C 
ATOM     18  O   UNL     1       4.991   1.820  20.714  0.00  0.00    +0.000 OA
BRANCH  17  24
ATOM     19  C   UNL     1       5.104   4.017  18.544  0.00  0.00    +0.000 A 
ATOM     20  C   UNL     1       5.108   4.564  17.245  0.00  0.00    +0.000 A 
ATOM     21  C   UNL     1       4.096   4.264  16.332  0.00  0.00    +0.000 A 
ATOM     22  C   UNL     1       3.083   3.387  16.688  0.00  0.00    +0.000 A 
ATOM     23  C   UNL     1       3.110   2.781  17.944  0.00  0.00    +0.000 A 
ATOM     24  C   UNL     1       4.122   3.068  18.881  0.00  0.00    +0.000 A 
BRANCH  19  25
ATOM     25  O   UNL     1       6.022   4.406  19.488  0.00  0.00    +0.000 OA
BRANCH  25  27
ATOM     26  C   UNL     1       8.073   5.606  19.116  0.00  0.00    +0.000 C 
ATOM     27  C   UNL     1       6.574   5.717  19.311  0.00  0.00    +0.000 C 
ENDBRANCH  25  27
ENDBRANCH  19  25
ENDBRANCH  17  24
ENDBRANCH  16  17
ENDBRANCH  15  16
ENDBRANCH   1  15
TORSDOF 9
ENDMDL
MODEL 2
REMARK VINA RESULT:      -7.1      1.081      1.442
REMARK  Name = 
REMARK  10 active torsions:
REMARK  status: ('A' for Active; 'I' for Inactive)
REMARK    1  A    between atoms: C_1  and  C_2
REMARK    2  A    between atoms: C_2  and  O_3
REMARK    3  A    between atoms: O_3  and  C_4
REMARK    4  A    between atoms: C_9  and  C_10
REMARK    5  A    between atoms: C_10  and  O_12
REMARK    6  A    between atoms: O_12  and  C_13
REMARK    7  A    between atoms: C_13  and  C_14
REMARK    8  A    between atoms: N_16  and  C_17
REMARK    9  A    between atoms: C_20  and  O_21
REMARK   10  A    between atoms: O_21  and  C_22
REMARK                            x       y       z     vdW  Elec       q    Type
REMARK                         _______ _______ _______ _____ _____    ______ ____
ROOT
ATOM      1  C   UNL     1       1.875   4.614  20.912  0.00  0.00    +0.000 C 
ATOM      2  O   UNL     1       0.727   4.426  20.511  0.00  0.00    +0.000 OA
ATOM      3  N   UNL     1       2.611   5.783  20.734  0.00  0.00    +0.000 N 
ATOM      4  H   UNL     1       3.578   5.777  21.031  0.00  0.00    +0.000 HD
ENDROOT
BRANCH   3   5
ATOM      5  C   UNL     1       2.129   6.990  20.164  0.00  0.00    +0.000 A 
ATOM      6  C   UNL     1       1.400   7.932  20.887  0.00  0.00    +0.000 A 
ATOM      7  C   UNL     1       0.941   9.105  20.285  0.00  0.00    +0.000 A 
ATOM      8  C   UNL     1       1.214   9.371  18.944  0.00  0.00    +0.000 A 
ATOM      9  C   UNL     1       1.937   8.437  18.204  0.00  0.00    +0.000 A 
ATOM     10  C   UNL     1       2.406   7.258  18.817  0.00  0.00    +0.000 A 
BRANCH   8  11
ATOM     11  O   UNL     1       0.694  10.544  18.481  0.00  0.00    +0.000 OA
BRANCH  11  12
ATOM     12  C   UNL     1      -0.716  10.656  18.531  0.00  0.00    +0.000 C 
ATOM     13  F   UNL     1      -1.060  11.314  19.665  0.00  0.00    +0.000 F 
ATOM     14  F   UNL     1      -1.094  11.445  17.492  0.00  0.00    +0.000 F 
ENDBRANCH  11  12
ENDBRANCH   8  11
ENDBRANCH   3   5
BRANCH   1  15
ATOM     15  C   UNL     1       2.613   3.490  21.651  0.00  0.00    +0.000 C 
BRANCH  15  16
ATOM     16  O   UNL     1       2.835   2.341  20.820  0.00  0.00    +0.000 OA
BRANCH  16  17
ATOM     17  C   UNL     1       4.046   2.337  20.220  0.00  0.00    +0.000 C 
ATOM     18  O   UNL     1       5.057   1.871  20.740  0.00  0.00    +0.000 OA
BRANCH  17  24
ATOM     19  C   UNL     1       5.042   3.987  18.490  0.00  0.00    +0.000 A 
ATOM     20  C   UNL     1       4.985   4.488  17.174  0.00  0.00    +0.000 A 
ATOM     21  C   UNL     1       3.947   4.137  16.311  0.00  0.00    +0.000 A 
ATOM     22  C   UNL     1       2.966   3.254  16.735  0.00  0.00    +0.000 A 
ATOM     23  C   UNL     1       3.053   2.692  18.009  0.00  0.00    +0.000 A 
ATOM     24  C   UNL     1       4.093   3.031  18.897  0.00  0.00    +0.000 A 
BRANCH  19  25
ATOM     25  O   UNL     1       5.986   4.425  19.384  0.00  0.00    +0.000 OA
BRANCH  25  27
ATOM     26  C   UNL     1       8.039   5.667  19.555  0.00  0.00    +0.000 C 
ATOM     27  C   UNL     1       6.605   5.679  19.065  0.00  0.00    +0.000 C 
ENDBRANCH  25  27
ENDBRANCH  19  25
ENDBRANCH  17  24
ENDBRANCH  16  17
ENDBRANCH  15  16
ENDBRANCH   1  15
TORSDOF 9
ENDMDL
MODEL 3
REMARK VINA RESULT:      -6.9      1.657      2.874
REMARK  Name = 
REMARK  10 active torsions:
REMARK  status: ('A' for Active; 'I' for Inactive)
REMARK    1  A    between atoms: C_1  and  C_2
REMARK    2  A    between atoms: C_2  and  O_3
REMARK    3  A    between atoms: O_3  and  C_4
REMARK    4  A    between atoms: C_9  and  C_10
REMARK    5  A    between atoms: C_10  and  O_12
REMARK    6  A    between atoms: O_12  and  C_13
REMARK    7  A    between atoms: C_13  and  C_14
REMARK    8  A    between atoms: N_16  and  C_17
REMARK    9  A    between atoms: C_20  and  O_21
REMARK   10  A    between atoms: O_21  and  C_22
REMARK                            x       y       z     vdW  Elec       q    Type
REMARK                         _______ _______ _______ _____ _____    ______ ____
ROOT
ATOM      1  C   UNL     1       2.364   5.002  19.320  0.00  0.00    +0.000 C 
ATOM      2  O   UNL     1       1.594   4.871  18.369  0.00  0.00    +0.000 OA
ATOM      3  N   UNL     1       2.737   6.214  19.895  0.00  0.00    +0.000 N 
ATOM      4  H   UNL     1       3.449   6.192  20.613  0.00  0.00    +0.000 HD
ENDROOT
BRANCH   3   5
ATOM      5  C   UNL     1       2.212   7.489  19.561  0.00  0.00    +0.000 A 
ATOM      6  C   UNL     1       2.399   8.083  18.315  0.00  0.00    +0.000 A 
ATOM      7  C   UNL     1       1.868   9.343  18.029  0.00  0.00    +0.000 A 
ATOM      8  C   UNL     1       1.123  10.033  18.983  0.00  0.00    +0.000 A 
ATOM      9  C   UNL     1       0.931   9.457  20.237  0.00  0.00    +0.000 A 
ATOM     10  C   UNL     1       1.461   8.183  20.519  0.00  0.00    +0.000 A 
BRANCH   8  11
ATOM     11  O   UNL     1       0.677  11.258  18.577  0.00  0.00    +0.000 OA
BRANCH  11  12
ATOM     12  C   UNL     1       1.514  12.355  18.894  0.00  0.00    +0.000 C 
ATOM     13  F   UNL     1       2.240  12.680  17.797  0.00  0.00    +0.000 F 
ATOM     14  F   UNL     1       0.706  13.414  19.155  0.00  0.00    +0.000 F 
ENDBRANCH  11  12
ENDBRANCH   8  11
ENDBRANCH   3   5
BRANCH   1  15
ATOM     15  C   UNL     1       3.015   3.760  19.943  0.00  0.00    +0.000 C 
BRANCH  15  16
ATOM     16  O   UNL     1       4.444   3.759  19.798  0.00  0.00    +0.000 OA
BRANCH  16  17
ATOM     17  C   UNL     1       4.854   3.860  18.514  0.00  0.00    +0.000 C 
ATOM     18  O   UNL     1       4.516   3.075  17.632  0.00  0.00    +0.000 OA
BRANCH  17  24
ATOM     19  C   UNL     1       5.869   5.796  17.125  0.00  0.00    +0.000 A 
ATOM     20  C   UNL     1       6.820   6.835  17.074  0.00  0.00    +0.000 A 
ATOM     21  C   UNL     1       7.791   6.976  18.066  0.00  0.00    +0.000 A 
ATOM     22  C   UNL     1       7.808   6.103  19.143  0.00  0.00    +0.000 A 
ATOM     23  C   UNL     1       6.826   5.118  19.243  0.00  0.00    +0.000 A 
ATOM     24  C   UNL     1       5.836   4.958  18.254  0.00  0.00    +0.000 A 
BRANCH  19  25
ATOM     25  O   UNL     1       4.994   5.574  16.091  0.00  0.00    +0.000 OA
BRANCH  25  27
ATOM     26  C   UNL     1       6.142   3.969  14.717  0.00  0.00    +0.000 C 
ATOM     27  C   UNL     1       5.594   5.379  14.804  0.00  0.00    +0.000 C 
ENDBRANCH  25  27
ENDBRANCH  19  25
ENDBRANCH  17  24
ENDBRANCH  16  17
ENDBRANCH  15  16
ENDBRANCH   1  15
TORSDOF 9
ENDMDL
MODEL 4
REMARK VINA RESULT:      -6.9      1.205      1.335
REMARK  Name = 
REMARK  10 active torsions:
REMARK  status: ('A' for Active; 'I' for Inactive)
REMARK    1  A    between atoms: C_1  and  C_2
REMARK    2  A    between atoms: C_2  and  O_3
REMARK    3  A    between atoms: O_3  and  C_4
REMARK    4  A    between atoms: C_9  and  C_10
REMARK    5  A    between atoms: C_10  and  O_12
REMARK    6  A    between atoms: O_12  and  C_13
REMARK    7  A    between atoms: C_13  and  C_14
REMARK    8  A    between atoms: N_16  and  C_17
REMARK    9  A    between atoms: C_20  and  O_21
REMARK   10  A    between atoms: O_21  and  C_22
REMARK                            x       y       z     vdW  Elec       q    Type
REMARK                         _______ _______ _______ _____ _____    ______ ____
ROOT
ATOM      1  C   UNL     1       1.920   4.792  20.783  0.00  0.00    +0.000 C 
ATOM      2  O   UNL     1       0.767   4.586  20.405  0.00  0.00    +0.000 OA
ATOM      3  N   UNL     1       2.624   5.982  20.617  0.00  0.00    +0.000 N 
ATOM      4  H   UNL     1       3.598   5.991  20.891  0.00  0.00    +0.000 HD
ENDROOT
BRANCH   3   5
ATOM      5  C   UNL     1       2.102   7.190  20.090  0.00  0.00    +0.000 A 
ATOM      6  C   UNL     1       2.253   7.563  18.755  0.00  0.00    +0.000 A 
ATOM      7  C   UNL     1       1.726   8.765  18.278  0.00  0.00    +0.000 A 
ATOM      8  C   UNL     1       1.020   9.617  19.124  0.00  0.00    +0.000 A 
ATOM      9  C   UNL     1       0.864   9.264  20.463  0.00  0.00    +0.000 A 
ATOM     10  C   UNL     1       1.389   8.047  20.939  0.00  0.00    +0.000 A 
BRANCH   8  11
ATOM     11  O   UNL     1       0.574  10.763  18.532  0.00  0.00    +0.000 OA
BRANCH  11  12
ATOM     12  C   UNL     1      -0.820  10.833  18.298  0.00  0.00    +0.000 C 
ATOM     13  F   UNL     1      -1.359   9.607  18.504  0.00  0.00    +0.000 F 
ATOM     14  F   UNL     1      -1.347  11.654  19.243  0.00  0.00    +0.000 F 
ENDBRANCH  11  12
ENDBRANCH   8  11
ENDBRANCH   3   5
BRANCH   1  15
ATOM     15  C   UNL     1       2.701   3.667  21.476  0.00  0.00    +0.000 C 
BRANCH  15  16
ATOM     16  O   UNL     1       2.886   2.524  20.627  0.00  0.00    +0.000 OA
BRANCH  16  17
ATOM     17  C   UNL     1       4.106   2.479  20.045  0.00  0.00    +0.000 C 
ATOM     18  O   UNL     1       5.087   1.961  20.572  0.00  0.00    +0.000 OA
BRANCH  17  24
ATOM     19  C   UNL     1       5.259   4.026  18.317  0.00  0.00    +0.000 A 
ATOM     20  C   UNL     1       5.229   4.563  17.015  0.00  0.00    +0.000 A 
ATOM     21  C   UNL     1       4.127   4.376  16.181  0.00  0.00    +0.000 A 
ATOM     22  C   UNL     1       3.050   3.620  16.619  0.00  0.00    +0.000 A 
ATOM     23  C   UNL     1       3.101   3.019  17.877  0.00  0.00    +0.000 A 
ATOM     24  C   UNL     1       4.204   3.194  18.736  0.00  0.00    +0.000 A 
BRANCH  19  25
ATOM     25  O   UNL     1       6.280   4.313  19.188  0.00  0.00    +0.000 OA
BRANCH  25  27
ATOM     26  C   UNL     1       7.811   6.158  18.997  0.00  0.00    +0.000 C 
ATOM     27  C   UNL     1       7.510   4.732  18.582  0.00  0.00    +0.000 C 
ENDBRANCH  25  27
ENDBRANCH  19  25
ENDBRANCH  17  24
ENDBRANCH  16  17
ENDBRANCH  15  16
ENDBRANCH   1  15
TORSDOF 9
ENDMDL
MODEL 5
REMARK VINA RESULT:      -6.8      2.774      3.631
REMARK  Name = 
REMARK  10 active torsions:
REMARK  status: ('A' for Active; 'I' for Inactive)
REMARK    1  A    between atoms: C_1  and  C_2
REMARK    2  A    between atoms: C_2  and  O_3
REMARK    3  A    between atoms: O_3  and  C_4
REMARK    4  A    between atoms: C_9  and  C_10
REMARK    5  A    between atoms: C_10  and  O_12
REMARK    6  A    between atoms: O_12  and  C_13
REMARK    7  A    between atoms: C_13  and  C_14
REMARK    8  A    between atoms: N_16  and  C_17
REMARK    9  A    between atoms: C_20  and  O_21
REMARK   10  A    between atoms: O_21  and  C_22
REMARK                            x       y       z     vdW  Elec       q    Type
REMARK                         _______ _______ _______ _____ _____    ______ ____
ROOT
ATOM      1  C   UNL     1       2.320   6.577  19.690  0.00  0.00    +0.000 C 
ATOM      2  O   UNL     1       1.851   5.802  20.523  0.00  0.00    +0.000 OA
ATOM      3  N   UNL     1       2.061   7.943  19.622  0.00  0.00    +0.000 N 
ATOM      4  H   UNL     1       2.436   8.452  18.832  0.00  0.00    +0.000 HD
ENDROOT
BRANCH   3   5
ATOM      5  C   UNL     1       1.308   8.694  20.560  0.00  0.00    +0.000 A 
ATOM      6  C   UNL     1       1.484   8.583  21.938  0.00  0.00    +0.000 A 
ATOM      7  C   UNL     1       0.718   9.338  22.827  0.00  0.00    +0.000 A 
ATOM      8  C   UNL     1      -0.237  10.237  22.357  0.00  0.00    +0.000 A 
ATOM      9  C   UNL     1      -0.432  10.358  20.982  0.00  0.00    +0.000 A 
ATOM     10  C   UNL     1       0.349   9.600  20.087  0.00  0.00    +0.000 A 
BRANCH   8  11
ATOM     11  O   UNL     1      -0.924  10.898  23.333  0.00  0.00    +0.000 OA
BRANCH  11  12
ATOM     12  C   UNL     1      -1.686  12.011  22.905  0.00  0.00    +0.000 C 
ATOM     13  F   UNL     1      -2.955  11.872  23.362  0.00  0.00    +0.000 F 
ATOM     14  F   UNL     1      -1.171  13.110  23.515  0.00  0.00    +0.000 F 
ENDBRANCH  11  12
ENDBRANCH   8  11
ENDBRANCH   3   5
BRANCH   1  15
ATOM     15  C   UNL     1       3.252   6.038  18.596  0.00  0.00    +0.000 C 
BRANCH  15  16
ATOM     16  O   UNL     1       4.600   5.867  19.060  0.00  0.00    +0.000 OA
BRANCH  16  17
ATOM     17  C   UNL     1       5.158   4.698  18.673  0.00  0.00    +0.000 C 
ATOM     18  O   UNL     1       5.261   3.722  19.411  0.00  0.00    +0.000 OA
BRANCH  17  24
ATOM     19  C   UNL     1       6.858   5.432  16.862  0.00  0.00    +0.000 A 
ATOM     20  C   UNL     1       7.315   5.262  15.540  0.00  0.00    +0.000 A 
ATOM     21  C   UNL     1       6.613   4.476  14.628  0.00  0.00    +0.000 A 
ATOM     22  C   UNL     1       5.460   3.817  15.028  0.00  0.00    +0.000 A 
ATOM     23  C   UNL     1       5.039   3.916  16.355  0.00  0.00    +0.000 A 
ATOM     24  C   UNL     1       5.734   4.704  17.293  0.00  0.00    +0.000 A 
BRANCH  19  25
ATOM     25  O   UNL     1       7.472   6.304  17.727  0.00  0.00    +0.000 OA
BRANCH  25  27
ATOM     26  C   UNL     1       8.330   8.490  18.244  0.00  0.00    +0.000 C 
ATOM     27  C   UNL     1       7.380   7.690  17.376  0.00  0.00    +0.000 C 
ENDBRANCH  25  27
ENDBRANCH  19  25
ENDBRANCH  17  24
ENDBRANCH  16  17
ENDBRANCH  15  16
ENDBRANCH   1  15
TORSDOF 9
ENDMDL
MODEL 6
REMARK VINA RESULT:      -6.8      4.517      6.047
REMARK  Name = 
REMARK  10 active torsions:
REMARK  status: ('A' for Active; 'I' for Inactive)
REMARK    1  A    between atoms: C_1  and  C_2
REMARK    2  A    between atoms: C_2  and  O_3
REMARK    3  A    between atoms: O_3  and  C_4
REMARK    4  A    between atoms: C_9  and  C_10
REMARK    5  A    between atoms: C_10  and  O_12
REMARK    6  A    between atoms: O_12  and  C_13
REMARK    7  A    between atoms: C_13  and  C_14
REMARK    8  A    between atoms: N_16  and  C_17
REMARK    9  A    between atoms: C_20  and  O_21
REMARK   10  A    between atoms: O_21  and  C_22
REMARK                            x       y       z     vdW  Elec       q    Type
REMARK                         _______ _______ _______ _____ _____    ______ ____
ROOT
ATOM      1  C   UNL     1       0.279   9.924  18.613  0.00  0.00    +0.000 C 
ATOM      2  O   UNL     1      -0.168   9.768  19.749  0.00  0.00    +0.000 OA
ATOM      3  N   UNL     1      -0.469  10.276  17.492  0.00  0.00    +0.000 N 
ATOM      4  H   UNL     1       0.003  10.282  16.597  0.00  0.00    +0.000 HD
ENDROOT
BRANCH   3   5
ATOM      5  C   UNL     1      -1.845  10.622  17.487  0.00  0.00    +0.000 A 
ATOM      6  C   UNL     1      -2.738  10.166  16.519  0.00  0.00    +0.000 A 
ATOM      7  C   UNL     1      -4.084  10.535  16.549  0.00  0.00    +0.000 A 
ATOM      8  C   UNL     1      -4.573  11.361  17.559  0.00  0.00    +0.000 A 
ATOM      9  C   UNL     1      -3.693  11.832  18.532  0.00  0.00    +0.000 A 
ATOM     10  C   UNL     1      -2.337  11.451  18.504  0.00  0.00    +0.000 A 
BRANCH   8  11
ATOM     11  O   UNL     1      -5.902  11.655  17.459  0.00  0.00    +0.000 OA
BRANCH  11  12
ATOM     12  C   UNL     1      -6.688  11.353  18.596  0.00  0.00    +0.000 C 
ATOM     13  F   UNL     1      -7.761  12.181  18.616  0.00  0.00    +0.000 F 
ATOM     14  F   UNL     1      -7.169  10.094  18.430  0.00  0.00    +0.000 F 
ENDBRANCH  11  12
ENDBRANCH   8  11
ENDBRANCH   3   5
BRANCH   1  15
ATOM     15  C   UNL     1       1.774   9.698  18.350  0.00  0.00    +0.000 C 
BRANCH  15  16
ATOM     16  O   UNL     1       2.035   8.439  17.711  0.00  0.00    +0.000 OA
BRANCH  16  17
ATOM     17  C   UNL     1       2.455   7.479  18.564  0.00  0.00    +0.000 C 
ATOM     18  O   UNL     1       2.330   7.557  19.784  0.00  0.00    +0.000 OA
BRANCH  17  24
ATOM     19  C   UNL     1       2.838   4.978  18.014  0.00  0.00    +0.000 A 
ATOM     20  C   UNL     1       3.584   4.035  17.279  0.00  0.00    +0.000 A 
ATOM     21  C   UNL     1       4.712   4.415  16.552  0.00  0.00    +0.000 A 
ATOM     22  C   UNL     1       5.096   5.748  16.519  0.00  0.00    +0.000 A 
ATOM     23  C   UNL     1       4.321   6.701  17.181  0.00  0.00    +0.000 A 
ATOM     24  C   UNL     1       3.178   6.340  17.920  0.00  0.00    +0.000 A 
BRANCH  19  25
ATOM     25  O   UNL     1       1.805   4.593  18.833  0.00  0.00    +0.000 OA
BRANCH  25  27
ATOM     26  C   UNL     1       1.103   3.034  20.524  0.00  0.00    +0.000 C 
ATOM     27  C   UNL     1       2.192   3.987  20.073  0.00  0.00    +0.000 C 
ENDBRANCH  25  27
ENDBRANCH  19  25
ENDBRANCH  17  24
ENDBRANCH  16  17
ENDBRANCH  15  16
ENDBRANCH   1  15
TORSDOF 9
ENDMDL
MODEL 7
REMARK VINA RESULT:      -6.7      3.924      7.029
REMARK  Name = 
REMARK  10 active torsions:
REMARK  status: ('A' for Active; 'I' for Inactive)
REMARK    1  A    between atoms: C_1  and  C_2
REMARK    2  A    between atoms: C_2  and  O_3
REMARK    3  A    between atoms: O_3  and  C_4
REMARK    4  A    between atoms: C_9  and  C_10
REMARK    5  A    between atoms: C_10  and  O_12
REMARK    6  A    between atoms: O_12  and  C_13
REMARK    7  A    between atoms: C_13  and  C_14
REMARK    8  A    between atoms: N_16  and  C_17
REMARK    9  A    between atoms: C_20  and  O_21
REMARK   10  A    between atoms: O_21  and  C_22
REMARK                            x       y       z     vdW  Elec       q    Type
REMARK                         _______ _______ _______ _____ _____    ______ ____
ROOT
ATOM      1  C   UNL     1       4.006   3.483  18.762  0.00  0.00    +0.000 C 
ATOM      2  O   UNL     1       3.694   2.430  18.205  0.00  0.00    +0.000 OA
ATOM      3  N   UNL     1       4.850   4.456  18.234  0.00  0.00    +0.000 N 
ATOM      4  H   UNL     1       5.101   5.232  18.831  0.00  0.00    +0.000 HD
ENDROOT
BRANCH   3   5
ATOM      5  C   UNL     1       5.404   4.456  16.927  0.00  0.00    +0.000 A 
ATOM      6  C   UNL     1       4.654   4.178  15.786  0.00  0.00    +0.000 A 
ATOM      7  C   UNL     1       5.239   4.185  14.519  0.00  0.00    +0.000 A 
ATOM      8  C   UNL     1       6.591   4.486  14.362  0.00  0.00    +0.000 A 
ATOM      9  C   UNL     1       7.358   4.760  15.492  0.00  0.00    +0.000 A 
ATOM     10  C   UNL     1       6.762   4.761  16.769  0.00  0.00    +0.000 A 
BRANCH   8  11
ATOM     11  O   UNL     1       7.036   4.442  13.072  0.00  0.00    +0.000 OA
BRANCH  11  12
ATOM     12  C   UNL     1       6.481   3.422  12.262  0.00  0.00    +0.000 C 
ATOM     13  F   UNL     1       5.521   3.966  11.475  0.00  0.00    +0.000 F 
ATOM     14  F   UNL     1       7.465   2.987  11.434  0.00  0.00    +0.000 F 
ENDBRANCH  11  12
ENDBRANCH   8  11
ENDBRANCH   3   5
BRANCH   1  15
ATOM     15  C   UNL     1       3.468   3.783  20.167  0.00  0.00    +0.000 C 
BRANCH  15  16
ATOM     16  O   UNL     1       3.380   5.192  20.431  0.00  0.00    +0.000 OA
BRANCH  16  17
ATOM     17  C   UNL     1       2.129   5.686  20.303  0.00  0.00    +0.000 C 
ATOM     18  O   UNL     1       1.124   5.088  20.680  0.00  0.00    +0.000 OA
BRANCH  17  24
ATOM     19  C   UNL     1       1.508   8.191  20.083  0.00  0.00    +0.000 A 
ATOM     20  C   UNL     1       1.572   9.353  19.289  0.00  0.00    +0.000 A 
ATOM     21  C   UNL     1       2.050   9.309  17.979  0.00  0.00    +0.000 A 
ATOM     22  C   UNL     1       2.505   8.110  17.451  0.00  0.00    +0.000 A 
ATOM     23  C   UNL     1       2.518   6.968  18.252  0.00  0.00    +0.000 A 
ATOM     24  C   UNL     1       2.040   6.990  19.577  0.00  0.00    +0.000 A 
BRANCH  19  25
ATOM     25  O   UNL     1       0.921   8.201  21.324  0.00  0.00    +0.000 OA
BRANCH  25  27
ATOM     26  C   UNL     1       0.001   9.400  23.194  0.00  0.00    +0.000 C 
ATOM     27  C   UNL     1       0.322   9.444  21.714  0.00  0.00    +0.000 C 
ENDBRANCH  25  27
ENDBRANCH  19  25
ENDBRANCH  17  24
ENDBRANCH  16  17
ENDBRANCH  15  16
ENDBRANCH   1  15
TORSDOF 9
ENDMDL
MODEL 8
REMARK VINA RESULT:      -6.7      3.793      7.591
REMARK  Name = 
REMARK  10 active torsions:
REMARK  status: ('A' for Active; 'I' for Inactive)
REMARK    1  A    between atoms: C_1  and  C_2
REMARK    2  A    between atoms: C_2  and  O_3
REMARK    3  A    between atoms: O_3  and  C_4
REMARK    4  A    between atoms: C_9  and  C_10
REMARK    5  A    between atoms: C_10  and  O_12
REMARK    6  A    between atoms: O_12  and  C_13
REMARK    7  A    between atoms: C_13  and  C_14
REMARK    8  A    between atoms: N_16  and  C_17
REMARK    9  A    between atoms: C_20  and  O_21
REMARK   10  A    between atoms: O_21  and  C_22
REMARK                            x       y       z     vdW  Elec       q    Type
REMARK                         _______ _______ _______ _____ _____    ______ ____
ROOT
ATOM      1  C   UNL     1       2.470   5.461  19.198  0.00  0.00    +0.000 C 
ATOM      2  O   UNL     1       1.922   4.890  18.255  0.00  0.00    +0.000 OA
ATOM      3  N   UNL     1       3.815   5.817  19.255  0.00  0.00    +0.000 N 
ATOM      4  H   UNL     1       4.162   6.199  20.125  0.00  0.00    +0.000 HD
ENDROOT
BRANCH   3   5
ATOM      5  C   UNL     1       4.754   5.686  18.200  0.00  0.00    +0.000 A 
ATOM      6  C   UNL     1       4.600   6.313  16.964  0.00  0.00    +0.000 A 
ATOM      7  C   UNL     1       5.547   6.153  15.952  0.00  0.00    +0.000 A 
ATOM      8  C   UNL     1       6.683   5.373  16.157  0.00  0.00    +0.000 A 
ATOM      9  C   UNL     1       6.852   4.734  17.384  0.00  0.00    +0.000 A 
ATOM     10  C   UNL     1       5.898   4.904  18.407  0.00  0.00    +0.000 A 
BRANCH   8  11
ATOM     11  O   UNL     1       7.518   5.291  15.080  0.00  0.00    +0.000 OA
BRANCH  11  12
ATOM     12  C   UNL     1       6.913   4.908  13.859  0.00  0.00    +0.000 C 
ATOM     13  F   UNL     1       7.814   5.068  12.859  0.00  0.00    +0.000 F 
ATOM     14  F   UNL     1       6.652   3.577  13.940  0.00  0.00    +0.000 F 
ENDBRANCH  11  12
ENDBRANCH   8  11
ENDBRANCH   3   5
BRANCH   1  15
ATOM     15  C   UNL     1       1.653   5.808  20.451  0.00  0.00    +0.000 C 
BRANCH  15  16
ATOM     16  O   UNL     1       2.005   7.087  20.998  0.00  0.00    +0.000 OA
BRANCH  16  17
ATOM     17  C   UNL     1       1.566   8.129  20.257  0.00  0.00    +0.000 C 
ATOM     18  O   UNL     1       1.913   8.326  19.095  0.00  0.00    +0.000 OA
BRANCH  17  24
ATOM     19  C   UNL     1      -0.082  10.120  20.413  0.00  0.00    +0.000 A 
ATOM     20  C   UNL     1      -0.919  10.893  21.242  0.00  0.00    +0.000 A 
ATOM     21  C   UNL     1      -0.913  10.730  22.628  0.00  0.00    +0.000 A 
ATOM     22  C   UNL     1      -0.098   9.769  23.206  0.00  0.00    +0.000 A 
ATOM     23  C   UNL     1       0.678   8.946  22.389  0.00  0.00    +0.000 A 
ATOM     24  C   UNL     1       0.687   9.093  20.988  0.00  0.00    +0.000 A 
BRANCH  19  25
ATOM     25  O   UNL     1       0.012  10.363  19.065  0.00  0.00    +0.000 OA
BRANCH  25  27
ATOM     26  C   UNL     1      -1.836  10.187  17.537  0.00  0.00    +0.000 C 
ATOM     27  C   UNL     1      -1.080  11.091  18.489  0.00  0.00    +0.000 C 
ENDBRANCH  25  27
ENDBRANCH  19  25
ENDBRANCH  17  24
ENDBRANCH  16  17
ENDBRANCH  15  16
ENDBRANCH   1  15
TORSDOF 9
ENDMDL
MODEL 9
REMARK VINA RESULT:      -6.7      5.307      8.188
REMARK  Name = 
REMARK  10 active torsions:
REMARK  status: ('A' for Active; 'I' for Inactive)
REMARK    1  A    between atoms: C_1  and  C_2
REMARK    2  A    between atoms: C_2  and  O_3
REMARK    3  A    between atoms: O_3  and  C_4
REMARK    4  A    between atoms: C_9  and  C_10
REMARK    5  A    between atoms: C_10  and  O_12
REMARK    6  A    between atoms: O_12  and  C_13
REMARK    7  A    between atoms: C_13  and  C_14
REMARK    8  A    between atoms: N_16  and  C_17
REMARK    9  A    between atoms: C_20  and  O_21
REMARK   10  A    between atoms: O_21  and  C_22
REMARK                            x       y       z     vdW  Elec       q    Type
REMARK                         _______ _______ _______ _____ _____    ______ ____
ROOT
ATOM      1  C   UNL     1       7.298   6.945  18.157  0.00  0.00    +0.000 C 
ATOM      2  O   UNL     1       7.875   6.183  18.932  0.00  0.00    +0.000 OA
ATOM      3  N   UNL     1       5.979   6.816  17.731  0.00  0.00    +0.000 N 
ATOM      4  H   UNL     1       5.652   7.457  17.020  0.00  0.00    +0.000 HD
ENDROOT
BRANCH   3   5
ATOM      5  C   UNL     1       5.044   5.857  18.198  0.00  0.00    +0.000 A 
ATOM      6  C   UNL     1       5.420   4.703  18.885  0.00  0.00    +0.000 A 
ATOM      7  C   UNL     1       4.467   3.783  19.325  0.00  0.00    +0.000 A 
ATOM      8  C   UNL     1       3.110   4.002  19.099  0.00  0.00    +0.000 A 
ATOM      9  C   UNL     1       2.715   5.146  18.409  0.00  0.00    +0.000 A 
ATOM     10  C   UNL     1       3.679   6.078  17.974  0.00  0.00    +0.000 A 
BRANCH   8  11
ATOM     11  O   UNL     1       2.290   3.016  19.567  0.00  0.00    +0.000 OA
BRANCH  11  12
ATOM     12  C   UNL     1       1.466   3.368  20.663  0.00  0.00    +0.000 C 
ATOM     13  F   UNL     1       2.149   4.221  21.465  0.00  0.00    +0.000 F 
ATOM     14  F   UNL     1       0.410   4.062  20.165  0.00  0.00    +0.000 F 
ENDBRANCH  11  12
ENDBRANCH   8  11
ENDBRANCH   3   5
BRANCH   1  15
ATOM     15  C   UNL     1       8.059   8.137  17.561  0.00  0.00    +0.000 C 
BRANCH  15  16
ATOM     16  O   UNL     1       8.686   8.946  18.568  0.00  0.00    +0.000 OA
BRANCH  16  17
ATOM     17  C   UNL     1       8.672  10.267  18.282  0.00  0.00    +0.000 C 
ATOM     18  O   UNL     1       7.824  10.795  17.568  0.00  0.00    +0.000 OA
BRANCH  17  24
ATOM     19  C   UNL     1      10.019  11.420  20.169  0.00  0.00    +0.000 A 
ATOM     20  C   UNL     1      11.210  12.082  20.530  0.00  0.00    +0.000 A 
ATOM     21  C   UNL     1      12.146  12.460  19.567  0.00  0.00    +0.000 A 
ATOM     22  C   UNL     1      11.926  12.154  18.232  0.00  0.00    +0.000 A 
ATOM     23  C   UNL     1      10.788  11.433  17.873  0.00  0.00    +0.000 A 
ATOM     24  C   UNL     1       9.830  11.040  18.828  0.00  0.00    +0.000 A 
BRANCH  19  25
ATOM     25  O   UNL     1       9.037  11.159  21.092  0.00  0.00    +0.000 OA
BRANCH  25  27
ATOM     26  C   UNL     1       8.026  13.272  21.639  0.00  0.00    +0.000 C 
ATOM     27  C   UNL     1       8.894  12.132  22.135  0.00  0.00    +0.000 C 
ENDBRANCH  25  27
ENDBRANCH  19  25
ENDBRANCH  17  24
ENDBRANCH  16  17
ENDBRANCH  15  16
ENDBRANCH   1  15
TORSDOF 9
ENDMDL
