MODEL 1
REMARK VINA RESULT:      -6.9      0.000      0.000
REMARK  Name = 
REMARK  7 active torsions:
REMARK  status: ('A' for Active; 'I' for Inactive)
REMARK    1  A    between atoms: C_1  and  O_2
REMARK    2  A    between atoms: O_2  and  C_3
REMARK    3  A    between atoms: C_3  and  C_5
REMARK    4  A    between atoms: C_5  and  C_6
REMARK    5  A    between atoms: C_5  and  C_7
REMARK    6  A    between atoms: C_20  and  C_21
REMARK    7  A    between atoms: C_25  and  C_26
REMARK                            x       y       z     vdW  Elec       q    Type
REMARK                         _______ _______ _______ _____ _____    ______ ____
ROOT
ATOM      1  C   UNL     1       1.488  10.628  19.589  0.00  0.00    +0.000 C 
ATOM      2  C   UNL     1       0.826  10.389  20.981  0.00  0.00    +0.000 C 
ATOM      3  C   UNL     1       0.622   8.877  21.128  0.00  0.00    +0.000 C 
ATOM      4  C   UNL     1       1.624   8.299  20.142  0.00  0.00    +0.000 C 
ATOM      5  C   UNL     1       1.513   6.819  19.771  0.00  0.00    +0.000 C 
ATOM      6  C   UNL     1       1.546   5.912  21.010  0.00  0.00    +0.000 C 
ATOM      7  C   UNL     1       1.529   4.428  20.642  0.00  0.00    +0.000 C 
ATOM      8  C   UNL     1       2.639   4.105  19.641  0.00  0.00    +0.000 C 
ATOM      9  N   UNL     1       2.723   2.690  19.340  0.00  0.00    +0.000 N 
ATOM     10  C   UNL     1       3.638   2.241  18.424  0.00  0.00    +0.000 C 
ATOM     11  O   UNL     1       3.976   1.059  18.357  0.00  0.00    +0.000 OA
ATOM     12  C   UNL     1       4.211   3.255  17.509  0.00  0.00    +0.000 C 
ATOM     13  C   UNL     1       3.717   4.505  17.448  0.00  0.00    +0.000 C 
ATOM     14  C   UNL     1       2.561   4.957  18.334  0.00  0.00    +0.000 C 
ATOM     15  C   UNL     1       1.259   4.672  17.541  0.00  0.00    +0.000 C 
ATOM     16  C   UNL     1       2.664   6.458  18.772  0.00  0.00    +0.000 C 
ATOM     17  C   UNL     1       2.793   7.463  17.598  0.00  0.00    +0.000 C 
ATOM     18  C   UNL     1       2.721   8.936  18.030  0.00  0.00    +0.000 C 
ATOM     19  C   UNL     1       1.486   9.222  18.906  0.00  0.00    +0.000 C 
ATOM     20  C   UNL     1       0.188   8.958  18.092  0.00  0.00    +0.000 C 
ATOM     21  H   UNL     1       2.456   1.998  20.025  0.00  0.00    +0.000 HD
ENDROOT
BRANCH   1  22
ATOM     22  C   UNL     1       0.851  11.806  18.809  0.00  0.00    +0.000 C 
ATOM     23  C   UNL     1       1.880  12.850  18.375  0.00  0.00    +0.000 C 
BRANCH  22  24
ATOM     24  C   UNL     1      -0.185  12.539  19.655  0.00  0.00    +0.000 C 
ATOM     25  O   UNL     1       0.066  13.462  20.420  0.00  0.00    +0.000 OA
BRANCH  24  27
ATOM     26  C   UNL     1      -1.800  12.018  18.029  0.00  0.00    +0.000 C 
ATOM     27  O   UNL     1      -1.434  12.048  19.411  0.00  0.00    +0.000 OA
ENDBRANCH  24  27
ENDBRANCH  22  24
ENDBRANCH   1  22
TORSDOF 3
ENDMDL
MODEL 2
REMARK VINA RESULT:      -6.7      1.370      1.583
REMARK  Name = 
REMARK  7 active torsions:
REMARK  status: ('A' for Active; 'I' for Inactive)
REMARK    1  A    between atoms: C_1  and  O_2
REMARK    2  A    between atoms: O_2  and  C_3
REMARK    3  A    between atoms: C_3  and  C_5
REMARK    4  A    between atoms: C_5  and  C_6
REMARK    5  A    between atoms: C_5  and  C_7
REMARK    6  A    between atoms: C_20  and  C_21
REMARK    7  A    between atoms: C_25  and  C_26
REMARK                            x       y       z     vdW  Elec       q    Type
REMARK                         _______ _______ _______ _____ _____    ______ ____
ROOT
ATOM      1  C   UNL     1       0.302  11.448  19.381  0.00  0.00    +0.000 C 
ATOM      2  C   UNL     1      -0.403  11.113  20.730  0.00  0.00    +0.000 C 
ATOM      3  C   UNL     1      -0.235   9.608  20.965  0.00  0.00    +0.000 C 
ATOM      4  C   UNL     1       0.965   9.260  20.100  0.00  0.00    +0.000 C 
ATOM      5  C   UNL     1       1.263   7.785  19.824  0.00  0.00    +0.000 C 
ATOM      6  C   UNL     1       1.410   6.975  21.121  0.00  0.00    +0.000 C 
ATOM      7  C   UNL     1       1.799   5.520  20.856  0.00  0.00    +0.000 C 
ATOM      8  C   UNL     1       3.040   5.446  19.967  0.00  0.00    +0.000 C 
ATOM      9  N   UNL     1       3.504   4.086  19.770  0.00  0.00    +0.000 N 
ATOM     10  C   UNL     1       4.581   3.843  18.960  0.00  0.00    +0.000 C 
ATOM     11  O   UNL     1       5.209   2.785  19.001  0.00  0.00    +0.000 OA
ATOM     12  C   UNL     1       4.962   4.926  18.024  0.00  0.00    +0.000 C 
ATOM     13  C   UNL     1       4.179   6.003  17.840  0.00  0.00    +0.000 C 
ATOM     14  C   UNL     1       2.870   6.187  18.602  0.00  0.00    +0.000 C 
ATOM     15  C   UNL     1       1.759   5.541  17.734  0.00  0.00    +0.000 C 
ATOM     16  C   UNL     1       2.554   7.683  18.943  0.00  0.00    +0.000 C 
ATOM     17  C   UNL     1       2.533   8.631  17.716  0.00  0.00    +0.000 C 
ATOM     18  C   UNL     1       2.056  10.056  18.039  0.00  0.00    +0.000 C 
ATOM     19  C   UNL     1       0.714  10.057  18.797  0.00  0.00    +0.000 C 
ATOM     20  C   UNL     1      -0.396   9.432  17.906  0.00  0.00    +0.000 C 
ATOM     21  H   UNL     1       3.357   3.381  20.479  0.00  0.00    +0.000 HD
ENDROOT
BRANCH   1  22
ATOM     22  C   UNL     1      -0.537  12.386  18.475  0.00  0.00    +0.000 C 
ATOM     23  C   UNL     1       0.034  13.803  18.405  0.00  0.00    +0.000 C 
BRANCH  22  24
ATOM     24  C   UNL     1      -1.969  12.517  18.983  0.00  0.00    +0.000 C 
ATOM     25  O   UNL     1      -2.316  13.229  19.917  0.00  0.00    +0.000 OA
BRANCH  24  27
ATOM     26  C   UNL     1      -4.171  11.755  18.678  0.00  0.00    +0.000 C 
ATOM     27  O   UNL     1      -2.814  11.759  18.227  0.00  0.00    +0.000 OA
ENDBRANCH  24  27
ENDBRANCH  22  24
ENDBRANCH   1  22
TORSDOF 3
ENDMDL
MODEL 3
REMARK VINA RESULT:      -6.6      0.512      1.102
REMARK  Name = 
REMARK  7 active torsions:
REMARK  status: ('A' for Active; 'I' for Inactive)
REMARK    1  A    between atoms: C_1  and  O_2
REMARK    2  A    between atoms: O_2  and  C_3
REMARK    3  A    between atoms: C_3  and  C_5
REMARK    4  A    between atoms: C_5  and  C_6
REMARK    5  A    between atoms: C_5  and  C_7
REMARK    6  A    between atoms: C_20  and  C_21
REMARK    7  A    between atoms: C_25  and  C_26
REMARK                            x       y       z     vdW  Elec       q    Type
REMARK                         _______ _______ _______ _____ _____    ______ ____
ROOT
ATOM      1  C   UNL     1       1.466  10.719  19.545  0.00  0.00    +0.000 C 
ATOM      2  C   UNL     1       0.791  10.483  20.930  0.00  0.00    +0.000 C 
ATOM      3  C   UNL     1       0.586   8.971  21.078  0.00  0.00    +0.000 C 
ATOM      4  C   UNL     1       1.597   8.392  20.102  0.00  0.00    +0.000 C 
ATOM      5  C   UNL     1       1.491   6.911  19.733  0.00  0.00    +0.000 C 
ATOM      6  C   UNL     1       1.512   6.006  20.974  0.00  0.00    +0.000 C 
ATOM      7  C   UNL     1       1.500   4.521  20.608  0.00  0.00    +0.000 C 
ATOM      8  C   UNL     1       2.620   4.198  19.619  0.00  0.00    +0.000 C 
ATOM      9  N   UNL     1       2.707   2.782  19.321  0.00  0.00    +0.000 N 
ATOM     10  C   UNL     1       3.631   2.332  18.415  0.00  0.00    +0.000 C 
ATOM     11  O   UNL     1       3.970   1.150  18.354  0.00  0.00    +0.000 OA
ATOM     12  C   UNL     1       4.212   3.345  17.504  0.00  0.00    +0.000 C 
ATOM     13  C   UNL     1       3.718   4.594  17.435  0.00  0.00    +0.000 C 
ATOM     14  C   UNL     1       2.553   5.047  18.310  0.00  0.00    +0.000 C 
ATOM     15  C   UNL     1       1.259   4.760  17.505  0.00  0.00    +0.000 C 
ATOM     16  C   UNL     1       2.651   6.549  18.746  0.00  0.00    +0.000 C 
ATOM     17  C   UNL     1       2.791   7.552  17.571  0.00  0.00    +0.000 C 
ATOM     18  C   UNL     1       2.715   9.026  18.000  0.00  0.00    +0.000 C 
ATOM     19  C   UNL     1       1.471   9.312  18.863  0.00  0.00    +0.000 C 
ATOM     20  C   UNL     1       0.181   9.046  18.037  0.00  0.00    +0.000 C 
ATOM     21  H   UNL     1       2.433   2.091  20.005  0.00  0.00    +0.000 HD
ENDROOT
BRANCH   1  22
ATOM     22  C   UNL     1       0.835  11.896  18.756  0.00  0.00    +0.000 C 
ATOM     23  C   UNL     1       1.881  12.881  18.232  0.00  0.00    +0.000 C 
BRANCH  22  24
ATOM     24  C   UNL     1      -0.124  12.700  19.628  0.00  0.00    +0.000 C 
ATOM     25  O   UNL     1      -1.299  12.415  19.819  0.00  0.00    +0.000 OA
BRANCH  24  27
ATOM     26  C   UNL     1       0.267  13.933  21.590  0.00  0.00    +0.000 C 
ATOM     27  O   UNL     1       0.521  13.760  20.193  0.00  0.00    +0.000 OA
ENDBRANCH  24  27
ENDBRANCH  22  24
ENDBRANCH   1  22
TORSDOF 3
ENDMDL
MODEL 4
REMARK VINA RESULT:      -6.3      1.615      2.232
REMARK  Name = 
REMARK  7 active torsions:
REMARK  status: ('A' for Active; 'I' for Inactive)
REMARK    1  A    between atoms: C_1  and  O_2
REMARK    2  A    between atoms: O_2  and  C_3
REMARK    3  A    between atoms: C_3  and  C_5
REMARK    4  A    between atoms: C_5  and  C_6
REMARK    5  A    between atoms: C_5  and  C_7
REMARK    6  A    between atoms: C_20  and  C_21
REMARK    7  A    between atoms: C_25  and  C_26
REMARK                            x       y       z     vdW  Elec       q    Type
REMARK                         _______ _______ _______ _____ _____    ______ ____
ROOT
ATOM      1  C   UNL     1      -0.097  11.714  20.001  0.00  0.00    +0.000 C 
ATOM      2  C   UNL     1      -0.667  11.177  21.349  0.00  0.00    +0.000 C 
ATOM      3  C   UNL     1      -0.378   9.673  21.393  0.00  0.00    +0.000 C 
ATOM      4  C   UNL     1       0.770   9.517  20.408  0.00  0.00    +0.000 C 
ATOM      5  C   UNL     1       1.145   8.109  19.940  0.00  0.00    +0.000 C 
ATOM      6  C   UNL     1       1.450   7.173  21.119  0.00  0.00    +0.000 C 
ATOM      7  C   UNL     1       1.914   5.792  20.657  0.00  0.00    +0.000 C 
ATOM      8  C   UNL     1       3.083   5.913  19.679  0.00  0.00    +0.000 C 
ATOM      9  N   UNL     1       3.620   4.623  19.291  0.00  0.00    +0.000 N 
ATOM     10  C   UNL     1       4.643   4.556  18.382  0.00  0.00    +0.000 C 
ATOM     11  O   UNL     1       5.343   3.551  18.253  0.00  0.00    +0.000 OA
ATOM     12  C   UNL     1       4.873   5.763  17.555  0.00  0.00    +0.000 C 
ATOM     13  C   UNL     1       4.005   6.791  17.555  0.00  0.00    +0.000 C 
ATOM     14  C   UNL     1       2.753   6.787  18.426  0.00  0.00    +0.000 C 
ATOM     15  C   UNL     1       1.622   6.158  17.571  0.00  0.00    +0.000 C 
ATOM     16  C   UNL     1       2.364   8.206  18.962  0.00  0.00    +0.000 C 
ATOM     17  C   UNL     1       2.180   9.282  17.860  0.00  0.00    +0.000 C 
ATOM     18  C   UNL     1       1.634  10.620  18.382  0.00  0.00    +0.000 C 
ATOM     19  C   UNL     1       0.361  10.433  19.229  0.00  0.00    +0.000 C 
ATOM     20  C   UNL     1      -0.773   9.828  18.354  0.00  0.00    +0.000 C 
ATOM     21  H   UNL     1       3.580   3.835  19.921  0.00  0.00    +0.000 HD
ENDROOT
BRANCH   1  22
ATOM     22  C   UNL     1      -1.068  12.680  19.274  0.00  0.00    +0.000 C 
ATOM     23  C   UNL     1      -0.348  13.622  18.309  0.00  0.00    +0.000 C 
BRANCH  22  24
ATOM     24  C   UNL     1      -1.821  13.562  20.265  0.00  0.00    +0.000 C 
ATOM     25  O   UNL     1      -3.005  13.435  20.553  0.00  0.00    +0.000 OA
BRANCH  24  27
ATOM     26  C   UNL     1      -1.402  14.990  22.084  0.00  0.00    +0.000 C 
ATOM     27  O   UNL     1      -0.982  14.487  20.812  0.00  0.00    +0.000 OA
ENDBRANCH  24  27
ENDBRANCH  22  24
ENDBRANCH   1  22
TORSDOF 3
ENDMDL
MODEL 5
REMARK VINA RESULT:      -6.1      1.903      2.511
REMARK  Name = 
REMARK  7 active torsions:
REMARK  status: ('A' for Active; 'I' for Inactive)
REMARK    1  A    between atoms: C_1  and  O_2
REMARK    2  A    between atoms: O_2  and  C_3
REMARK    3  A    between atoms: C_3  and  C_5
REMARK    4  A    between atoms: C_5  and  C_6
REMARK    5  A    between atoms: C_5  and  C_7
REMARK    6  A    between atoms: C_20  and  C_21
REMARK    7  A    between atoms: C_25  and  C_26
REMARK                            x       y       z     vdW  Elec       q    Type
REMARK                         _______ _______ _______ _____ _____    ______ ____
ROOT
ATOM      1  C   UNL     1      -0.232  11.625  20.816  0.00  0.00    +0.000 C 
ATOM      2  C   UNL     1      -0.652  10.889  22.125  0.00  0.00    +0.000 C 
ATOM      3  C   UNL     1      -0.308   9.407  21.938  0.00  0.00    +0.000 C 
ATOM      4  C   UNL     1       0.745   9.436  20.842  0.00  0.00    +0.000 C 
ATOM      5  C   UNL     1       1.122   8.122  20.156  0.00  0.00    +0.000 C 
ATOM      6  C   UNL     1       1.570   7.054  21.165  0.00  0.00    +0.000 C 
ATOM      7  C   UNL     1       2.036   5.769  20.480  0.00  0.00    +0.000 C 
ATOM      8  C   UNL     1       3.101   6.072  19.427  0.00  0.00    +0.000 C 
ATOM      9  N   UNL     1       3.643   4.872  18.820  0.00  0.00    +0.000 N 
ATOM     10  C   UNL     1       4.577   4.973  17.823  0.00  0.00    +0.000 C 
ATOM     11  O   UNL     1       5.295   4.029  17.496  0.00  0.00    +0.000 OA
ATOM     12  C   UNL     1       4.685   6.289  17.150  0.00  0.00    +0.000 C 
ATOM     13  C   UNL     1       3.787   7.265  17.368  0.00  0.00    +0.000 C 
ATOM     14  C   UNL     1       2.624   7.088  18.339  0.00  0.00    +0.000 C 
ATOM     15  C   UNL     1       1.439   6.525  17.511  0.00  0.00    +0.000 C 
ATOM     16  C   UNL     1       2.239   8.404  19.095  0.00  0.00    +0.000 C 
ATOM     17  C   UNL     1       1.914   9.606  18.170  0.00  0.00    +0.000 C 
ATOM     18  C   UNL     1       1.375  10.837  18.916  0.00  0.00    +0.000 C 
ATOM     19  C   UNL     1       0.195  10.480  19.840  0.00  0.00    +0.000 C 
ATOM     20  C   UNL     1      -0.995   9.944  18.996  0.00  0.00    +0.000 C 
ATOM     21  H   UNL     1       3.690   4.006  19.339  0.00  0.00    +0.000 HD
ENDROOT
BRANCH   1  22
ATOM     22  C   UNL     1      -1.300  12.632  20.317  0.00  0.00    +0.000 C 
ATOM     23  C   UNL     1      -0.714  13.705  19.398  0.00  0.00    +0.000 C 
BRANCH  22  24
ATOM     24  C   UNL     1      -1.959  13.366  21.481  0.00  0.00    +0.000 C 
ATOM     25  O   UNL     1      -1.399  14.188  22.195  0.00  0.00    +0.000 OA
BRANCH  24  27
ATOM     26  C   UNL     1      -3.722  12.803  22.930  0.00  0.00    +0.000 C 
ATOM     27  O   UNL     1      -3.270  13.007  21.588  0.00  0.00    +0.000 OA
ENDBRANCH  24  27
ENDBRANCH  22  24
ENDBRANCH   1  22
TORSDOF 3
ENDMDL
MODEL 6
REMARK VINA RESULT:      -6.1      2.683      7.799
REMARK  Name = 
REMARK  7 active torsions:
REMARK  status: ('A' for Active; 'I' for Inactive)
REMARK    1  A    between atoms: C_1  and  O_2
REMARK    2  A    between atoms: O_2  and  C_3
REMARK    3  A    between atoms: C_3  and  C_5
REMARK    4  A    between atoms: C_5  and  C_6
REMARK    5  A    between atoms: C_5  and  C_7
REMARK    6  A    between atoms: C_20  and  C_21
REMARK    7  A    between atoms: C_25  and  C_26
REMARK                            x       y       z     vdW  Elec       q    Type
REMARK                         _______ _______ _______ _____ _____    ______ ____
ROOT
ATOM      1  C   UNL     1       4.081   5.732  18.039  0.00  0.00    +0.000 C 
ATOM      2  C   UNL     1       4.358   6.747  16.888  0.00  0.00    +0.000 C 
ATOM      3  C   UNL     1       3.346   7.887  17.041  0.00  0.00    +0.000 C 
ATOM      4  C   UNL     1       2.933   7.785  18.500  0.00  0.00    +0.000 C 
ATOM      5  C   UNL     1       1.701   8.563  18.968  0.00  0.00    +0.000 C 
ATOM      6  C   UNL     1       1.812  10.062  18.648  0.00  0.00    +0.000 C 
ATOM      7  C   UNL     1       0.628  10.859  19.195  0.00  0.00    +0.000 C 
ATOM      8  C   UNL     1       0.431  10.584  20.685  0.00  0.00    +0.000 C 
ATOM      9  N   UNL     1      -0.620  11.395  21.267  0.00  0.00    +0.000 N 
ATOM     10  C   UNL     1      -0.953  11.236  22.586  0.00  0.00    +0.000 C 
ATOM     11  O   UNL     1      -1.591  12.084  23.211  0.00  0.00    +0.000 OA
ATOM     12  C   UNL     1      -0.504   9.983  23.235  0.00  0.00    +0.000 C 
ATOM     13  C   UNL     1       0.027   8.974  22.522  0.00  0.00    +0.000 C 
ATOM     14  C   UNL     1       0.222   9.071  21.013  0.00  0.00    +0.000 C 
ATOM     15  C   UNL     1      -1.073   8.517  20.363  0.00  0.00    +0.000 C 
ATOM     16  C   UNL     1       1.500   8.323  20.502  0.00  0.00    +0.000 C 
ATOM     17  C   UNL     1       1.573   6.826  20.902  0.00  0.00    +0.000 C 
ATOM     18  C   UNL     1       2.740   6.065  20.254  0.00  0.00    +0.000 C 
ATOM     19  C   UNL     1       2.780   6.261  18.726  0.00  0.00    +0.000 C 
ATOM     20  C   UNL     1       1.489   5.678  18.085  0.00  0.00    +0.000 C 
ATOM     21  H   UNL     1      -0.830  12.313  20.900  0.00  0.00    +0.000 HD
ENDROOT
BRANCH   1  22
ATOM     22  C   UNL     1       4.092   4.257  17.563  0.00  0.00    +0.000 C 
ATOM     23  C   UNL     1       4.123   3.263  18.725  0.00  0.00    +0.000 C 
BRANCH  22  24
ATOM     24  C   UNL     1       5.314   3.959  16.701  0.00  0.00    +0.000 C 
ATOM     25  O   UNL     1       5.283   3.739  15.496  0.00  0.00    +0.000 OA
BRANCH  24  27
ATOM     26  C   UNL     1       7.529   4.730  16.851  0.00  0.00    +0.000 C 
ATOM     27  O   UNL     1       6.451   4.009  17.453  0.00  0.00    +0.000 OA
ENDBRANCH  24  27
ENDBRANCH  22  24
ENDBRANCH   1  22
TORSDOF 3
ENDMDL
MODEL 7
REMARK VINA RESULT:      -6.0      9.437     10.621
REMARK  Name = 
REMARK  7 active torsions:
REMARK  status: ('A' for Active; 'I' for Inactive)
REMARK    1  A    between atoms: C_1  and  O_2
REMARK    2  A    between atoms: O_2  and  C_3
REMARK    3  A    between atoms: C_3  and  C_5
REMARK    4  A    between atoms: C_5  and  C_6
REMARK    5  A    between atoms: C_5  and  C_7
REMARK    6  A    between atoms: C_20  and  C_21
REMARK    7  A    between atoms: C_25  and  C_26
REMARK                            x       y       z     vdW  Elec       q    Type
REMARK                         _______ _______ _______ _____ _____    ______ ____
ROOT
ATOM      1  C   UNL     1       6.279  13.026  24.383  0.00  0.00    +0.000 C 
ATOM      2  C   UNL     1       5.330  14.187  23.958  0.00  0.00    +0.000 C 
ATOM      3  C   UNL     1       5.982  14.886  22.760  0.00  0.00    +0.000 C 
ATOM      4  C   UNL     1       6.926  13.825  22.218  0.00  0.00    +0.000 C 
ATOM      5  C   UNL     1       7.988  14.243  21.199  0.00  0.00    +0.000 C 
ATOM      6  C   UNL     1       7.371  14.944  19.979  0.00  0.00    +0.000 C 
ATOM      7  C   UNL     1       8.415  15.282  18.915  0.00  0.00    +0.000 C 
ATOM      8  C   UNL     1       9.226  14.042  18.539  0.00  0.00    +0.000 C 
ATOM      9  N   UNL     1      10.162  14.294  17.461  0.00  0.00    +0.000 N 
ATOM     10  C   UNL     1      10.997  13.295  17.036  0.00  0.00    +0.000 C 
ATOM     11  O   UNL     1      11.573  13.338  15.948  0.00  0.00    +0.000 OA
ATOM     12  C   UNL     1      11.176  12.147  17.954  0.00  0.00    +0.000 C 
ATOM     13  C   UNL     1      10.705  12.174  19.213  0.00  0.00    +0.000 C 
ATOM     14  C   UNL     1       9.937  13.373  19.759  0.00  0.00    +0.000 C 
ATOM     15  C   UNL     1      10.988  14.318  20.398  0.00  0.00    +0.000 C 
ATOM     16  C   UNL     1       8.809  12.980  20.772  0.00  0.00    +0.000 C 
ATOM     17  C   UNL     1       9.293  12.130  21.976  0.00  0.00    +0.000 C 
ATOM     18  C   UNL     1       8.215  11.896  23.046  0.00  0.00    +0.000 C 
ATOM     19  C   UNL     1       7.552  13.212  23.495  0.00  0.00    +0.000 C 
ATOM     20  C   UNL     1       8.610  14.139  24.157  0.00  0.00    +0.000 C 
ATOM     21  H   UNL     1       9.965  14.992  16.757  0.00  0.00    +0.000 HD
ENDROOT
BRANCH   1  22
ATOM     22  C   UNL     1       6.482  12.940  25.918  0.00  0.00    +0.000 C 
ATOM     23  C   UNL     1       6.952  11.557  26.373  0.00  0.00    +0.000 C 
BRANCH  22  24
ATOM     24  C   UNL     1       5.186  13.229  26.668  0.00  0.00    +0.000 C 
ATOM     25  O   UNL     1       4.254  12.442  26.781  0.00  0.00    +0.000 OA
BRANCH  24  27
ATOM     26  C   UNL     1       6.542  14.942  27.533  0.00  0.00    +0.000 C 
ATOM     27  O   UNL     1       5.226  14.472  27.228  0.00  0.00    +0.000 OA
ENDBRANCH  24  27
ENDBRANCH  22  24
ENDBRANCH   1  22
TORSDOF 3
ENDMDL
MODEL 8
REMARK VINA RESULT:      -6.0      2.298      7.998
REMARK  Name = 
REMARK  7 active torsions:
REMARK  status: ('A' for Active; 'I' for Inactive)
REMARK    1  A    between atoms: C_1  and  O_2
REMARK    2  A    between atoms: O_2  and  C_3
REMARK    3  A    between atoms: C_3  and  C_5
REMARK    4  A    between atoms: C_5  and  C_6
REMARK    5  A    between atoms: C_5  and  C_7
REMARK    6  A    between atoms: C_20  and  C_21
REMARK    7  A    between atoms: C_25  and  C_26
REMARK                            x       y       z     vdW  Elec       q    Type
REMARK                         _______ _______ _______ _____ _____    ______ ____
ROOT
ATOM      1  C   UNL     1       3.410   4.634  19.870  0.00  0.00    +0.000 C 
ATOM      2  C   UNL     1       4.293   4.863  18.606  0.00  0.00    +0.000 C 
ATOM      3  C   UNL     1       3.776   6.131  17.919  0.00  0.00    +0.000 C 
ATOM      4  C   UNL     1       3.045   6.853  19.040  0.00  0.00    +0.000 C 
ATOM      5  C   UNL     1       2.125   8.021  18.679  0.00  0.00    +0.000 C 
ATOM      6  C   UNL     1       2.858   9.101  17.868  0.00  0.00    +0.000 C 
ATOM      7  C   UNL     1       1.971  10.313  17.583  0.00  0.00    +0.000 C 
ATOM      8  C   UNL     1       1.362  10.854  18.877  0.00  0.00    +0.000 C 
ATOM      9  N   UNL     1       0.592  12.065  18.666  0.00  0.00    +0.000 N 
ATOM     10  C   UNL     1      -0.058  12.651  19.719  0.00  0.00    +0.000 C 
ATOM     11  O   UNL     1      -0.452  13.817  19.683  0.00  0.00    +0.000 OA
ATOM     12  C   UNL     1      -0.267  11.809  20.920  0.00  0.00    +0.000 C 
ATOM     13  C   UNL     1      -0.012  10.488  20.905  0.00  0.00    +0.000 C 
ATOM     14  C   UNL     1       0.534   9.789  19.664  0.00  0.00    +0.000 C 
ATOM     15  C   UNL     1      -0.697   9.306  18.853  0.00  0.00    +0.000 C 
ATOM     16  C   UNL     1       1.516   8.614  19.994  0.00  0.00    +0.000 C 
ATOM     17  C   UNL     1       0.931   7.532  20.939  0.00  0.00    +0.000 C 
ATOM     18  C   UNL     1       1.840   6.305  21.117  0.00  0.00    +0.000 C 
ATOM     19  C   UNL     1       2.285   5.716  19.766  0.00  0.00    +0.000 C 
ATOM     20  C   UNL     1       1.046   5.211  18.974  0.00  0.00    +0.000 C 
ATOM     21  H   UNL     1       0.829  12.706  17.922  0.00  0.00    +0.000 HD
ENDROOT
BRANCH   1  22
ATOM     22  C   UNL     1       2.970   3.158  20.044  0.00  0.00    +0.000 C 
ATOM     23  C   UNL     1       2.564   2.829  21.481  0.00  0.00    +0.000 C 
BRANCH  22  24
ATOM     24  C   UNL     1       4.096   2.195  19.678  0.00  0.00    +0.000 C 
ATOM     25  O   UNL     1       5.098   2.003  20.354  0.00  0.00    +0.000 OA
BRANCH  24  27
ATOM     26  C   UNL     1       2.543   1.889  17.940  0.00  0.00    +0.000 C 
ATOM     27  O   UNL     1       3.810   1.550  18.511  0.00  0.00    +0.000 OA
ENDBRANCH  24  27
ENDBRANCH  22  24
ENDBRANCH   1  22
TORSDOF 3
ENDMDL
MODEL 9
REMARK VINA RESULT:      -6.0      2.425      7.706
REMARK  Name = 
REMARK  7 active torsions:
REMARK  status: ('A' for Active; 'I' for Inactive)
REMARK    1  A    between atoms: C_1  and  O_2
REMARK    2  A    between atoms: O_2  and  C_3
REMARK    3  A    between atoms: C_3  and  C_5
REMARK    4  A    between atoms: C_5  and  C_6
REMARK    5  A    between atoms: C_5  and  C_7
REMARK    6  A    between atoms: C_20  and  C_21
REMARK    7  A    between atoms: C_25  and  C_26
REMARK                            x       y       z     vdW  Elec       q    Type
REMARK                         _______ _______ _______ _____ _____    ______ ____
ROOT
ATOM      1  C   UNL     1       4.049   5.102  18.268  0.00  0.00    +0.000 C 
ATOM      2  C   UNL     1       4.527   5.922  17.031  0.00  0.00    +0.000 C 
ATOM      3  C   UNL     1       3.670   7.190  16.973  0.00  0.00    +0.000 C 
ATOM      4  C   UNL     1       3.161   7.324  18.399  0.00  0.00    +0.000 C 
ATOM      5  C   UNL     1       2.018   8.304  18.678  0.00  0.00    +0.000 C 
ATOM      6  C   UNL     1       2.348   9.725  18.196  0.00  0.00    +0.000 C 
ATOM      7  C   UNL     1       1.251  10.727  18.554  0.00  0.00    +0.000 C 
ATOM      8  C   UNL     1       0.929  10.668  20.047  0.00  0.00    +0.000 C 
ATOM      9  N   UNL     1      -0.037  11.671  20.450  0.00  0.00    +0.000 N 
ATOM     10  C   UNL     1      -0.466  11.722  21.749  0.00  0.00    +0.000 C 
ATOM     11  O   UNL     1      -1.021  12.715  22.220  0.00  0.00    +0.000 OA
ATOM     12  C   UNL     1      -0.228  10.513  22.572  0.00  0.00    +0.000 C 
ATOM     13  C   UNL     1       0.203   9.364  22.023  0.00  0.00    +0.000 C 
ATOM     14  C   UNL     1       0.501   9.245  20.532  0.00  0.00    +0.000 C 
ATOM     15  C   UNL     1      -0.816   8.782  19.855  0.00  0.00    +0.000 C 
ATOM     16  C   UNL     1       1.695   8.285  20.210  0.00  0.00    +0.000 C 
ATOM     17  C   UNL     1       1.542   6.852  20.785  0.00  0.00    +0.000 C 
ATOM     18  C   UNL     1       2.634   5.876  20.321  0.00  0.00    +0.000 C 
ATOM     19  C   UNL     1       2.791   5.872  18.788  0.00  0.00    +0.000 C 
ATOM     20  C   UNL     1       1.475   5.381  18.123  0.00  0.00    +0.000 C 
ATOM     21  H   UNL     1      -0.099  12.554  19.963  0.00  0.00    +0.000 HD
ENDROOT
BRANCH   1  22
ATOM     22  C   UNL     1       3.890   3.589  17.968  0.00  0.00    +0.000 C 
ATOM     23  C   UNL     1       2.599   3.271  17.212  0.00  0.00    +0.000 C 
BRANCH  22  24
ATOM     24  C   UNL     1       3.857   2.767  19.253  0.00  0.00    +0.000 C 
ATOM     25  O   UNL     1       4.825   2.559  19.974  0.00  0.00    +0.000 OA
BRANCH  24  27
ATOM     26  C   UNL     1       2.176   2.467  20.868  0.00  0.00    +0.000 C 
ATOM     27  O   UNL     1       2.590   2.330  19.506  0.00  0.00    +0.000 OA
ENDBRANCH  24  27
ENDBRANCH  22  24
ENDBRANCH   1  22
TORSDOF 3
ENDMDL
