MODEL 1
REMARK VINA RESULT:      -7.3      0.000      0.000
REMARK  Name = 
REMARK  2 active torsions:
REMARK  status: ('A' for Active; 'I' for Inactive)
REMARK    1  A    between atoms: C_2  and  C_10
REMARK    2  A    between atoms: N_3  and  C_4
REMARK                            x       y       z     vdW  Elec       q    Type
REMARK                         _______ _______ _______ _____ _____    ______ ____
ROOT
ATOM      1  O   UNL     1       3.667   2.114  17.751  0.00  0.00    +0.000 OA
ATOM      2  C   UNL     1       3.302   3.268  17.563  0.00  0.00    +0.000 C 
ATOM      3  N   UNL     1       4.150   4.243  17.078  0.00  0.00    +0.000 N 
ATOM      4  H   UNL     1       3.901   5.217  17.209  0.00  0.00    +0.000 HD
ENDROOT
BRANCH   3   5
ATOM      5  C   UNL     1       5.524   3.948  16.714  0.00  0.00    +0.000 C 
ATOM      6  C   UNL     1       6.047   4.728  15.522  0.00  0.00    +0.000 C 
ATOM      7  O   UNL     1       7.476   4.760  15.665  0.00  0.00    +0.000 OA
ATOM      8  N   UNL     1       7.713   4.653  17.062  0.00  0.00    +0.000 N 
ATOM      9  C   UNL     1       6.534   4.416  17.738  0.00  0.00    +0.000 C 
ATOM     10  O   UNL     1       6.359   4.522  18.939  0.00  0.00    +0.000 OA
ATOM     11  H   UNL     1       8.477   5.178  17.472  0.00  0.00    +0.000 HD
ENDBRANCH   3   5
BRANCH   2  12
ATOM     12  C   UNL     1       1.873   3.768  17.802  0.00  0.00    +0.000 C 
ATOM     13  C   UNL     1       1.061   2.734  18.599  0.00  0.00    +0.000 C 
ATOM     14  C   UNL     1       1.498   2.672  20.061  0.00  0.00    +0.000 C 
ATOM     15  C   UNL     1       1.361   4.035  20.728  0.00  0.00    +0.000 C 
ATOM     16  C   UNL     1       2.148   5.107  19.982  0.00  0.00    +0.000 C 
ATOM     17  C   UNL     1       1.815   5.143  18.488  0.00  0.00    +0.000 C 
ENDBRANCH   2  12
TORSDOF 2
ENDMDL
MODEL 2
REMARK VINA RESULT:      -7.0      1.391      1.918
REMARK  Name = 
REMARK  2 active torsions:
REMARK  status: ('A' for Active; 'I' for Inactive)
REMARK    1  A    between atoms: C_2  and  C_10
REMARK    2  A    between atoms: N_3  and  C_4
REMARK                            x       y       z     vdW  Elec       q    Type
REMARK                         _______ _______ _______ _____ _____    ______ ____
ROOT
ATOM      1  O   UNL     1       4.618   4.925  19.462  0.00  0.00    +0.000 OA
ATOM      2  C   UNL     1       3.845   5.131  18.535  0.00  0.00    +0.000 C 
ATOM      3  N   UNL     1       4.249   5.106  17.215  0.00  0.00    +0.000 N 
ATOM      4  H   UNL     1       3.668   5.555  16.517  0.00  0.00    +0.000 HD
ENDROOT
BRANCH   3   5
ATOM      5  C   UNL     1       5.615   4.786  16.841  0.00  0.00    +0.000 C 
ATOM      6  C   UNL     1       5.752   4.001  15.550  0.00  0.00    +0.000 C 
ATOM      7  O   UNL     1       7.074   4.274  15.058  0.00  0.00    +0.000 OA
ATOM      8  N   UNL     1       7.405   5.557  15.570  0.00  0.00    +0.000 N 
ATOM      9  C   UNL     1       6.432   5.996  16.445  0.00  0.00    +0.000 C 
ATOM     10  O   UNL     1       6.292   7.136  16.852  0.00  0.00    +0.000 OA
ATOM     11  H   UNL     1       7.942   6.193  14.992  0.00  0.00    +0.000 HD
ENDBRANCH   3   5
BRANCH   2  12
ATOM     12  C   UNL     1       2.347   5.404  18.708  0.00  0.00    +0.000 C 
ATOM     13  C   UNL     1       1.516   4.445  17.841  0.00  0.00    +0.000 C 
ATOM     14  C   UNL     1       1.525   3.023  18.397  0.00  0.00    +0.000 C 
ATOM     15  C   UNL     1       0.994   2.992  19.824  0.00  0.00    +0.000 C 
ATOM     16  C   UNL     1       1.781   3.926  20.737  0.00  0.00    +0.000 C 
ATOM     17  C   UNL     1       1.882   5.346  20.173  0.00  0.00    +0.000 C 
ENDBRANCH   2  12
TORSDOF 2
ENDMDL
MODEL 3
REMARK VINA RESULT:      -7.0      1.712      2.334
REMARK  Name = 
REMARK  2 active torsions:
REMARK  status: ('A' for Active; 'I' for Inactive)
REMARK    1  A    between atoms: C_2  and  C_10
REMARK    2  A    between atoms: N_3  and  C_4
REMARK                            x       y       z     vdW  Elec       q    Type
REMARK                         _______ _______ _______ _____ _____    ______ ____
ROOT
ATOM      1  O   UNL     1       3.057   4.683  17.588  0.00  0.00    +0.000 OA
ATOM      2  C   UNL     1       3.828   3.753  17.791  0.00  0.00    +0.000 C 
ATOM      3  N   UNL     1       5.136   3.766  17.349  0.00  0.00    +0.000 N 
ATOM      4  H   UNL     1       5.638   2.889  17.281  0.00  0.00    +0.000 HD
ENDROOT
BRANCH   3   5
ATOM      5  C   UNL     1       5.694   4.911  16.652  0.00  0.00    +0.000 C 
ATOM      6  C   UNL     1       6.830   5.605  17.381  0.00  0.00    +0.000 C 
ATOM      7  O   UNL     1       7.598   6.277  16.370  0.00  0.00    +0.000 OA
ATOM      8  N   UNL     1       7.390   5.524  15.182  0.00  0.00    +0.000 N 
ATOM      9  C   UNL     1       6.441   4.544  15.389  0.00  0.00    +0.000 C 
ATOM     10  O   UNL     1       6.223   3.590  14.663  0.00  0.00    +0.000 OA
ATOM     11  H   UNL     1       8.161   5.405  14.535  0.00  0.00    +0.000 HD
ENDBRANCH   3   5
BRANCH   2  12
ATOM     12  C   UNL     1       3.464   2.490  18.578  0.00  0.00    +0.000 C 
ATOM     13  C   UNL     1       3.658   2.713  20.086  0.00  0.00    +0.000 C 
ATOM     14  C   UNL     1       2.583   3.627  20.668  0.00  0.00    +0.000 C 
ATOM     15  C   UNL     1       1.192   3.057  20.424  0.00  0.00    +0.000 C 
ATOM     16  C   UNL     1       0.937   2.813  18.940  0.00  0.00    +0.000 C 
ATOM     17  C   UNL     1       2.042   1.980  18.287  0.00  0.00    +0.000 C 
ENDBRANCH   2  12
TORSDOF 2
ENDMDL
MODEL 4
REMARK VINA RESULT:      -7.0      1.515      2.340
REMARK  Name = 
REMARK  2 active torsions:
REMARK  status: ('A' for Active; 'I' for Inactive)
REMARK    1  A    between atoms: C_2  and  C_10
REMARK    2  A    between atoms: N_3  and  C_4
REMARK                            x       y       z     vdW  Elec       q    Type
REMARK                         _______ _______ _______ _____ _____    ______ ____
ROOT
ATOM      1  O   UNL     1       4.250   5.216  19.796  0.00  0.00    +0.000 OA
ATOM      2  C   UNL     1       3.586   5.209  18.767  0.00  0.00    +0.000 C 
ATOM      3  N   UNL     1       4.145   5.424  17.524  0.00  0.00    +0.000 N 
ATOM      4  H   UNL     1       3.541   5.693  16.755  0.00  0.00    +0.000 HD
ENDROOT
BRANCH   3   5
ATOM      5  C   UNL     1       5.573   5.628  17.354  0.00  0.00    +0.000 C 
ATOM      6  C   UNL     1       6.400   4.356  17.358  0.00  0.00    +0.000 C 
ATOM      7  O   UNL     1       7.603   4.663  16.635  0.00  0.00    +0.000 OA
ATOM      8  N   UNL     1       7.242   5.703  15.736  0.00  0.00    +0.000 N 
ATOM      9  C   UNL     1       5.952   6.128  15.977  0.00  0.00    +0.000 C 
ATOM     10  O   UNL     1       5.270   6.813  15.237  0.00  0.00    +0.000 OA
ATOM     11  H   UNL     1       7.653   5.714  14.809  0.00  0.00    +0.000 HD
ENDBRANCH   3   5
BRANCH   2  12
ATOM     12  C   UNL     1       2.080   4.930  18.718  0.00  0.00    +0.000 C 
ATOM     13  C   UNL     1       1.751   3.913  17.614  0.00  0.00    +0.000 C 
ATOM     14  C   UNL     1       2.202   2.503  17.986  0.00  0.00    +0.000 C 
ATOM     15  C   UNL     1       1.557   2.051  19.289  0.00  0.00    +0.000 C 
ATOM     16  C   UNL     1       1.848   3.021  20.428  0.00  0.00    +0.000 C 
ATOM     17  C   UNL     1       1.501   4.468  20.066  0.00  0.00    +0.000 C 
ENDBRANCH   2  12
TORSDOF 2
ENDMDL
MODEL 5
REMARK VINA RESULT:      -7.0      1.414      2.203
REMARK  Name = 
REMARK  2 active torsions:
REMARK  status: ('A' for Active; 'I' for Inactive)
REMARK    1  A    between atoms: C_2  and  C_10
REMARK    2  A    between atoms: N_3  and  C_4
REMARK                            x       y       z     vdW  Elec       q    Type
REMARK                         _______ _______ _______ _____ _____    ______ ____
ROOT
ATOM      1  O   UNL     1       5.160   3.428  19.484  0.00  0.00    +0.000 OA
ATOM      2  C   UNL     1       4.506   4.375  19.065  0.00  0.00    +0.000 C 
ATOM      3  N   UNL     1       4.894   5.115  17.966  0.00  0.00    +0.000 N 
ATOM      4  H   UNL     1       4.496   6.037  17.833  0.00  0.00    +0.000 HD
ENDROOT
BRANCH   3   5
ATOM      5  C   UNL     1       6.086   4.784  17.206  0.00  0.00    +0.000 C 
ATOM      6  C   UNL     1       5.834   3.960  15.957  0.00  0.00    +0.000 C 
ATOM      7  O   UNL     1       6.943   4.218  15.081  0.00  0.00    +0.000 OA
ATOM      8  N   UNL     1       7.400   5.517  15.432  0.00  0.00    +0.000 N 
ATOM      9  C   UNL     1       6.733   5.982  16.547  0.00  0.00    +0.000 C 
ATOM     10  O   UNL     1       6.711   7.133  16.943  0.00  0.00    +0.000 OA
ATOM     11  H   UNL     1       7.730   6.136  14.700  0.00  0.00    +0.000 HD
ENDBRANCH   3   5
BRANCH   2  12
ATOM     12  C   UNL     1       3.176   4.835  19.671  0.00  0.00    +0.000 C 
ATOM     13  C   UNL     1       2.150   5.136  18.566  0.00  0.00    +0.000 C 
ATOM     14  C   UNL     1       1.636   3.860  17.904  0.00  0.00    +0.000 C 
ATOM     15  C   UNL     1       1.004   2.930  18.931  0.00  0.00    +0.000 C 
ATOM     16  C   UNL     1       1.976   2.592  20.056  0.00  0.00    +0.000 C 
ATOM     17  C   UNL     1       2.593   3.841  20.690  0.00  0.00    +0.000 C 
ENDBRANCH   2  12
TORSDOF 2
ENDMDL
MODEL 6
REMARK VINA RESULT:      -7.0      1.167      1.870
REMARK  Name = 
REMARK  2 active torsions:
REMARK  status: ('A' for Active; 'I' for Inactive)
REMARK    1  A    between atoms: C_2  and  C_10
REMARK    2  A    between atoms: N_3  and  C_4
REMARK                            x       y       z     vdW  Elec       q    Type
REMARK                         _______ _______ _______ _____ _____    ______ ____
ROOT
ATOM      1  O   UNL     1       4.870   2.895  19.723  0.00  0.00    +0.000 OA
ATOM      2  C   UNL     1       4.303   3.902  19.316  0.00  0.00    +0.000 C 
ATOM      3  N   UNL     1       4.675   4.541  18.150  0.00  0.00    +0.000 N 
ATOM      4  H   UNL     1       4.386   5.502  18.005  0.00  0.00    +0.000 HD
ENDROOT
BRANCH   3   5
ATOM      5  C   UNL     1       5.740   4.029  17.305  0.00  0.00    +0.000 C 
ATOM      6  C   UNL     1       5.663   4.466  15.854  0.00  0.00    +0.000 C 
ATOM      7  O   UNL     1       7.003   4.378  15.342  0.00  0.00    +0.000 OA
ATOM      8  N   UNL     1       7.846   4.559  16.472  0.00  0.00    +0.000 N 
ATOM      9  C   UNL     1       7.100   4.603  17.632  0.00  0.00    +0.000 C 
ATOM     10  O   UNL     1       7.486   4.991  18.720  0.00  0.00    +0.000 OA
ATOM     11  H   UNL     1       8.710   5.078  16.362  0.00  0.00    +0.000 HD
ENDBRANCH   3   5
BRANCH   2  12
ATOM     12  C   UNL     1       3.105   4.555  20.012  0.00  0.00    +0.000 C 
ATOM     13  C   UNL     1       2.036   4.965  18.986  0.00  0.00    +0.000 C 
ATOM     14  C   UNL     1       1.300   3.755  18.416  0.00  0.00    +0.000 C 
ATOM     15  C   UNL     1       0.642   2.946  19.526  0.00  0.00    +0.000 C 
ATOM     16  C   UNL     1       1.654   2.507  20.579  0.00  0.00    +0.000 C 
ATOM     17  C   UNL     1       2.486   3.676  21.112  0.00  0.00    +0.000 C 
ENDBRANCH   2  12
TORSDOF 2
ENDMDL
MODEL 7
REMARK VINA RESULT:      -6.9      1.386      2.112
REMARK  Name = 
REMARK  2 active torsions:
REMARK  status: ('A' for Active; 'I' for Inactive)
REMARK    1  A    between atoms: C_2  and  C_10
REMARK    2  A    between atoms: N_3  and  C_4
REMARK                            x       y       z     vdW  Elec       q    Type
REMARK                         _______ _______ _______ _____ _____    ______ ____
ROOT
ATOM      1  O   UNL     1       3.903   2.620  17.652  0.00  0.00    +0.000 OA
ATOM      2  C   UNL     1       4.347   3.498  18.381  0.00  0.00    +0.000 C 
ATOM      3  N   UNL     1       5.268   4.429  17.943  0.00  0.00    +0.000 N 
ATOM      4  H   UNL     1       5.813   4.938  18.629  0.00  0.00    +0.000 HD
ENDROOT
BRANCH   3   5
ATOM      5  C   UNL     1       5.735   4.452  16.568  0.00  0.00    +0.000 C 
ATOM      6  C   UNL     1       5.325   5.682  15.780  0.00  0.00    +0.000 C 
ATOM      7  O   UNL     1       6.293   5.818  14.727  0.00  0.00    +0.000 OA
ATOM      8  N   UNL     1       7.477   5.213  15.228  0.00  0.00    +0.000 N 
ATOM      9  C   UNL     1       7.234   4.604  16.442  0.00  0.00    +0.000 C 
ATOM     10  O   UNL     1       8.076   4.223  17.236  0.00  0.00    +0.000 OA
ATOM     11  H   UNL     1       8.374   5.625  14.997  0.00  0.00    +0.000 HD
ENDBRANCH   3   5
BRANCH   2  12
ATOM     12  C   UNL     1       3.923   3.701  19.839  0.00  0.00    +0.000 C 
ATOM     13  C   UNL     1       3.147   5.018  20.002  0.00  0.00    +0.000 C 
ATOM     14  C   UNL     1       1.748   4.932  19.397  0.00  0.00    +0.000 C 
ATOM     15  C   UNL     1       0.949   3.802  20.031  0.00  0.00    +0.000 C 
ATOM     16  C   UNL     1       1.668   2.463  19.901  0.00  0.00    +0.000 C 
ATOM     17  C   UNL     1       3.111   2.524  20.407  0.00  0.00    +0.000 C 
ENDBRANCH   2  12
TORSDOF 2
ENDMDL
MODEL 8
REMARK VINA RESULT:      -6.9      1.324      1.359
REMARK  Name = 
REMARK  2 active torsions:
REMARK  status: ('A' for Active; 'I' for Inactive)
REMARK    1  A    between atoms: C_2  and  C_10
REMARK    2  A    between atoms: N_3  and  C_4
REMARK                            x       y       z     vdW  Elec       q    Type
REMARK                         _______ _______ _______ _____ _____    ______ ____
ROOT
ATOM      1  O   UNL     1       4.640   3.571  18.662  0.00  0.00    +0.000 OA
ATOM      2  C   UNL     1       4.015   3.692  17.615  0.00  0.00    +0.000 C 
ATOM      3  N   UNL     1       4.603   4.144  16.450  0.00  0.00    +0.000 N 
ATOM      4  H   UNL     1       4.009   4.496  15.708  0.00  0.00    +0.000 HD
ENDROOT
BRANCH   3   5
ATOM      5  C   UNL     1       6.018   4.463  16.383  0.00  0.00    +0.000 C 
ATOM      6  C   UNL     1       6.610   4.428  14.986  0.00  0.00    +0.000 C 
ATOM      7  O   UNL     1       7.763   5.284  15.024  0.00  0.00    +0.000 OA
ATOM      8  N   UNL     1       7.492   6.230  16.048  0.00  0.00    +0.000 N 
ATOM      9  C   UNL     1       6.327   5.906  16.713  0.00  0.00    +0.000 C 
ATOM     10  O   UNL     1       5.698   6.635  17.458  0.00  0.00    +0.000 OA
ATOM     11  H   UNL     1       7.797   7.189  15.924  0.00  0.00    +0.000 HD
ENDBRANCH   3   5
BRANCH   2  12
ATOM     12  C   UNL     1       2.536   3.329  17.450  0.00  0.00    +0.000 C 
ATOM     13  C   UNL     1       2.208   2.026  18.196  0.00  0.00    +0.000 C 
ATOM     14  C   UNL     1       2.197   2.224  19.710  0.00  0.00    +0.000 C 
ATOM     15  C   UNL     1       1.191   3.295  20.111  0.00  0.00    +0.000 C 
ATOM     16  C   UNL     1       1.464   4.618  19.403  0.00  0.00    +0.000 C 
ATOM     17  C   UNL     1       1.581   4.454  17.885  0.00  0.00    +0.000 C 
ENDBRANCH   2  12
TORSDOF 2
ENDMDL
MODEL 9
REMARK VINA RESULT:      -6.9      2.035      5.335
REMARK  Name = 
REMARK  2 active torsions:
REMARK  status: ('A' for Active; 'I' for Inactive)
REMARK    1  A    between atoms: C_2  and  C_10
REMARK    2  A    between atoms: N_3  and  C_4
REMARK                            x       y       z     vdW  Elec       q    Type
REMARK                         _______ _______ _______ _____ _____    ______ ____
ROOT
ATOM      1  O   UNL     1       5.565   3.862  19.302  0.00  0.00    +0.000 OA
ATOM      2  C   UNL     1       5.356   4.028  18.106  0.00  0.00    +0.000 C 
ATOM      3  N   UNL     1       4.110   3.849  17.540  0.00  0.00    +0.000 N 
ATOM      4  H   UNL     1       4.042   3.714  16.538  0.00  0.00    +0.000 HD
ENDROOT
BRANCH   3   5
ATOM      5  C   UNL     1       2.952   3.494  18.341  0.00  0.00    +0.000 C 
ATOM      6  C   UNL     1       1.615   3.856  17.720  0.00  0.00    +0.000 C 
ATOM      7  O   UNL     1       0.652   2.967  18.308  0.00  0.00    +0.000 OA
ATOM      8  N   UNL     1       1.386   1.805  18.666  0.00  0.00    +0.000 N 
ATOM      9  C   UNL     1       2.736   2.002  18.463  0.00  0.00    +0.000 C 
ATOM     10  O   UNL     1       3.593   1.136  18.434  0.00  0.00    +0.000 OA
ATOM     11  H   UNL     1       0.948   0.896  18.563  0.00  0.00    +0.000 HD
ENDBRANCH   3   5
BRANCH   2  12
ATOM     12  C   UNL     1       6.420   4.485  17.103  0.00  0.00    +0.000 C 
ATOM     13  C   UNL     1       5.902   5.658  16.256  0.00  0.00    +0.000 C 
ATOM     14  C   UNL     1       5.823   6.951  17.063  0.00  0.00    +0.000 C 
ATOM     15  C   UNL     1       7.183   7.316  17.641  0.00  0.00    +0.000 C 
ATOM     16  C   UNL     1       7.753   6.189  18.496  0.00  0.00    +0.000 C 
ATOM     17  C   UNL     1       7.763   4.847  17.761  0.00  0.00    +0.000 C 
ENDBRANCH   2  12
TORSDOF 2
ENDMDL
