MODEL 1
REMARK VINA RESULT:      -8.1      0.000      0.000
REMARK  Name = 
REMARK  2 active torsions:
REMARK  status: ('A' for Active; 'I' for Inactive)
REMARK    1  A    between atoms: N_3  and  N_4
REMARK    2  A    between atoms: N_12  and  C_13
REMARK                            x       y       z     vdW  Elec       q    Type
REMARK                         _______ _______ _______ _____ _____    ______ ____
ROOT
ATOM      1  O   UNL     1       7.261   5.339  17.924  0.00  0.00    +0.000 OA
ATOM      2  C   UNL     1       6.406   4.467  17.838  0.00  0.00    +0.000 C 
ATOM      3  N   UNL     1       5.770   3.983  18.967  0.00  0.00    +0.000 N 
ATOM      4  N   UNL     1       5.947   3.867  16.685  0.00  0.00    +0.000 N 
ATOM      5  H   UNL     1       5.997   4.350  19.891  0.00  0.00    +0.000 HD
ATOM      6  H   UNL     1       5.068   3.389  16.829  0.00  0.00    +0.000 HD
ENDROOT
BRANCH   3   7
ATOM      7  N   UNL     1       4.910   2.860  18.910  0.00  0.00    +0.000 N 
ATOM      8  C   UNL     1       3.578   3.214  19.272  0.00  0.00    +0.000 A 
ATOM      9  C   UNL     1       2.601   2.219  19.195  0.00  0.00    +0.000 A 
ATOM     10  C   UNL     1       1.294   2.513  19.578  0.00  0.00    +0.000 A 
ATOM     11  C   UNL     1       1.002   3.786  20.041  0.00  0.00    +0.000 A 
ATOM     12  C   UNL     1       2.031   4.712  20.082  0.00  0.00    +0.000 A 
ATOM     13 CL   UNL     1       1.758   6.301  20.668  0.00  0.00    +0.000 Cl
ATOM     14  N   UNL     1       3.302   4.465  19.705  0.00  0.00    +0.000 NA
ATOM     15  H   UNL     1       5.207   2.153  19.587  0.00  0.00    +0.000 HD
ENDBRANCH   3   7
BRANCH   4  16
ATOM     16  C   UNL     1       6.368   4.099  15.367  0.00  0.00    +0.000 A 
ATOM     17  C   UNL     1       7.384   4.998  15.030  0.00  0.00    +0.000 A 
ATOM     18  C   UNL     1       7.710   5.220  13.689  0.00  0.00    +0.000 A 
ATOM     19  C   UNL     1       7.022   4.540  12.693  0.00  0.00    +0.000 A 
ATOM     20  F   UNL     1       7.314   4.776  11.407  0.00  0.00    +0.000 F 
ATOM     21  C   UNL     1       6.032   3.619  13.012  0.00  0.00    +0.000 A 
ATOM     22  C   UNL     1       5.714   3.389  14.351  0.00  0.00    +0.000 A 
ENDBRANCH   4  16
TORSDOF 2
ENDMDL
MODEL 2
REMARK VINA RESULT:      -8.1      0.179      1.122
REMARK  Name = 
REMARK  2 active torsions:
REMARK  status: ('A' for Active; 'I' for Inactive)
REMARK    1  A    between atoms: N_3  and  N_4
REMARK    2  A    between atoms: N_12  and  C_13
REMARK                            x       y       z     vdW  Elec       q    Type
REMARK                         _______ _______ _______ _____ _____    ______ ____
ROOT
ATOM      1  O   UNL     1       7.174   5.498  17.768  0.00  0.00    +0.000 OA
ATOM      2  C   UNL     1       6.361   4.582  17.780  0.00  0.00    +0.000 C 
ATOM      3  N   UNL     1       5.828   4.124  18.970  0.00  0.00    +0.000 N 
ATOM      4  N   UNL     1       5.858   3.906  16.689  0.00  0.00    +0.000 N 
ATOM      5  H   UNL     1       6.097   4.544  19.860  0.00  0.00    +0.000 HD
ATOM      6  H   UNL     1       5.016   3.395  16.915  0.00  0.00    +0.000 HD
ENDROOT
BRANCH   3   7
ATOM      7  N   UNL     1       5.024   2.958  19.023  0.00  0.00    +0.000 N 
ATOM      8  C   UNL     1       3.689   3.272  19.406  0.00  0.00    +0.000 A 
ATOM      9  C   UNL     1       2.762   2.229  19.434  0.00  0.00    +0.000 A 
ATOM     10  C   UNL     1       1.454   2.486  19.841  0.00  0.00    +0.000 A 
ATOM     11  C   UNL     1       1.113   3.773  20.223  0.00  0.00    +0.000 A 
ATOM     12  C   UNL     1       2.094   4.748  20.162  0.00  0.00    +0.000 A 
ATOM     13 CL   UNL     1       1.760   6.360  20.645  0.00  0.00    +0.000 Cl
ATOM     14  N   UNL     1       3.363   4.536  19.759  0.00  0.00    +0.000 NA
ATOM     15  H   UNL     1       5.379   2.318  19.738  0.00  0.00    +0.000 HD
ENDBRANCH   3   7
BRANCH   4  16
ATOM     16  C   UNL     1       6.178   4.095  15.337  0.00  0.00    +0.000 A 
ATOM     17  C   UNL     1       5.496   3.469  14.289  0.00  0.00    +0.000 A 
ATOM     18  C   UNL     1       5.909   3.660  12.968  0.00  0.00    +0.000 A 
ATOM     19  C   UNL     1       6.998   4.480  12.699  0.00  0.00    +0.000 A 
ATOM     20  F   UNL     1       7.411   4.640  11.436  0.00  0.00    +0.000 F 
ATOM     21  C   UNL     1       7.665   5.136  13.726  0.00  0.00    +0.000 A 
ATOM     22  C   UNL     1       7.247   4.953  15.045  0.00  0.00    +0.000 A 
ENDBRANCH   4  16
TORSDOF 2
ENDMDL
MODEL 3
REMARK VINA RESULT:      -7.8      4.011      7.469
REMARK  Name = 
REMARK  2 active torsions:
REMARK  status: ('A' for Active; 'I' for Inactive)
REMARK    1  A    between atoms: N_3  and  N_4
REMARK    2  A    between atoms: N_12  and  C_13
REMARK                            x       y       z     vdW  Elec       q    Type
REMARK                         _______ _______ _______ _____ _____    ______ ____
ROOT
ATOM      1  O   UNL     1       5.520   5.610  18.556  0.00  0.00    +0.000 OA
ATOM      2  C   UNL     1       5.103   4.856  17.686  0.00  0.00    +0.000 C 
ATOM      3  N   UNL     1       5.632   4.886  16.408  0.00  0.00    +0.000 N 
ATOM      4  N   UNL     1       4.117   3.902  17.818  0.00  0.00    +0.000 N 
ATOM      5  H   UNL     1       6.384   5.533  16.170  0.00  0.00    +0.000 HD
ATOM      6  H   UNL     1       4.136   3.229  17.065  0.00  0.00    +0.000 HD
ENDROOT
BRANCH   3   7
ATOM      7  N   UNL     1       5.051   4.150  15.347  0.00  0.00    +0.000 N 
ATOM      8  C   UNL     1       5.868   4.198  14.181  0.00  0.00    +0.000 A 
ATOM      9  C   UNL     1       5.454   3.458  13.072  0.00  0.00    +0.000 A 
ATOM     10  C   UNL     1       6.203   3.509  11.898  0.00  0.00    +0.000 A 
ATOM     11  C   UNL     1       7.336   4.307  11.860  0.00  0.00    +0.000 A 
ATOM     12  C   UNL     1       7.674   5.004  13.007  0.00  0.00    +0.000 A 
ATOM     13 CL   UNL     1       9.044   6.037  13.034  0.00  0.00    +0.000 Cl
ATOM     14  N   UNL     1       6.980   4.966  14.162  0.00  0.00    +0.000 NA
ATOM     15  H   UNL     1       4.154   4.565  15.080  0.00  0.00    +0.000 HD
ENDBRANCH   3   7
BRANCH   4  16
ATOM     16  C   UNL     1       3.360   3.599  18.960  0.00  0.00    +0.000 A 
ATOM     17  C   UNL     1       3.855   2.865  20.041  0.00  0.00    +0.000 A 
ATOM     18  C   UNL     1       3.023   2.553  21.119  0.00  0.00    +0.000 A 
ATOM     19  C   UNL     1       1.701   2.979  21.114  0.00  0.00    +0.000 A 
ATOM     20  F   UNL     1       0.896   2.654  22.133  0.00  0.00    +0.000 F 
ATOM     21  C   UNL     1       1.202   3.738  20.062  0.00  0.00    +0.000 A 
ATOM     22  C   UNL     1       2.036   4.059  18.990  0.00  0.00    +0.000 A 
ENDBRANCH   4  16
TORSDOF 2
ENDMDL
MODEL 4
REMARK VINA RESULT:      -7.8      1.235      1.253
REMARK  Name = 
REMARK  2 active torsions:
REMARK  status: ('A' for Active; 'I' for Inactive)
REMARK    1  A    between atoms: N_3  and  N_4
REMARK    2  A    between atoms: N_12  and  C_13
REMARK                            x       y       z     vdW  Elec       q    Type
REMARK                         _______ _______ _______ _____ _____    ______ ____
ROOT
ATOM      1  O   UNL     1       7.864   5.227  17.603  0.00  0.00    +0.000 OA
ATOM      2  C   UNL     1       6.869   4.513  17.572  0.00  0.00    +0.000 C 
ATOM      3  N   UNL     1       6.246   4.116  18.741  0.00  0.00    +0.000 N 
ATOM      4  N   UNL     1       6.232   4.027  16.452  0.00  0.00    +0.000 N 
ATOM      5  H   UNL     1       6.600   4.417  19.650  0.00  0.00    +0.000 HD
ATOM      6  H   UNL     1       5.298   3.701  16.657  0.00  0.00    +0.000 HD
ENDROOT
BRANCH   3   7
ATOM      7  N   UNL     1       5.206   3.155  18.738  0.00  0.00    +0.000 N 
ATOM      8  C   UNL     1       3.949   3.760  18.450  0.00  0.00    +0.000 A 
ATOM      9  C   UNL     1       2.837   2.922  18.345  0.00  0.00    +0.000 A 
ATOM     10  C   UNL     1       1.582   3.477  18.104  0.00  0.00    +0.000 A 
ATOM     11  C   UNL     1       1.469   4.853  17.989  0.00  0.00    +0.000 A 
ATOM     12  C   UNL     1       2.624   5.609  18.104  0.00  0.00    +0.000 A 
ATOM     13 CL   UNL     1       2.566   7.320  18.003  0.00  0.00    +0.000 Cl
ATOM     14  N   UNL     1       3.854   5.103  18.323  0.00  0.00    +0.000 NA
ATOM     15  H   UNL     1       5.110   2.735  19.666  0.00  0.00    +0.000 HD
ENDBRANCH   3   7
BRANCH   4  16
ATOM     16  C   UNL     1       6.587   4.217  15.108  0.00  0.00    +0.000 A 
ATOM     17  C   UNL     1       7.550   5.140  14.690  0.00  0.00    +0.000 A 
ATOM     18  C   UNL     1       7.810   5.315  13.327  0.00  0.00    +0.000 A 
ATOM     19  C   UNL     1       7.110   4.565  12.391  0.00  0.00    +0.000 A 
ATOM     20  F   UNL     1       7.338   4.754  11.086  0.00  0.00    +0.000 F 
ATOM     21  C   UNL     1       6.174   3.620  12.792  0.00  0.00    +0.000 A 
ATOM     22  C   UNL     1       5.921   3.438  14.153  0.00  0.00    +0.000 A 
ENDBRANCH   4  16
TORSDOF 2
ENDMDL
MODEL 5
REMARK VINA RESULT:      -7.7      1.219      1.664
REMARK  Name = 
REMARK  2 active torsions:
REMARK  status: ('A' for Active; 'I' for Inactive)
REMARK    1  A    between atoms: N_3  and  N_4
REMARK    2  A    between atoms: N_12  and  C_13
REMARK                            x       y       z     vdW  Elec       q    Type
REMARK                         _______ _______ _______ _____ _____    ______ ____
ROOT
ATOM      1  O   UNL     1       7.858   5.143  17.474  0.00  0.00    +0.000 OA
ATOM      2  C   UNL     1       6.845   4.456  17.515  0.00  0.00    +0.000 C 
ATOM      3  N   UNL     1       6.290   4.083  18.726  0.00  0.00    +0.000 N 
ATOM      4  N   UNL     1       6.122   3.980  16.443  0.00  0.00    +0.000 N 
ATOM      5  H   UNL     1       6.711   4.379  19.606  0.00  0.00    +0.000 HD
ATOM      6  H   UNL     1       5.195   3.681  16.713  0.00  0.00    +0.000 HD
ENDROOT
BRANCH   3   7
ATOM      7  N   UNL     1       5.227   3.150  18.798  0.00  0.00    +0.000 N 
ATOM      8  C   UNL     1       3.976   3.775  18.527  0.00  0.00    +0.000 A 
ATOM      9  C   UNL     1       2.841   2.963  18.495  0.00  0.00    +0.000 A 
ATOM     10  C   UNL     1       1.593   3.540  18.273  0.00  0.00    +0.000 A 
ATOM     11  C   UNL     1       1.510   4.913  18.103  0.00  0.00    +0.000 A 
ATOM     12  C   UNL     1       2.686   5.642  18.147  0.00  0.00    +0.000 A 
ATOM     13 CL   UNL     1       2.667   7.348  17.974  0.00  0.00    +0.000 Cl
ATOM     14  N   UNL     1       3.911   5.113  18.345  0.00  0.00    +0.000 NA
ATOM     15  H   UNL     1       5.153   2.772  19.747  0.00  0.00    +0.000 HD
ENDBRANCH   3   7
BRANCH   4  16
ATOM     16  C   UNL     1       6.392   4.153  15.077  0.00  0.00    +0.000 A 
ATOM     17  C   UNL     1       5.744   3.437  14.067  0.00  0.00    +0.000 A 
ATOM     18  C   UNL     1       6.108   3.622  12.730  0.00  0.00    +0.000 A 
ATOM     19  C   UNL     1       7.114   4.524  12.409  0.00  0.00    +0.000 A 
ATOM     20  F   UNL     1       7.482   4.679  11.131  0.00  0.00    +0.000 F 
ATOM     21  C   UNL     1       7.745   5.268  13.398  0.00  0.00    +0.000 A 
ATOM     22  C   UNL     1       7.374   5.091  14.732  0.00  0.00    +0.000 A 
ENDBRANCH   4  16
TORSDOF 2
ENDMDL
MODEL 6
REMARK VINA RESULT:      -7.6      4.016      7.497
REMARK  Name = 
REMARK  2 active torsions:
REMARK  status: ('A' for Active; 'I' for Inactive)
REMARK    1  A    between atoms: N_3  and  N_4
REMARK    2  A    between atoms: N_12  and  C_13
REMARK                            x       y       z     vdW  Elec       q    Type
REMARK                         _______ _______ _______ _____ _____    ______ ____
ROOT
ATOM      1  O   UNL     1       5.492   5.720  18.535  0.00  0.00    +0.000 OA
ATOM      2  C   UNL     1       5.091   4.946  17.676  0.00  0.00    +0.000 C 
ATOM      3  N   UNL     1       5.662   4.927  16.416  0.00  0.00    +0.000 N 
ATOM      4  N   UNL     1       4.084   4.014  17.805  0.00  0.00    +0.000 N 
ATOM      5  H   UNL     1       6.432   5.553  16.183  0.00  0.00    +0.000 HD
ATOM      6  H   UNL     1       4.116   3.317  17.074  0.00  0.00    +0.000 HD
ENDROOT
BRANCH   3   7
ATOM      7  N   UNL     1       5.102   4.167  15.360  0.00  0.00    +0.000 N 
ATOM      8  C   UNL     1       5.925   4.220  14.198  0.00  0.00    +0.000 A 
ATOM      9  C   UNL     1       5.534   3.460  13.094  0.00  0.00    +0.000 A 
ATOM     10  C   UNL     1       6.289   3.514  11.924  0.00  0.00    +0.000 A 
ATOM     11  C   UNL     1       7.404   4.336  11.884  0.00  0.00    +0.000 A 
ATOM     12  C   UNL     1       7.721   5.053  13.025  0.00  0.00    +0.000 A 
ATOM     13 CL   UNL     1       9.068   6.114  13.049  0.00  0.00    +0.000 Cl
ATOM     14  N   UNL     1       7.021   5.012  14.177  0.00  0.00    +0.000 NA
ATOM     15  H   UNL     1       4.199   4.561  15.083  0.00  0.00    +0.000 HD
ENDBRANCH   3   7
BRANCH   4  16
ATOM     16  C   UNL     1       3.285   3.760  18.929  0.00  0.00    +0.000 A 
ATOM     17  C   UNL     1       2.111   4.463  19.214  0.00  0.00    +0.000 A 
ATOM     18  C   UNL     1       1.397   4.194  20.385  0.00  0.00    +0.000 A 
ATOM     19  C   UNL     1       1.857   3.220  21.263  0.00  0.00    +0.000 A 
ATOM     20  F   UNL     1       1.188   2.983  22.399  0.00  0.00    +0.000 F 
ATOM     21  C   UNL     1       3.003   2.490  20.978  0.00  0.00    +0.000 A 
ATOM     22  C   UNL     1       3.711   2.751  19.804  0.00  0.00    +0.000 A 
ENDBRANCH   4  16
TORSDOF 2
ENDMDL
MODEL 7
REMARK VINA RESULT:      -7.5      4.217      7.331
REMARK  Name = 
REMARK  2 active torsions:
REMARK  status: ('A' for Active; 'I' for Inactive)
REMARK    1  A    between atoms: N_3  and  N_4
REMARK    2  A    between atoms: N_12  and  C_13
REMARK                            x       y       z     vdW  Elec       q    Type
REMARK                         _______ _______ _______ _____ _____    ______ ____
ROOT
ATOM      1  O   UNL     1       3.604   3.210  17.640  0.00  0.00    +0.000 OA
ATOM      2  C   UNL     1       4.428   3.989  17.178  0.00  0.00    +0.000 C 
ATOM      3  N   UNL     1       5.433   3.542  16.340  0.00  0.00    +0.000 N 
ATOM      4  N   UNL     1       4.487   5.351  17.381  0.00  0.00    +0.000 N 
ATOM      5  H   UNL     1       5.502   2.556  16.087  0.00  0.00    +0.000 HD
ATOM      6  H   UNL     1       5.068   5.813  16.695  0.00  0.00    +0.000 HD
ENDROOT
BRANCH   3   7
ATOM      7  N   UNL     1       6.493   4.389  15.935  0.00  0.00    +0.000 N 
ATOM      8  C   UNL     1       6.664   4.359  14.521  0.00  0.00    +0.000 A 
ATOM      9  C   UNL     1       7.632   5.201  13.969  0.00  0.00    +0.000 A 
ATOM     10  C   UNL     1       7.859   5.173  12.595  0.00  0.00    +0.000 A 
ATOM     11  C   UNL     1       7.124   4.296  11.812  0.00  0.00    +0.000 A 
ATOM     12  C   UNL     1       6.183   3.499  12.442  0.00  0.00    +0.000 A 
ATOM     13 CL   UNL     1       5.253   2.368  11.550  0.00  0.00    +0.000 Cl
ATOM     14  N   UNL     1       5.929   3.512  13.767  0.00  0.00    +0.000 NA
ATOM     15  H   UNL     1       7.377   4.062  16.333  0.00  0.00    +0.000 HD
ENDBRANCH   3   7
BRANCH   4  16
ATOM     16  C   UNL     1       3.642   6.140  18.175  0.00  0.00    +0.000 A 
ATOM     17  C   UNL     1       3.180   5.749  19.434  0.00  0.00    +0.000 A 
ATOM     18  C   UNL     1       2.292   6.564  20.142  0.00  0.00    +0.000 A 
ATOM     19  C   UNL     1       1.874   7.768  19.590  0.00  0.00    +0.000 A 
ATOM     20  F   UNL     1       1.001   8.534  20.256  0.00  0.00    +0.000 F 
ATOM     21  C   UNL     1       2.350   8.187  18.354  0.00  0.00    +0.000 A 
ATOM     22  C   UNL     1       3.244   7.378  17.651  0.00  0.00    +0.000 A 
ENDBRANCH   4  16
TORSDOF 2
ENDMDL
MODEL 8
REMARK VINA RESULT:      -7.4      1.935      2.252
REMARK  Name = 
REMARK  2 active torsions:
REMARK  status: ('A' for Active; 'I' for Inactive)
REMARK    1  A    between atoms: N_3  and  N_4
REMARK    2  A    between atoms: N_12  and  C_13
REMARK                            x       y       z     vdW  Elec       q    Type
REMARK                         _______ _______ _______ _____ _____    ______ ____
ROOT
ATOM      1  O   UNL     1       7.839   4.422  17.351  0.00  0.00    +0.000 OA
ATOM      2  C   UNL     1       6.772   5.002  17.196  0.00  0.00    +0.000 C 
ATOM      3  N   UNL     1       6.078   5.511  18.279  0.00  0.00    +0.000 N 
ATOM      4  N   UNL     1       6.127   5.246  16.003  0.00  0.00    +0.000 N 
ATOM      5  H   UNL     1       6.447   5.419  19.225  0.00  0.00    +0.000 HD
ATOM      6  H   UNL     1       5.422   5.964  16.093  0.00  0.00    +0.000 HD
ENDROOT
BRANCH   3   7
ATOM      7  N   UNL     1       4.767   6.028  18.142  0.00  0.00    +0.000 N 
ATOM      8  C   UNL     1       3.795   4.989  18.221  0.00  0.00    +0.000 A 
ATOM      9  C   UNL     1       2.449   5.358  18.172  0.00  0.00    +0.000 A 
ATOM     10  C   UNL     1       1.467   4.370  18.206  0.00  0.00    +0.000 A 
ATOM     11  C   UNL     1       1.856   3.042  18.274  0.00  0.00    +0.000 A 
ATOM     12  C   UNL     1       3.212   2.766  18.322  0.00  0.00    +0.000 A 
ATOM     13 CL   UNL     1       3.776   1.147  18.378  0.00  0.00    +0.000 Cl
ATOM     14  N   UNL     1       4.186   3.698  18.305  0.00  0.00    +0.000 NA
ATOM     15  H   UNL     1       4.650   6.454  17.219  0.00  0.00    +0.000 HD
ENDBRANCH   3   7
BRANCH   4  16
ATOM     16  C   UNL     1       6.531   4.870  14.713  0.00  0.00    +0.000 A 
ATOM     17  C   UNL     1       7.584   5.480  14.027  0.00  0.00    +0.000 A 
ATOM     18  C   UNL     1       7.891   5.090  12.720  0.00  0.00    +0.000 A 
ATOM     19  C   UNL     1       7.147   4.089  12.108  0.00  0.00    +0.000 A 
ATOM     20  F   UNL     1       7.423   3.736  10.847  0.00  0.00    +0.000 F 
ATOM     21  C   UNL     1       6.119   3.450  12.789  0.00  0.00    +0.000 A 
ATOM     22  C   UNL     1       5.818   3.832  14.097  0.00  0.00    +0.000 A 
ENDBRANCH   4  16
TORSDOF 2
ENDMDL
MODEL 9
REMARK VINA RESULT:      -7.4      1.021      1.191
REMARK  Name = 
REMARK  2 active torsions:
REMARK  status: ('A' for Active; 'I' for Inactive)
REMARK    1  A    between atoms: N_3  and  N_4
REMARK    2  A    between atoms: N_12  and  C_13
REMARK                            x       y       z     vdW  Elec       q    Type
REMARK                         _______ _______ _______ _____ _____    ______ ____
ROOT
ATOM      1  O   UNL     1       7.539   6.619  16.894  0.00  0.00    +0.000 OA
ATOM      2  C   UNL     1       6.965   5.567  17.144  0.00  0.00    +0.000 C 
ATOM      3  N   UNL     1       6.580   5.259  18.437  0.00  0.00    +0.000 N 
ATOM      4  N   UNL     1       6.613   4.581  16.248  0.00  0.00    +0.000 N 
ATOM      5  H   UNL     1       6.761   5.907  19.203  0.00  0.00    +0.000 HD
ATOM      6  H   UNL     1       5.920   3.951  16.629  0.00  0.00    +0.000 HD
ENDROOT
BRANCH   3   7
ATOM      7  N   UNL     1       6.075   3.980  18.776  0.00  0.00    +0.000 N 
ATOM      8  C   UNL     1       4.728   4.065  19.233  0.00  0.00    +0.000 A 
ATOM      9  C   UNL     1       4.074   2.870  19.539  0.00  0.00    +0.000 A 
ATOM     10  C   UNL     1       2.770   2.911  20.028  0.00  0.00    +0.000 A 
ATOM     11  C   UNL     1       2.160   4.142  20.210  0.00  0.00    +0.000 A 
ATOM     12  C   UNL     1       2.881   5.276  19.878  0.00  0.00    +0.000 A 
ATOM     13 CL   UNL     1       2.210   6.839  20.101  0.00  0.00    +0.000 Cl
ATOM     14  N   UNL     1       4.139   5.271  19.390  0.00  0.00    +0.000 NA
ATOM     15  H   UNL     1       6.611   3.584  19.552  0.00  0.00    +0.000 HD
ENDBRANCH   3   7
BRANCH   4  16
ATOM     16  C   UNL     1       6.851   4.549  14.866  0.00  0.00    +0.000 A 
ATOM     17  C   UNL     1       7.812   5.341  14.232  0.00  0.00    +0.000 A 
ATOM     18  C   UNL     1       7.953   5.297  12.842  0.00  0.00    +0.000 A 
ATOM     19  C   UNL     1       7.135   4.460  12.093  0.00  0.00    +0.000 A 
ATOM     20  F   UNL     1       7.250   4.440  10.760  0.00  0.00    +0.000 F 
ATOM     21  C   UNL     1       6.198   3.642  12.712  0.00  0.00    +0.000 A 
ATOM     22  C   UNL     1       6.064   3.678  14.101  0.00  0.00    +0.000 A 
ENDBRANCH   4  16
TORSDOF 2
ENDMDL
