MODEL 1
REMARK VINA RESULT:      -8.4      0.000      0.000
REMARK  Name = 
REMARK  4 active torsions:
REMARK  status: ('A' for Active; 'I' for Inactive)
REMARK    1  A    between atoms: C_1  and  S_2
REMARK    2  A    between atoms: S_2  and  C_5
REMARK    3  A    between atoms: C_8  and  C_9
REMARK    4  A    between atoms: N_14  and  C_15
REMARK                            x       y       z     vdW  Elec       q    Type
REMARK                         _______ _______ _______ _____ _____    ______ ____
ROOT
ATOM      1  C   UNL     1       5.412   4.183  15.776  0.00  0.00    +0.000 A 
ATOM      2  C   UNL     1       5.311   3.702  14.543  0.00  0.00    +0.000 A 
ATOM      3  O   UNL     1       6.315   4.129  13.678  0.00  0.00    +0.000 OA
ATOM      4  C   UNL     1       7.066   4.970  14.503  0.00  0.00    +0.000 A 
ATOM      5  O   UNL     1       8.065   5.555  14.104  0.00  0.00    +0.000 OA
ATOM      6  N   UNL     1       6.519   4.983  15.787  0.00  0.00    +0.000 N 
ENDROOT
BRANCH   1  10
ATOM      7  C   UNL     1       2.588   3.894  18.933  0.00  0.00    +0.000 A 
ATOM      8  C   UNL     1       3.229   2.738  18.478  0.00  0.00    +0.000 A 
ATOM      9  C   UNL     1       4.149   2.828  17.430  0.00  0.00    +0.000 A 
ATOM     10  C   UNL     1       4.434   4.068  16.848  0.00  0.00    +0.000 A 
ATOM     11  C   UNL     1       3.760   5.216  17.297  0.00  0.00    +0.000 A 
ATOM     12  C   UNL     1       2.830   5.132  18.336  0.00  0.00    +0.000 A 
BRANCH   7  14
ATOM     13  C   UNL     1       2.345   2.926  21.527  0.00  0.00    +0.000 C 
ATOM     14  S   UNL     1       1.423   3.779  20.272  0.00  0.00    +0.000 S 
ATOM     15  O   UNL     1       0.343   2.917  19.836  0.00  0.00    +0.000 OA
ATOM     16  O   UNL     1       1.162   5.127  20.738  0.00  0.00    +0.000 OA
ENDBRANCH   7  14
ENDBRANCH   1  10
BRANCH   6  17
ATOM     17  C   UNL     1       7.104   5.664  16.874  0.00  0.00    +0.000 A 
ATOM     18  C   UNL     1       7.549   4.960  17.996  0.00  0.00    +0.000 A 
ATOM     19  C   UNL     1       8.158   5.639  19.055  0.00  0.00    +0.000 A 
ATOM     20  C   UNL     1       8.279   7.028  19.020  0.00  0.00    +0.000 A 
ATOM     21  C   UNL     1       7.804   7.739  17.921  0.00  0.00    +0.000 A 
ATOM     22  C   UNL     1       7.233   7.058  16.845  0.00  0.00    +0.000 A 
ENDBRANCH   6  17
TORSDOF 3
ENDMDL
MODEL 2
REMARK VINA RESULT:      -8.3      0.083      1.462
REMARK  Name = 
REMARK  4 active torsions:
REMARK  status: ('A' for Active; 'I' for Inactive)
REMARK    1  A    between atoms: C_1  and  S_2
REMARK    2  A    between atoms: S_2  and  C_5
REMARK    3  A    between atoms: C_8  and  C_9
REMARK    4  A    between atoms: N_14  and  C_15
REMARK                            x       y       z     vdW  Elec       q    Type
REMARK                         _______ _______ _______ _____ _____    ______ ____
ROOT
ATOM      1  C   UNL     1       5.419   4.185  15.793  0.00  0.00    +0.000 A 
ATOM      2  C   UNL     1       5.311   3.693  14.565  0.00  0.00    +0.000 A 
ATOM      3  O   UNL     1       6.310   4.113  13.690  0.00  0.00    +0.000 OA
ATOM      4  C   UNL     1       7.065   4.962  14.504  0.00  0.00    +0.000 A 
ATOM      5  O   UNL     1       8.061   5.544  14.094  0.00  0.00    +0.000 OA
ATOM      6  N   UNL     1       6.525   4.986  15.790  0.00  0.00    +0.000 N 
ENDROOT
BRANCH   1  10
ATOM      7  C   UNL     1       2.558   3.828  18.909  0.00  0.00    +0.000 A 
ATOM      8  C   UNL     1       2.797   5.081  18.339  0.00  0.00    +0.000 A 
ATOM      9  C   UNL     1       3.748   5.204  17.323  0.00  0.00    +0.000 A 
ATOM     10  C   UNL     1       4.447   4.079  16.871  0.00  0.00    +0.000 A 
ATOM     11  C   UNL     1       4.215   2.831  17.474  0.00  0.00    +0.000 A 
ATOM     12  C   UNL     1       3.275   2.702  18.499  0.00  0.00    +0.000 A 
BRANCH   7  14
ATOM     13  C   UNL     1       2.229   2.822  21.479  0.00  0.00    +0.000 C 
ATOM     14  S   UNL     1       1.341   3.670  20.197  0.00  0.00    +0.000 S 
ATOM     15  O   UNL     1       0.300   2.789  19.706  0.00  0.00    +0.000 OA
ATOM     16  O   UNL     1       1.030   5.006  20.667  0.00  0.00    +0.000 OA
ENDBRANCH   7  14
ENDBRANCH   1  10
BRANCH   6  17
ATOM     17  C   UNL     1       7.115   5.676  16.868  0.00  0.00    +0.000 A 
ATOM     18  C   UNL     1       7.275   7.064  16.821  0.00  0.00    +0.000 A 
ATOM     19  C   UNL     1       7.830   7.744  17.909  0.00  0.00    +0.000 A 
ATOM     20  C   UNL     1       8.276   7.036  19.025  0.00  0.00    +0.000 A 
ATOM     21  C   UNL     1       8.154   5.649  19.062  0.00  0.00    +0.000 A 
ATOM     22  C   UNL     1       7.561   4.974  17.995  0.00  0.00    +0.000 A 
ENDBRANCH   6  17
TORSDOF 3
ENDMDL
MODEL 3
REMARK VINA RESULT:      -8.3      0.056      1.030
REMARK  Name = 
REMARK  4 active torsions:
REMARK  status: ('A' for Active; 'I' for Inactive)
REMARK    1  A    between atoms: C_1  and  S_2
REMARK    2  A    between atoms: S_2  and  C_5
REMARK    3  A    between atoms: C_8  and  C_9
REMARK    4  A    between atoms: N_14  and  C_15
REMARK                            x       y       z     vdW  Elec       q    Type
REMARK                         _______ _______ _______ _____ _____    ______ ____
ROOT
ATOM      1  C   UNL     1       5.414   4.195  15.747  0.00  0.00    +0.000 A 
ATOM      2  C   UNL     1       5.312   3.724  14.511  0.00  0.00    +0.000 A 
ATOM      3  O   UNL     1       6.321   4.150  13.651  0.00  0.00    +0.000 OA
ATOM      4  C   UNL     1       7.076   4.981  14.484  0.00  0.00    +0.000 A 
ATOM      5  O   UNL     1       8.079   5.563  14.092  0.00  0.00    +0.000 OA
ATOM      6  N   UNL     1       6.526   4.989  15.767  0.00  0.00    +0.000 N 
ENDROOT
BRANCH   1  10
ATOM      7  C   UNL     1       2.583   3.898  18.897  0.00  0.00    +0.000 A 
ATOM      8  C   UNL     1       3.157   2.734  18.380  0.00  0.00    +0.000 A 
ATOM      9  C   UNL     1       4.079   2.828  17.334  0.00  0.00    +0.000 A 
ATOM     10  C   UNL     1       4.433   4.079  16.816  0.00  0.00    +0.000 A 
ATOM     11  C   UNL     1       3.825   5.237  17.328  0.00  0.00    +0.000 A 
ATOM     12  C   UNL     1       2.893   5.151  18.365  0.00  0.00    +0.000 A 
BRANCH   7  14
ATOM     13  C   UNL     1       2.348   2.955  21.501  0.00  0.00    +0.000 C 
ATOM     14  S   UNL     1       1.415   3.778  20.234  0.00  0.00    +0.000 S 
ATOM     15  O   UNL     1       0.352   2.892  19.804  0.00  0.00    +0.000 OA
ATOM     16  O   UNL     1       1.129   5.126  20.683  0.00  0.00    +0.000 OA
ENDBRANCH   7  14
ENDBRANCH   1  10
BRANCH   6  17
ATOM     17  C   UNL     1       7.112   5.657  16.860  0.00  0.00    +0.000 A 
ATOM     18  C   UNL     1       7.278   7.044  16.838  0.00  0.00    +0.000 A 
ATOM     19  C   UNL     1       7.830   7.703  17.941  0.00  0.00    +0.000 A 
ATOM     20  C   UNL     1       8.264   6.974  19.048  0.00  0.00    +0.000 A 
ATOM     21  C   UNL     1       8.135   5.588  19.060  0.00  0.00    +0.000 A 
ATOM     22  C   UNL     1       7.546   4.933  17.978  0.00  0.00    +0.000 A 
ENDBRANCH   6  17
TORSDOF 3
ENDMDL
MODEL 4
REMARK VINA RESULT:      -8.3      0.107      1.039
REMARK  Name = 
REMARK  4 active torsions:
REMARK  status: ('A' for Active; 'I' for Inactive)
REMARK    1  A    between atoms: C_1  and  S_2
REMARK    2  A    between atoms: S_2  and  C_5
REMARK    3  A    between atoms: C_8  and  C_9
REMARK    4  A    between atoms: N_14  and  C_15
REMARK                            x       y       z     vdW  Elec       q    Type
REMARK                         _______ _______ _______ _____ _____    ______ ____
ROOT
ATOM      1  C   UNL     1       5.410   4.224  15.777  0.00  0.00    +0.000 A 
ATOM      2  C   UNL     1       5.304   3.736  14.547  0.00  0.00    +0.000 A 
ATOM      3  O   UNL     1       6.305   4.158  13.676  0.00  0.00    +0.000 OA
ATOM      4  C   UNL     1       7.059   5.004  14.493  0.00  0.00    +0.000 A 
ATOM      5  O   UNL     1       8.055   5.587  14.087  0.00  0.00    +0.000 OA
ATOM      6  N   UNL     1       6.516   5.025  15.779  0.00  0.00    +0.000 N 
ENDROOT
BRANCH   1  10
ATOM      7  C   UNL     1       2.538   3.863  18.883  0.00  0.00    +0.000 A 
ATOM      8  C   UNL     1       2.879   5.133  18.409  0.00  0.00    +0.000 A 
ATOM      9  C   UNL     1       3.834   5.255  17.396  0.00  0.00    +0.000 A 
ATOM     10  C   UNL     1       4.435   4.115  16.853  0.00  0.00    +0.000 A 
ATOM     11  C   UNL     1       4.103   2.848  17.360  0.00  0.00    +0.000 A 
ATOM     12  C   UNL     1       3.159   2.718  18.382  0.00  0.00    +0.000 A 
BRANCH   7  14
ATOM     13  C   UNL     1       2.229   2.958  21.493  0.00  0.00    +0.000 C 
ATOM     14  S   UNL     1       1.316   3.707  20.167  0.00  0.00    +0.000 S 
ATOM     15  O   UNL     1       0.322   2.758  19.707  0.00  0.00    +0.000 OA
ATOM     16  O   UNL     1       0.940   5.046  20.574  0.00  0.00    +0.000 OA
ENDBRANCH   7  14
ENDBRANCH   1  10
BRANCH   6  17
ATOM     17  C   UNL     1       7.104   5.712  16.860  0.00  0.00    +0.000 A 
ATOM     18  C   UNL     1       7.559   5.014  17.982  0.00  0.00    +0.000 A 
ATOM     19  C   UNL     1       8.172   5.700  19.035  0.00  0.00    +0.000 A 
ATOM     20  C   UNL     1       8.287   7.089  18.994  0.00  0.00    +0.000 A 
ATOM     21  C   UNL     1       7.803   7.794  17.894  0.00  0.00    +0.000 A 
ATOM     22  C   UNL     1       7.229   7.106  16.824  0.00  0.00    +0.000 A 
ENDBRANCH   6  17
TORSDOF 3
ENDMDL
MODEL 5
REMARK VINA RESULT:      -7.9      3.569      5.496
REMARK  Name = 
REMARK  4 active torsions:
REMARK  status: ('A' for Active; 'I' for Inactive)
REMARK    1  A    between atoms: C_1  and  S_2
REMARK    2  A    between atoms: S_2  and  C_5
REMARK    3  A    between atoms: C_8  and  C_9
REMARK    4  A    between atoms: N_14  and  C_15
REMARK                            x       y       z     vdW  Elec       q    Type
REMARK                         _______ _______ _______ _____ _____    ______ ____
ROOT
ATOM      1  C   UNL     1       3.646   6.480  17.526  0.00  0.00    +0.000 A 
ATOM      2  C   UNL     1       4.587   6.852  16.667  0.00  0.00    +0.000 A 
ATOM      3  O   UNL     1       5.364   5.803  16.181  0.00  0.00    +0.000 OA
ATOM      4  C   UNL     1       4.822   4.707  16.857  0.00  0.00    +0.000 A 
ATOM      5  O   UNL     1       5.243   3.569  16.698  0.00  0.00    +0.000 OA
ATOM      6  N   UNL     1       3.762   5.126  17.662  0.00  0.00    +0.000 N 
ENDROOT
BRANCH   1  10
ATOM      7  C   UNL     1       1.212   9.059  19.861  0.00  0.00    +0.000 A 
ATOM      8  C   UNL     1       1.722   7.891  20.436  0.00  0.00    +0.000 A 
ATOM      9  C   UNL     1       2.512   7.034  19.666  0.00  0.00    +0.000 A 
ATOM     10  C   UNL     1       2.799   7.348  18.333  0.00  0.00    +0.000 A 
ATOM     11  C   UNL     1       2.256   8.510  17.761  0.00  0.00    +0.000 A 
ATOM     12  C   UNL     1       1.454   9.366  18.521  0.00  0.00    +0.000 A 
BRANCH   7  14
ATOM     13  C   UNL     1      -0.393   9.090  22.130  0.00  0.00    +0.000 C 
ATOM     14  S   UNL     1       0.213  10.154  20.845  0.00  0.00    +0.000 S 
ATOM     15  O   UNL     1      -0.911  10.567  20.029  0.00  0.00    +0.000 OA
ATOM     16  O   UNL     1       1.101  11.131  21.444  0.00  0.00    +0.000 OA
ENDBRANCH   7  14
ENDBRANCH   1  10
BRANCH   6  17
ATOM     17  C   UNL     1       2.949   4.242  18.399  0.00  0.00    +0.000 A 
ATOM     18  C   UNL     1       3.385   3.727  19.622  0.00  0.00    +0.000 A 
ATOM     19  C   UNL     1       2.558   2.878  20.362  0.00  0.00    +0.000 A 
ATOM     20  C   UNL     1       1.314   2.498  19.859  0.00  0.00    +0.000 A 
ATOM     21  C   UNL     1       0.888   2.977  18.623  0.00  0.00    +0.000 A 
ATOM     22  C   UNL     1       1.696   3.859  17.904  0.00  0.00    +0.000 A 
ENDBRANCH   6  17
TORSDOF 3
ENDMDL
MODEL 6
REMARK VINA RESULT:      -7.8      3.816      5.848
REMARK  Name = 
REMARK  4 active torsions:
REMARK  status: ('A' for Active; 'I' for Inactive)
REMARK    1  A    between atoms: C_1  and  S_2
REMARK    2  A    between atoms: S_2  and  C_5
REMARK    3  A    between atoms: C_8  and  C_9
REMARK    4  A    between atoms: N_14  and  C_15
REMARK                            x       y       z     vdW  Elec       q    Type
REMARK                         _______ _______ _______ _____ _____    ______ ____
ROOT
ATOM      1  C   UNL     1       3.342   6.545  17.806  0.00  0.00    +0.000 A 
ATOM      2  C   UNL     1       4.250   6.835  16.882  0.00  0.00    +0.000 A 
ATOM      3  O   UNL     1       4.998   5.742  16.453  0.00  0.00    +0.000 OA
ATOM      4  C   UNL     1       4.475   4.711  17.237  0.00  0.00    +0.000 A 
ATOM      5  O   UNL     1       4.879   3.558  17.155  0.00  0.00    +0.000 OA
ATOM      6  N   UNL     1       3.453   5.206  18.048  0.00  0.00    +0.000 N 
ENDROOT
BRANCH   1  10
ATOM      7  C   UNL     1       1.030   9.333  20.021  0.00  0.00    +0.000 A 
ATOM      8  C   UNL     1       1.523   8.191  20.659  0.00  0.00    +0.000 A 
ATOM      9  C   UNL     1       2.272   7.266  19.929  0.00  0.00    +0.000 A 
ATOM     10  C   UNL     1       2.537   7.486  18.573  0.00  0.00    +0.000 A 
ATOM     11  C   UNL     1       2.011   8.623  17.940  0.00  0.00    +0.000 A 
ATOM     12  C   UNL     1       1.250   9.548  18.660  0.00  0.00    +0.000 A 
BRANCH   7  14
ATOM     13  C   UNL     1      -0.425   9.583  22.376  0.00  0.00    +0.000 C 
ATOM     14  S   UNL     1       0.082  10.516  20.953  0.00  0.00    +0.000 S 
ATOM     15  O   UNL     1      -1.098  10.837  20.176  0.00  0.00    +0.000 OA
ATOM     16  O   UNL     1       0.994  11.554  21.392  0.00  0.00    +0.000 OA
ENDBRANCH   7  14
ENDBRANCH   1  10
BRANCH   6  17
ATOM     17  C   UNL     1       2.663   4.394  18.886  0.00  0.00    +0.000 A 
ATOM     18  C   UNL     1       1.450   3.871  18.432  0.00  0.00    +0.000 A 
ATOM     19  C   UNL     1       0.690   3.039  19.258  0.00  0.00    +0.000 A 
ATOM     20  C   UNL     1       1.113   2.768  20.559  0.00  0.00    +0.000 A 
ATOM     21  C   UNL     1       2.302   3.316  21.032  0.00  0.00    +0.000 A 
ATOM     22  C   UNL     1       3.083   4.112  20.193  0.00  0.00    +0.000 A 
ENDBRANCH   6  17
TORSDOF 3
ENDMDL
MODEL 7
REMARK VINA RESULT:      -7.8      3.545      5.561
REMARK  Name = 
REMARK  4 active torsions:
REMARK  status: ('A' for Active; 'I' for Inactive)
REMARK    1  A    between atoms: C_1  and  S_2
REMARK    2  A    between atoms: S_2  and  C_5
REMARK    3  A    between atoms: C_8  and  C_9
REMARK    4  A    between atoms: N_14  and  C_15
REMARK                            x       y       z     vdW  Elec       q    Type
REMARK                         _______ _______ _______ _____ _____    ______ ____
ROOT
ATOM      1  C   UNL     1       3.638   6.438  17.509  0.00  0.00    +0.000 A 
ATOM      2  C   UNL     1       4.580   6.769  16.635  0.00  0.00    +0.000 A 
ATOM      3  O   UNL     1       5.327   5.693  16.164  0.00  0.00    +0.000 OA
ATOM      4  C   UNL     1       4.765   4.624  16.867  0.00  0.00    +0.000 A 
ATOM      5  O   UNL     1       5.156   3.473  16.727  0.00  0.00    +0.000 OA
ATOM      6  N   UNL     1       3.722   5.085  17.672  0.00  0.00    +0.000 N 
ENDROOT
BRANCH   1  10
ATOM      7  C   UNL     1       1.218   9.026  19.849  0.00  0.00    +0.000 A 
ATOM      8  C   UNL     1       1.489   9.358  18.519  0.00  0.00    +0.000 A 
ATOM      9  C   UNL     1       2.296   8.515  17.751  0.00  0.00    +0.000 A 
ATOM     10  C   UNL     1       2.820   7.342  18.306  0.00  0.00    +0.000 A 
ATOM     11  C   UNL     1       2.562   7.037  19.652  0.00  0.00    +0.000 A 
ATOM     12  C   UNL     1       1.766   7.881  20.431  0.00  0.00    +0.000 A 
BRANCH   7  14
ATOM     13  C   UNL     1      -0.406   9.016  22.105  0.00  0.00    +0.000 C 
ATOM     14  S   UNL     1       0.183  10.095  20.824  0.00  0.00    +0.000 S 
ATOM     15  O   UNL     1      -0.944  10.479  19.999  0.00  0.00    +0.000 OA
ATOM     16  O   UNL     1       1.040  11.094  21.431  0.00  0.00    +0.000 OA
ENDBRANCH   7  14
ENDBRANCH   1  10
BRANCH   6  17
ATOM     17  C   UNL     1       2.894   4.235  18.433  0.00  0.00    +0.000 A 
ATOM     18  C   UNL     1       3.320   3.752  19.673  0.00  0.00    +0.000 A 
ATOM     19  C   UNL     1       2.479   2.938  20.437  0.00  0.00    +0.000 A 
ATOM     20  C   UNL     1       1.231   2.561  19.942  0.00  0.00    +0.000 A 
ATOM     21  C   UNL     1       0.815   3.008  18.690  0.00  0.00    +0.000 A 
ATOM     22  C   UNL     1       1.637   3.856  17.946  0.00  0.00    +0.000 A 
ENDBRANCH   6  17
TORSDOF 3
ENDMDL
MODEL 8
REMARK VINA RESULT:      -7.8      3.562      5.641
REMARK  Name = 
REMARK  4 active torsions:
REMARK  status: ('A' for Active; 'I' for Inactive)
REMARK    1  A    between atoms: C_1  and  S_2
REMARK    2  A    between atoms: S_2  and  C_5
REMARK    3  A    between atoms: C_8  and  C_9
REMARK    4  A    between atoms: N_14  and  C_15
REMARK                            x       y       z     vdW  Elec       q    Type
REMARK                         _______ _______ _______ _____ _____    ______ ____
ROOT
ATOM      1  C   UNL     1       3.610   6.427  17.543  0.00  0.00    +0.000 A 
ATOM      2  C   UNL     1       4.560   6.749  16.674  0.00  0.00    +0.000 A 
ATOM      3  O   UNL     1       5.296   5.665  16.202  0.00  0.00    +0.000 OA
ATOM      4  C   UNL     1       4.717   4.601  16.899  0.00  0.00    +0.000 A 
ATOM      5  O   UNL     1       5.094   3.445  16.757  0.00  0.00    +0.000 OA
ATOM      6  N   UNL     1       3.677   5.072  17.701  0.00  0.00    +0.000 N 
ENDROOT
BRANCH   1  10
ATOM      7  C   UNL     1       1.213   9.037  19.881  0.00  0.00    +0.000 A 
ATOM      8  C   UNL     1       1.486   9.365  18.551  0.00  0.00    +0.000 A 
ATOM      9  C   UNL     1       2.286   8.515  17.783  0.00  0.00    +0.000 A 
ATOM     10  C   UNL     1       2.800   7.338  18.339  0.00  0.00    +0.000 A 
ATOM     11  C   UNL     1       2.541   7.037  19.686  0.00  0.00    +0.000 A 
ATOM     12  C   UNL     1       1.752   7.889  20.464  0.00  0.00    +0.000 A 
BRANCH   7  14
ATOM     13  C   UNL     1      -0.449   9.032  22.109  0.00  0.00    +0.000 C 
ATOM     14  S   UNL     1       0.188  10.116  20.856  0.00  0.00    +0.000 S 
ATOM     15  O   UNL     1      -0.916  10.540  20.018  0.00  0.00    +0.000 OA
ATOM     16  O   UNL     1       1.059  11.085  21.493  0.00  0.00    +0.000 OA
ENDBRANCH   7  14
ENDBRANCH   1  10
BRANCH   6  17
ATOM     17  C   UNL     1       2.834   4.231  18.456  0.00  0.00    +0.000 A 
ATOM     18  C   UNL     1       1.576   3.865  17.971  0.00  0.00    +0.000 A 
ATOM     19  C   UNL     1       0.761   3.003  18.710  0.00  0.00    +0.000 A 
ATOM     20  C   UNL     1       1.178   2.544  19.959  0.00  0.00    +0.000 A 
ATOM     21  C   UNL     1       2.416   2.934  20.465  0.00  0.00    +0.000 A 
ATOM     22  C   UNL     1       3.248   3.761  19.708  0.00  0.00    +0.000 A 
ENDBRANCH   6  17
TORSDOF 3
ENDMDL
MODEL 9
REMARK VINA RESULT:      -7.8      3.529      5.638
REMARK  Name = 
REMARK  4 active torsions:
REMARK  status: ('A' for Active; 'I' for Inactive)
REMARK    1  A    between atoms: C_1  and  S_2
REMARK    2  A    between atoms: S_2  and  C_5
REMARK    3  A    between atoms: C_8  and  C_9
REMARK    4  A    between atoms: N_14  and  C_15
REMARK                            x       y       z     vdW  Elec       q    Type
REMARK                         _______ _______ _______ _____ _____    ______ ____
ROOT
ATOM      1  C   UNL     1       3.640   6.477  17.525  0.00  0.00    +0.000 A 
ATOM      2  C   UNL     1       4.577   6.859  16.667  0.00  0.00    +0.000 A 
ATOM      3  O   UNL     1       5.353   5.818  16.166  0.00  0.00    +0.000 OA
ATOM      4  C   UNL     1       4.814   4.713  16.830  0.00  0.00    +0.000 A 
ATOM      5  O   UNL     1       5.234   3.576  16.655  0.00  0.00    +0.000 OA
ATOM      6  N   UNL     1       3.757   5.121  17.644  0.00  0.00    +0.000 N 
ENDROOT
BRANCH   1  10
ATOM      7  C   UNL     1       1.214   9.025  19.903  0.00  0.00    +0.000 A 
ATOM      8  C   UNL     1       1.723   7.848  20.459  0.00  0.00    +0.000 A 
ATOM      9  C   UNL     1       2.510   7.000  19.675  0.00  0.00    +0.000 A 
ATOM     10  C   UNL     1       2.796   7.334  18.346  0.00  0.00    +0.000 A 
ATOM     11  C   UNL     1       2.254   8.506  17.793  0.00  0.00    +0.000 A 
ATOM     12  C   UNL     1       1.456   9.352  18.567  0.00  0.00    +0.000 A 
BRANCH   7  14
ATOM     13  C   UNL     1      -0.908  10.811  19.727  0.00  0.00    +0.000 C 
ATOM     14  S   UNL     1       0.219  10.107  20.904  0.00  0.00    +0.000 S 
ATOM     15  O   UNL     1       1.083  11.163  21.393  0.00  0.00    +0.000 OA
ATOM     16  O   UNL     1      -0.539   9.278  21.820  0.00  0.00    +0.000 OA
ENDBRANCH   7  14
ENDBRANCH   1  10
BRANCH   6  17
ATOM     17  C   UNL     1       2.947   4.227  18.373  0.00  0.00    +0.000 A 
ATOM     18  C   UNL     1       1.690   3.853  17.890  0.00  0.00    +0.000 A 
ATOM     19  C   UNL     1       0.908   2.940  18.603  0.00  0.00    +0.000 A 
ATOM     20  C   UNL     1       1.355   2.437  19.824  0.00  0.00    +0.000 A 
ATOM     21  C   UNL     1       2.590   2.834  20.329  0.00  0.00    +0.000 A 
ATOM     22  C   UNL     1       3.391   3.713  19.598  0.00  0.00    +0.000 A 
ENDBRANCH   6  17
TORSDOF 3
ENDMDL
