MODEL 1
REMARK VINA RESULT:      -8.1      0.000      0.000
REMARK  Name = 
REMARK  8 active torsions:
REMARK  status: ('A' for Active; 'I' for Inactive)
REMARK    1  A    between atoms: C_2  and  C_3
REMARK    2  A    between atoms: C_2  and  O_18
REMARK    3  A    between atoms: C_3  and  C_4
REMARK    4  A    between atoms: C_4  and  C_5
REMARK    5  A    between atoms: C_5  and  N_6
REMARK    6  A    between atoms: O_18  and  C_19
REMARK    7  A    between atoms: C_19  and  C_20
REMARK    8  A    between atoms: C_20  and  C_22
REMARK                            x       y       z     vdW  Elec       q    Type
REMARK                         _______ _______ _______ _____ _____    ______ ____
ROOT
ATOM      1  C   UNL     1       1.228   5.048  20.316  0.00  0.00    +0.000 C 
ENDROOT
BRANCH   1   3
ATOM      2  O   UNL     1       1.288   2.871  21.385  0.00  0.00    +0.000 OA
ATOM      3  C   UNL     1       1.426   3.552  20.377  0.00  0.00    +0.000 C 
BRANCH   3   4
ATOM      4  O   UNL     1       1.744   3.062  19.147  0.00  0.00    +0.000 OA
BRANCH   4   5
ATOM      5  C   UNL     1       2.702   2.000  19.154  0.00  0.00    +0.000 C 
BRANCH   5   6
ATOM      6  C   UNL     1       4.126   2.477  19.436  0.00  0.00    +0.000 C 
ATOM      7  O   UNL     1       4.790   2.042  20.377  0.00  0.00    +0.000 OA
BRANCH   6   8
ATOM      8  C   UNL     1       4.725   3.526  18.548  0.00  0.00    +0.000 A 
ATOM      9  C   UNL     1       4.392   3.649  17.189  0.00  0.00    +0.000 A 
ATOM     10  C   UNL     1       4.978   4.649  16.403  0.00  0.00    +0.000 A 
ATOM     11  C   UNL     1       5.895   5.527  16.973  0.00  0.00    +0.000 A 
ATOM     12  F   UNL     1       6.449   6.481  16.216  0.00  0.00    +0.000 F 
ATOM     13  C   UNL     1       6.226   5.415  18.315  0.00  0.00    +0.000 A 
ATOM     14  F   UNL     1       7.106   6.263  18.864  0.00  0.00    +0.000 F 
ATOM     15  C   UNL     1       5.651   4.425  19.107  0.00  0.00    +0.000 A 
ENDBRANCH   6   8
ENDBRANCH   5   6
ENDBRANCH   4   5
ENDBRANCH   3   4
ENDBRANCH   1   3
BRANCH   1  16
ATOM     16  C   UNL     1       2.012   5.687  19.168  0.00  0.00    +0.000 C 
BRANCH  16  17
ATOM     17  C   UNL     1       2.707   6.980  19.598  0.00  0.00    +0.000 C 
BRANCH  17  18
ATOM     18  N   UNL     1       1.877   7.709  20.538  0.00  0.00    +0.000 N 
ATOM     19  C   UNL     1       1.157   8.829  20.216  0.00  0.00    +0.000 C 
ATOM     20  N   UNL     1       1.102   9.341  19.019  0.00  0.00    +0.000 NA
ATOM     21  S   UNL     1       0.149  10.675  18.991  0.00  0.00    +0.000 S 
ATOM     22  O   UNL     1      -1.063  10.408  18.247  0.00  0.00    +0.000 OA
ATOM     23  O   UNL     1       0.946  11.864  18.782  0.00  0.00    +0.000 OA
ATOM     24  C   UNL     1      -0.263  10.632  20.679  0.00  0.00    +0.000 A 
ATOM     25  C   UNL     1      -1.057  11.510  21.390  0.00  0.00    +0.000 A 
ATOM     26  C   UNL     1      -1.201  11.262  22.755  0.00  0.00    +0.000 A 
ATOM     27  C   UNL     1      -0.562  10.161  23.357  0.00  0.00    +0.000 A 
ATOM     28  C   UNL     1       0.234   9.289  22.601  0.00  0.00    +0.000 A 
ATOM     29  C   UNL     1       0.375   9.548  21.250  0.00  0.00    +0.000 A 
ATOM     30  H   UNL     1       1.966   7.418  21.504  0.00  0.00    +0.000 HD
ENDBRANCH  17  18
ENDBRANCH  16  17
ENDBRANCH   1  16
TORSDOF 8
ENDMDL
MODEL 2
REMARK VINA RESULT:      -8.0      1.080      1.361
REMARK  Name = 
REMARK  8 active torsions:
REMARK  status: ('A' for Active; 'I' for Inactive)
REMARK    1  A    between atoms: C_2  and  C_3
REMARK    2  A    between atoms: C_2  and  O_18
REMARK    3  A    between atoms: C_3  and  C_4
REMARK    4  A    between atoms: C_4  and  C_5
REMARK    5  A    between atoms: C_5  and  N_6
REMARK    6  A    between atoms: O_18  and  C_19
REMARK    7  A    between atoms: C_19  and  C_20
REMARK    8  A    between atoms: C_20  and  C_22
REMARK                            x       y       z     vdW  Elec       q    Type
REMARK                         _______ _______ _______ _____ _____    ______ ____
ROOT
ATOM      1  C   UNL     1       1.410   4.619  19.120  0.00  0.00    +0.000 C 
ENDROOT
BRANCH   1   3
ATOM      2  O   UNL     1       1.357   2.210  18.832  0.00  0.00    +0.000 OA
ATOM      3  C   UNL     1       1.793   3.301  18.488  0.00  0.00    +0.000 C 
BRANCH   3   4
ATOM      4  O   UNL     1       2.661   3.500  17.458  0.00  0.00    +0.000 OA
BRANCH   4   5
ATOM      5  C   UNL     1       3.904   2.804  17.578  0.00  0.00    +0.000 C 
BRANCH   5   6
ATOM      6  C   UNL     1       4.868   3.460  18.566  0.00  0.00    +0.000 C 
ATOM      7  O   UNL     1       4.986   3.067  19.727  0.00  0.00    +0.000 OA
BRANCH   6   8
ATOM      8  C   UNL     1       5.678   4.637  18.111  0.00  0.00    +0.000 A 
ATOM      9  C   UNL     1       5.401   5.333  16.922  0.00  0.00    +0.000 A 
ATOM     10  C   UNL     1       6.187   6.428  16.542  0.00  0.00    +0.000 A 
ATOM     11  C   UNL     1       7.247   6.829  17.349  0.00  0.00    +0.000 A 
ATOM     12  F   UNL     1       7.993   7.877  16.979  0.00  0.00    +0.000 F 
ATOM     13  C   UNL     1       7.525   6.150  18.526  0.00  0.00    +0.000 A 
ATOM     14  F   UNL     1       8.544   6.541  19.304  0.00  0.00    +0.000 F 
ATOM     15  C   UNL     1       6.751   5.060  18.914  0.00  0.00    +0.000 A 
ENDBRANCH   6   8
ENDBRANCH   5   6
ENDBRANCH   4   5
ENDBRANCH   3   4
ENDBRANCH   1   3
BRANCH   1  16
ATOM     16  C   UNL     1       2.032   5.810  18.391  0.00  0.00    +0.000 C 
BRANCH  16  17
ATOM     17  C   UNL     1       2.911   6.654  19.316  0.00  0.00    +0.000 C 
BRANCH  17  18
ATOM     18  N   UNL     1       2.090   7.365  20.278  0.00  0.00    +0.000 N 
ATOM     19  C   UNL     1       1.414   8.524  20.000  0.00  0.00    +0.000 C 
ATOM     20  N   UNL     1       1.397   9.095  18.829  0.00  0.00    +0.000 NA
ATOM     21  S   UNL     1       0.490  10.462  18.852  0.00  0.00    +0.000 S 
ATOM     22  O   UNL     1      -0.717  10.274  18.077  0.00  0.00    +0.000 OA
ATOM     23  O   UNL     1       1.331  11.631  18.714  0.00  0.00    +0.000 OA
ATOM     24  C   UNL     1       0.049  10.351  20.529  0.00  0.00    +0.000 A 
ATOM     25  C   UNL     1      -0.727  11.221  21.270  0.00  0.00    +0.000 A 
ATOM     26  C   UNL     1      -0.903  10.912  22.619  0.00  0.00    +0.000 A 
ATOM     27  C   UNL     1      -0.312   9.761  23.176  0.00  0.00    +0.000 A 
ATOM     28  C   UNL     1       0.466   8.899  22.391  0.00  0.00    +0.000 A 
ATOM     29  C   UNL     1       0.639   9.219  21.056  0.00  0.00    +0.000 A 
ATOM     30  H   UNL     1       2.152   7.025  21.230  0.00  0.00    +0.000 HD
ENDBRANCH  17  18
ENDBRANCH  16  17
ENDBRANCH   1  16
TORSDOF 8
ENDMDL
MODEL 3
REMARK VINA RESULT:      -7.9      3.974      7.384
REMARK  Name = 
REMARK  8 active torsions:
REMARK  status: ('A' for Active; 'I' for Inactive)
REMARK    1  A    between atoms: C_2  and  C_3
REMARK    2  A    between atoms: C_2  and  O_18
REMARK    3  A    between atoms: C_3  and  C_4
REMARK    4  A    between atoms: C_4  and  C_5
REMARK    5  A    between atoms: C_5  and  N_6
REMARK    6  A    between atoms: O_18  and  C_19
REMARK    7  A    between atoms: C_19  and  C_20
REMARK    8  A    between atoms: C_20  and  C_22
REMARK                            x       y       z     vdW  Elec       q    Type
REMARK                         _______ _______ _______ _____ _____    ______ ____
ROOT
ATOM      1  C   UNL     1       1.784   4.122  18.550  0.00  0.00    +0.000 C 
ENDROOT
BRANCH   1   3
ATOM      2  O   UNL     1       0.968   3.323  20.692  0.00  0.00    +0.000 OA
ATOM      3  C   UNL     1       1.319   4.257  19.981  0.00  0.00    +0.000 C 
BRANCH   3   4
ATOM      4  O   UNL     1       1.378   5.557  20.381  0.00  0.00    +0.000 OA
BRANCH   4   5
ATOM      5  C   UNL     1       2.535   6.269  19.937  0.00  0.00    +0.000 C 
BRANCH   5   6
ATOM      6  C   UNL     1       2.210   7.650  19.369  0.00  0.00    +0.000 C 
ATOM      7  O   UNL     1       2.670   8.044  18.297  0.00  0.00    +0.000 OA
BRANCH   6   8
ATOM      8  C   UNL     1       1.320   8.563  20.157  0.00  0.00    +0.000 A 
ATOM      9  C   UNL     1       0.436   9.470  19.549  0.00  0.00    +0.000 A 
ATOM     10  C   UNL     1      -0.377  10.300  20.331  0.00  0.00    +0.000 A 
ATOM     11  C   UNL     1      -0.309  10.224  21.719  0.00  0.00    +0.000 A 
ATOM     12  F   UNL     1      -1.090  11.020  22.459  0.00  0.00    +0.000 F 
ATOM     13  C   UNL     1       0.558   9.329  22.327  0.00  0.00    +0.000 A 
ATOM     14  F   UNL     1       0.620   9.254  23.663  0.00  0.00    +0.000 F 
ATOM     15  C   UNL     1       1.371   8.499  21.561  0.00  0.00    +0.000 A 
ENDBRANCH   6   8
ENDBRANCH   5   6
ENDBRANCH   4   5
ENDBRANCH   3   4
ENDBRANCH   1   3
BRANCH   1  16
ATOM     16  C   UNL     1       1.908   2.659  18.121  0.00  0.00    +0.000 C 
BRANCH  16  17
ATOM     17  C   UNL     1       3.273   2.358  17.499  0.00  0.00    +0.000 C 
BRANCH  17  18
ATOM     18  N   UNL     1       4.285   3.233  18.059  0.00  0.00    +0.000 N 
ATOM     19  C   UNL     1       4.949   4.194  17.342  0.00  0.00    +0.000 C 
ATOM     20  N   UNL     1       4.715   4.460  16.088  0.00  0.00    +0.000 NA
ATOM     21  S   UNL     1       5.687   5.666  15.549  0.00  0.00    +0.000 S 
ATOM     22  O   UNL     1       4.908   6.858  15.293  0.00  0.00    +0.000 OA
ATOM     23  O   UNL     1       6.659   5.153  14.610  0.00  0.00    +0.000 OA
ATOM     24  C   UNL     1       6.517   5.908  17.056  0.00  0.00    +0.000 A 
ATOM     25  C   UNL     1       7.534   6.799  17.341  0.00  0.00    +0.000 A 
ATOM     26  C   UNL     1       8.053   6.768  18.635  0.00  0.00    +0.000 A 
ATOM     27  C   UNL     1       7.547   5.864  19.591  0.00  0.00    +0.000 A 
ATOM     28  C   UNL     1       6.512   4.976  19.265  0.00  0.00    +0.000 A 
ATOM     29  C   UNL     1       6.009   5.013  17.976  0.00  0.00    +0.000 A 
ATOM     30  H   UNL     1       4.581   3.001  18.999  0.00  0.00    +0.000 HD
ENDBRANCH  17  18
ENDBRANCH  16  17
ENDBRANCH   1  16
TORSDOF 8
ENDMDL
MODEL 4
REMARK VINA RESULT:      -7.9      6.160      7.774
REMARK  Name = 
REMARK  8 active torsions:
REMARK  status: ('A' for Active; 'I' for Inactive)
REMARK    1  A    between atoms: C_2  and  C_3
REMARK    2  A    between atoms: C_2  and  O_18
REMARK    3  A    between atoms: C_3  and  C_4
REMARK    4  A    between atoms: C_4  and  C_5
REMARK    5  A    between atoms: C_5  and  N_6
REMARK    6  A    between atoms: O_18  and  C_19
REMARK    7  A    between atoms: C_19  and  C_20
REMARK    8  A    between atoms: C_20  and  C_22
REMARK                            x       y       z     vdW  Elec       q    Type
REMARK                         _______ _______ _______ _____ _____    ______ ____
ROOT
ATOM      1  C   UNL     1       7.295   6.022  17.385  0.00  0.00    +0.000 C 
ENDROOT
BRANCH   1   3
ATOM      2  O   UNL     1       6.569   5.356  19.603  0.00  0.00    +0.000 OA
ATOM      3  C   UNL     1       6.454   5.267  18.387  0.00  0.00    +0.000 C 
BRANCH   3   4
ATOM      4  O   UNL     1       5.525   4.502  17.750  0.00  0.00    +0.000 OA
BRANCH   4   5
ATOM      5  C   UNL     1       4.575   5.235  16.973  0.00  0.00    +0.000 C 
BRANCH   5   6
ATOM      6  C   UNL     1       3.479   5.883  17.818  0.00  0.00    +0.000 C 
ATOM      7  O   UNL     1       3.190   7.075  17.716  0.00  0.00    +0.000 OA
BRANCH   6   8
ATOM      8  C   UNL     1       2.749   5.042  18.822  0.00  0.00    +0.000 A 
ATOM      9  C   UNL     1       2.918   5.199  20.208  0.00  0.00    +0.000 A 
ATOM     10  C   UNL     1       2.209   4.388  21.104  0.00  0.00    +0.000 A 
ATOM     11  C   UNL     1       1.332   3.423  20.618  0.00  0.00    +0.000 A 
ATOM     12  F   UNL     1       0.659   2.654  21.481  0.00  0.00    +0.000 F 
ATOM     13  C   UNL     1       1.158   3.265  19.251  0.00  0.00    +0.000 A 
ATOM     14  F   UNL     1       0.310   2.338  18.784  0.00  0.00    +0.000 F 
ATOM     15  C   UNL     1       1.856   4.064  18.350  0.00  0.00    +0.000 A 
ENDBRANCH   6   8
ENDBRANCH   5   6
ENDBRANCH   4   5
ENDBRANCH   3   4
ENDBRANCH   1   3
BRANCH   1  16
ATOM     16  C   UNL     1       7.082   7.534  17.478  0.00  0.00    +0.000 C 
BRANCH  16  17
ATOM     17  C   UNL     1       8.283   8.245  18.106  0.00  0.00    +0.000 C 
BRANCH  17  18
ATOM     18  N   UNL     1       8.207   9.673  17.860  0.00  0.00    +0.000 N 
ATOM     19  C   UNL     1       8.866  10.614  18.606  0.00  0.00    +0.000 C 
ATOM     20  N   UNL     1       9.670  10.331  19.593  0.00  0.00    +0.000 NA
ATOM     21  S   UNL     1      10.286  11.696  20.262  0.00  0.00    +0.000 S 
ATOM     22  O   UNL     1      11.700  11.799  19.972  0.00  0.00    +0.000 OA
ATOM     23  O   UNL     1       9.745  11.901  21.587  0.00  0.00    +0.000 OA
ATOM     24  C   UNL     1       9.462  12.799  19.202  0.00  0.00    +0.000 A 
ATOM     25  C   UNL     1       9.502  14.179  19.203  0.00  0.00    +0.000 A 
ATOM     26  C   UNL     1       8.712  14.831  18.255  0.00  0.00    +0.000 A 
ATOM     27  C   UNL     1       7.924  14.096  17.348  0.00  0.00    +0.000 A 
ATOM     28  C   UNL     1       7.912  12.695  17.376  0.00  0.00    +0.000 A 
ATOM     29  C   UNL     1       8.694  12.059  18.324  0.00  0.00    +0.000 A 
ATOM     30  H   UNL     1       7.517   9.955  17.176  0.00  0.00    +0.000 HD
ENDBRANCH  17  18
ENDBRANCH  16  17
ENDBRANCH   1  16
TORSDOF 8
ENDMDL
MODEL 5
REMARK VINA RESULT:      -7.9      1.177      1.840
REMARK  Name = 
REMARK  8 active torsions:
REMARK  status: ('A' for Active; 'I' for Inactive)
REMARK    1  A    between atoms: C_2  and  C_3
REMARK    2  A    between atoms: C_2  and  O_18
REMARK    3  A    between atoms: C_3  and  C_4
REMARK    4  A    between atoms: C_4  and  C_5
REMARK    5  A    between atoms: C_5  and  N_6
REMARK    6  A    between atoms: O_18  and  C_19
REMARK    7  A    between atoms: C_19  and  C_20
REMARK    8  A    between atoms: C_20  and  C_22
REMARK                            x       y       z     vdW  Elec       q    Type
REMARK                         _______ _______ _______ _____ _____    ______ ____
ROOT
ATOM      1  C   UNL     1       2.117   5.819  19.094  0.00  0.00    +0.000 C 
ENDROOT
BRANCH   1   3
ATOM      2  O   UNL     1       1.191   4.372  17.381  0.00  0.00    +0.000 OA
ATOM      3  C   UNL     1       1.562   4.529  18.537  0.00  0.00    +0.000 C 
BRANCH   3   4
ATOM      4  O   UNL     1       1.567   3.557  19.489  0.00  0.00    +0.000 OA
BRANCH   4   5
ATOM      5  C   UNL     1       2.865   3.191  19.967  0.00  0.00    +0.000 C 
BRANCH   5   6
ATOM      6  C   UNL     1       3.769   2.623  18.874  0.00  0.00    +0.000 C 
ATOM      7  O   UNL     1       3.745   1.434  18.555  0.00  0.00    +0.000 OA
BRANCH   6   8
ATOM      8  C   UNL     1       4.733   3.541  18.184  0.00  0.00    +0.000 A 
ATOM      9  C   UNL     1       5.681   4.307  18.882  0.00  0.00    +0.000 A 
ATOM     10  C   UNL     1       6.561   5.149  18.190  0.00  0.00    +0.000 A 
ATOM     11  C   UNL     1       6.496   5.224  16.802  0.00  0.00    +0.000 A 
ATOM     12  F   UNL     1       7.341   6.029  16.148  0.00  0.00    +0.000 F 
ATOM     13  C   UNL     1       5.565   4.468  16.105  0.00  0.00    +0.000 A 
ATOM     14  F   UNL     1       5.507   4.538  14.768  0.00  0.00    +0.000 F 
ATOM     15  C   UNL     1       4.685   3.628  16.781  0.00  0.00    +0.000 A 
ENDBRANCH   6   8
ENDBRANCH   5   6
ENDBRANCH   4   5
ENDBRANCH   3   4
ENDBRANCH   1   3
BRANCH   1  16
ATOM     16  C   UNL     1       2.840   6.643  18.028  0.00  0.00    +0.000 C 
BRANCH  16  17
ATOM     17  C   UNL     1       2.443   8.120  18.078  0.00  0.00    +0.000 C 
BRANCH  17  18
ATOM     18  N   UNL     1       1.771   8.418  19.329  0.00  0.00    +0.000 N 
ATOM     19  C   UNL     1       0.968   9.511  19.525  0.00  0.00    +0.000 C 
ATOM     20  N   UNL     1       0.682  10.382  18.598  0.00  0.00    +0.000 NA
ATOM     21  S   UNL     1      -0.305  11.557  19.178  0.00  0.00    +0.000 S 
ATOM     22  O   UNL     1      -1.621  11.439  18.588  0.00  0.00    +0.000 OA
ATOM     23  O   UNL     1       0.401  12.816  19.264  0.00  0.00    +0.000 OA
ATOM     24  C   UNL     1      -0.407  10.921  20.792  0.00  0.00    +0.000 A 
ATOM     25  C   UNL     1      -1.089  11.438  21.875  0.00  0.00    +0.000 A 
ATOM     26  C   UNL     1      -0.978  10.742  23.079  0.00  0.00    +0.000 A 
ATOM     27  C   UNL     1      -0.205   9.567  23.160  0.00  0.00    +0.000 A 
ATOM     28  C   UNL     1       0.471   9.070  22.038  0.00  0.00    +0.000 A 
ATOM     29  C   UNL     1       0.359   9.773  20.851  0.00  0.00    +0.000 A 
ATOM     30  H   UNL     1       2.041   7.835  20.111  0.00  0.00    +0.000 HD
ENDBRANCH  17  18
ENDBRANCH  16  17
ENDBRANCH   1  16
TORSDOF 8
ENDMDL
MODEL 6
REMARK VINA RESULT:      -7.8      1.839      2.603
REMARK  Name = 
REMARK  8 active torsions:
REMARK  status: ('A' for Active; 'I' for Inactive)
REMARK    1  A    between atoms: C_2  and  C_3
REMARK    2  A    between atoms: C_2  and  O_18
REMARK    3  A    between atoms: C_3  and  C_4
REMARK    4  A    between atoms: C_4  and  C_5
REMARK    5  A    between atoms: C_5  and  N_6
REMARK    6  A    between atoms: O_18  and  C_19
REMARK    7  A    between atoms: C_19  and  C_20
REMARK    8  A    between atoms: C_20  and  C_22
REMARK                            x       y       z     vdW  Elec       q    Type
REMARK                         _______ _______ _______ _____ _____    ______ ____
ROOT
ATOM      1  C   UNL     1       2.671   6.245  19.032  0.00  0.00    +0.000 C 
ENDROOT
BRANCH   1   3
ATOM      2  O   UNL     1       3.280   3.937  19.465  0.00  0.00    +0.000 OA
ATOM      3  C   UNL     1       3.160   4.862  18.672  0.00  0.00    +0.000 C 
BRANCH   3   4
ATOM      4  O   UNL     1       3.414   4.778  17.337  0.00  0.00    +0.000 OA
BRANCH   4   5
ATOM      5  C   UNL     1       4.251   3.683  16.954  0.00  0.00    +0.000 C 
BRANCH   5   6
ATOM      6  C   UNL     1       5.581   4.128  16.346  0.00  0.00    +0.000 C 
ATOM      7  O   UNL     1       5.971   3.721  15.252  0.00  0.00    +0.000 OA
BRANCH   6   8
ATOM      8  C   UNL     1       6.448   5.074  17.121  0.00  0.00    +0.000 A 
ATOM      9  C   UNL     1       7.228   4.663  18.216  0.00  0.00    +0.000 A 
ATOM     10  C   UNL     1       8.023   5.587  18.905  0.00  0.00    +0.000 A 
ATOM     11  C   UNL     1       8.043   6.919  18.502  0.00  0.00    +0.000 A 
ATOM     12  F   UNL     1       8.807   7.794  19.165  0.00  0.00    +0.000 F 
ATOM     13  C   UNL     1       7.280   7.331  17.420  0.00  0.00    +0.000 A 
ATOM     14  F   UNL     1       7.303   8.613  17.030  0.00  0.00    +0.000 F 
ATOM     15  C   UNL     1       6.484   6.423  16.727  0.00  0.00    +0.000 A 
ENDBRANCH   6   8
ENDBRANCH   5   6
ENDBRANCH   4   5
ENDBRANCH   3   4
ENDBRANCH   1   3
BRANCH   1  16
ATOM     16  C   UNL     1       3.161   7.305  18.044  0.00  0.00    +0.000 C 
BRANCH  16  17
ATOM     17  C   UNL     1       2.188   8.480  17.935  0.00  0.00    +0.000 C 
BRANCH  17  18
ATOM     18  N   UNL     1       1.532   8.710  19.208  0.00  0.00    +0.000 N 
ATOM     19  C   UNL     1       0.768   9.812  19.488  0.00  0.00    +0.000 C 
ATOM     20  N   UNL     1       0.509  10.757  18.628  0.00  0.00    +0.000 NA
ATOM     21  S   UNL     1      -0.435  11.921  19.298  0.00  0.00    +0.000 S 
ATOM     22  O   UNL     1      -1.756  11.892  18.709  0.00  0.00    +0.000 OA
ATOM     23  O   UNL     1       0.315  13.145  19.470  0.00  0.00    +0.000 OA
ATOM     24  C   UNL     1      -0.551  11.174  20.862  0.00  0.00    +0.000 A 
ATOM     25  C   UNL     1      -1.211  11.634  21.985  0.00  0.00    +0.000 A 
ATOM     26  C   UNL     1      -1.120  10.849  23.134  0.00  0.00    +0.000 A 
ATOM     27  C   UNL     1      -0.388   9.646  23.125  0.00  0.00    +0.000 A 
ATOM     28  C   UNL     1       0.267   9.209  21.965  0.00  0.00    +0.000 A 
ATOM     29  C   UNL     1       0.174   9.999  20.833  0.00  0.00    +0.000 A 
ATOM     30  H   UNL     1       1.784   8.063  19.944  0.00  0.00    +0.000 HD
ENDBRANCH  17  18
ENDBRANCH  16  17
ENDBRANCH   1  16
TORSDOF 8
ENDMDL
MODEL 7
REMARK VINA RESULT:      -7.8      1.856      2.616
REMARK  Name = 
REMARK  8 active torsions:
REMARK  status: ('A' for Active; 'I' for Inactive)
REMARK    1  A    between atoms: C_2  and  C_3
REMARK    2  A    between atoms: C_2  and  O_18
REMARK    3  A    between atoms: C_3  and  C_4
REMARK    4  A    between atoms: C_4  and  C_5
REMARK    5  A    between atoms: C_5  and  N_6
REMARK    6  A    between atoms: O_18  and  C_19
REMARK    7  A    between atoms: C_19  and  C_20
REMARK    8  A    between atoms: C_20  and  C_22
REMARK                            x       y       z     vdW  Elec       q    Type
REMARK                         _______ _______ _______ _____ _____    ______ ____
ROOT
ATOM      1  C   UNL     1       1.774   5.279  20.684  0.00  0.00    +0.000 C 
ENDROOT
BRANCH   1   3
ATOM      2  O   UNL     1       1.029   2.990  20.994  0.00  0.00    +0.000 OA
ATOM      3  C   UNL     1       1.355   3.897  20.239  0.00  0.00    +0.000 C 
BRANCH   3   4
ATOM      4  O   UNL     1       1.355   3.813  18.880  0.00  0.00    +0.000 OA
BRANCH   4   5
ATOM      5  C   UNL     1       1.703   2.528  18.359  0.00  0.00    +0.000 C 
BRANCH   5   6
ATOM      6  C   UNL     1       3.211   2.287  18.310  0.00  0.00    +0.000 C 
ATOM      7  O   UNL     1       3.700   1.162  18.410  0.00  0.00    +0.000 OA
BRANCH   6   8
ATOM      8  C   UNL     1       4.126   3.466  18.158  0.00  0.00    +0.000 A 
ATOM      9  C   UNL     1       4.947   3.927  19.202  0.00  0.00    +0.000 A 
ATOM     10  C   UNL     1       5.785   5.032  19.007  0.00  0.00    +0.000 A 
ATOM     11  C   UNL     1       5.806   5.675  17.774  0.00  0.00    +0.000 A 
ATOM     12  F   UNL     1       6.611   6.728  17.597  0.00  0.00    +0.000 F 
ATOM     13  C   UNL     1       5.002   5.223  16.738  0.00  0.00    +0.000 A 
ATOM     14  F   UNL     1       5.026   5.841  15.549  0.00  0.00    +0.000 F 
ATOM     15  C   UNL     1       4.164   4.127  16.918  0.00  0.00    +0.000 A 
ENDBRANCH   6   8
ENDBRANCH   5   6
ENDBRANCH   4   5
ENDBRANCH   3   4
ENDBRANCH   1   3
BRANCH   1  16
ATOM     16  C   UNL     1       2.124   6.183  19.502  0.00  0.00    +0.000 C 
BRANCH  16  17
ATOM     17  C   UNL     1       2.275   7.646  19.924  0.00  0.00    +0.000 C 
BRANCH  17  18
ATOM     18  N   UNL     1       1.243   8.457  19.304  0.00  0.00    +0.000 N 
ATOM     19  C   UNL     1       0.599   9.489  19.934  0.00  0.00    +0.000 C 
ATOM     20  N   UNL     1       0.871   9.888  21.145  0.00  0.00    +0.000 NA
ATOM     21  S   UNL     1      -0.088  11.145  21.581  0.00  0.00    +0.000 S 
ATOM     22  O   UNL     1       0.694  12.357  21.685  0.00  0.00    +0.000 OA
ATOM     23  O   UNL     1      -1.030  10.736  22.600  0.00  0.00    +0.000 OA
ATOM     24  C   UNL     1      -0.965  11.225  20.083  0.00  0.00    +0.000 A 
ATOM     25  C   UNL     1      -1.992  12.081  19.736  0.00  0.00    +0.000 A 
ATOM     26  C   UNL     1      -2.551  11.911  18.470  0.00  0.00    +0.000 A 
ATOM     27  C   UNL     1      -2.072  10.910  17.601  0.00  0.00    +0.000 A 
ATOM     28  C   UNL     1      -1.025  10.062  17.988  0.00  0.00    +0.000 A 
ATOM     29  C   UNL     1      -0.483  10.236  19.249  0.00  0.00    +0.000 A 
ATOM     30  H   UNL     1       0.919   8.126  18.404  0.00  0.00    +0.000 HD
ENDBRANCH  17  18
ENDBRANCH  16  17
ENDBRANCH   1  16
TORSDOF 8
ENDMDL
MODEL 8
REMARK VINA RESULT:      -7.8      4.902      7.554
REMARK  Name = 
REMARK  8 active torsions:
REMARK  status: ('A' for Active; 'I' for Inactive)
REMARK    1  A    between atoms: C_2  and  C_3
REMARK    2  A    between atoms: C_2  and  O_18
REMARK    3  A    between atoms: C_3  and  C_4
REMARK    4  A    between atoms: C_4  and  C_5
REMARK    5  A    between atoms: C_5  and  N_6
REMARK    6  A    between atoms: O_18  and  C_19
REMARK    7  A    between atoms: C_19  and  C_20
REMARK    8  A    between atoms: C_20  and  C_22
REMARK                            x       y       z     vdW  Elec       q    Type
REMARK                         _______ _______ _______ _____ _____    ______ ____
ROOT
ATOM      1  C   UNL     1       7.249   5.709  16.392  0.00  0.00    +0.000 C 
ENDROOT
BRANCH   1   3
ATOM      2  O   UNL     1       7.949   4.399  18.311  0.00  0.00    +0.000 OA
ATOM      3  C   UNL     1       7.541   5.458  17.853  0.00  0.00    +0.000 C 
BRANCH   3   4
ATOM      4  O   UNL     1       7.321   6.586  18.584  0.00  0.00    +0.000 OA
BRANCH   4   5
ATOM      5  C   UNL     1       8.418   7.503  18.615  0.00  0.00    +0.000 C 
BRANCH   5   6
ATOM      6  C   UNL     1       8.069   8.877  18.044  0.00  0.00    +0.000 C 
ATOM      7  O   UNL     1       7.225   9.025  17.161  0.00  0.00    +0.000 OA
BRANCH   6   8
ATOM      8  C   UNL     1       8.798  10.080  18.563  0.00  0.00    +0.000 A 
ATOM      9  C   UNL     1       9.379  10.121  19.841  0.00  0.00    +0.000 A 
ATOM     10  C   UNL     1      10.051  11.270  20.277  0.00  0.00    +0.000 A 
ATOM     11  C   UNL     1      10.145  12.376  19.438  0.00  0.00    +0.000 A 
ATOM     12  F   UNL     1      10.790  13.469  19.862  0.00  0.00    +0.000 F 
ATOM     13  C   UNL     1       9.577  12.342  18.173  0.00  0.00    +0.000 A 
ATOM     14  F   UNL     1       9.671  13.407  17.364  0.00  0.00    +0.000 F 
ATOM     15  C   UNL     1       8.906  11.207  17.728  0.00  0.00    +0.000 A 
ENDBRANCH   6   8
ENDBRANCH   5   6
ENDBRANCH   4   5
ENDBRANCH   3   4
ENDBRANCH   1   3
BRANCH   1  16
ATOM     16  C   UNL     1       6.801   4.438  15.668  0.00  0.00    +0.000 C 
BRANCH  16  17
ATOM     17  C   UNL     1       5.305   4.459  15.348  0.00  0.00    +0.000 C 
BRANCH  17  18
ATOM     18  N   UNL     1       4.566   5.076  16.433  0.00  0.00    +0.000 N 
ATOM     19  C   UNL     1       4.112   4.397  17.533  0.00  0.00    +0.000 C 
ATOM     20  N   UNL     1       4.329   3.130  17.750  0.00  0.00    +0.000 NA
ATOM     21  S   UNL     1       3.644   2.647  19.160  0.00  0.00    +0.000 S 
ATOM     22  O   UNL     1       4.669   2.341  20.134  0.00  0.00    +0.000 OA
ATOM     23  O   UNL     1       2.524   1.769  18.905  0.00  0.00    +0.000 OA
ATOM     24  C   UNL     1       2.985   4.200  19.576  0.00  0.00    +0.000 A 
ATOM     25  C   UNL     1       2.231   4.542  20.682  0.00  0.00    +0.000 A 
ATOM     26  C   UNL     1       1.796   5.865  20.760  0.00  0.00    +0.000 A 
ATOM     27  C   UNL     1       2.126   6.791  19.751  0.00  0.00    +0.000 A 
ATOM     28  C   UNL     1       2.896   6.407  18.645  0.00  0.00    +0.000 A 
ATOM     29  C   UNL     1       3.317   5.091  18.575  0.00  0.00    +0.000 A 
ATOM     30  H   UNL     1       4.279   6.032  16.268  0.00  0.00    +0.000 HD
ENDBRANCH  17  18
ENDBRANCH  16  17
ENDBRANCH   1  16
TORSDOF 8
ENDMDL
MODEL 9
REMARK VINA RESULT:      -7.8      2.310      3.124
REMARK  Name = 
REMARK  8 active torsions:
REMARK  status: ('A' for Active; 'I' for Inactive)
REMARK    1  A    between atoms: C_2  and  C_3
REMARK    2  A    between atoms: C_2  and  O_18
REMARK    3  A    between atoms: C_3  and  C_4
REMARK    4  A    between atoms: C_4  and  C_5
REMARK    5  A    between atoms: C_5  and  N_6
REMARK    6  A    between atoms: O_18  and  C_19
REMARK    7  A    between atoms: C_19  and  C_20
REMARK    8  A    between atoms: C_20  and  C_22
REMARK                            x       y       z     vdW  Elec       q    Type
REMARK                         _______ _______ _______ _____ _____    ______ ____
ROOT
ATOM      1  C   UNL     1       2.923   6.636  19.375  0.00  0.00    +0.000 C 
ENDROOT
BRANCH   1   3
ATOM      2  O   UNL     1       1.655   5.022  20.670  0.00  0.00    +0.000 OA
ATOM      3  C   UNL     1       2.195   5.334  19.617  0.00  0.00    +0.000 C 
BRANCH   3   4
ATOM      4  O   UNL     1       2.193   4.572  18.488  0.00  0.00    +0.000 OA
BRANCH   4   5
ATOM      5  C   UNL     1       2.809   3.289  18.629  0.00  0.00    +0.000 C 
BRANCH   5   6
ATOM      6  C   UNL     1       4.319   3.370  18.856  0.00  0.00    +0.000 C 
ATOM      7  O   UNL     1       4.843   3.016  19.911  0.00  0.00    +0.000 OA
BRANCH   6   8
ATOM      8  C   UNL     1       5.184   3.920  17.762  0.00  0.00    +0.000 A 
ATOM      9  C   UNL     1       6.410   4.559  18.015  0.00  0.00    +0.000 A 
ATOM     10  C   UNL     1       7.183   5.054  16.957  0.00  0.00    +0.000 A 
ATOM     11  C   UNL     1       6.734   4.910  15.648  0.00  0.00    +0.000 A 
ATOM     12  F   UNL     1       7.479   5.384  14.643  0.00  0.00    +0.000 F 
ATOM     13  C   UNL     1       5.527   4.278  15.390  0.00  0.00    +0.000 A 
ATOM     14  F   UNL     1       5.098   4.136  14.128  0.00  0.00    +0.000 F 
ATOM     15  C   UNL     1       4.750   3.782  16.432  0.00  0.00    +0.000 A 
ENDBRANCH   6   8
ENDBRANCH   5   6
ENDBRANCH   4   5
ENDBRANCH   3   4
ENDBRANCH   1   3
BRANCH   1  16
ATOM     16  C   UNL     1       2.573   7.248  18.018  0.00  0.00    +0.000 C 
BRANCH  16  17
ATOM     17  C   UNL     1       2.439   8.770  18.093  0.00  0.00    +0.000 C 
BRANCH  17  18
ATOM     18  N   UNL     1       1.085   9.172  17.763  0.00  0.00    +0.000 N 
ATOM     19  C   UNL     1       0.348  10.062  18.501  0.00  0.00    +0.000 C 
ATOM     20  N   UNL     1       0.796  10.680  19.557  0.00  0.00    +0.000 NA
ATOM     21  S   UNL     1      -0.348  11.670  20.191  0.00  0.00    +0.000 S 
ATOM     22  O   UNL     1       0.028  13.054  19.998  0.00  0.00    +0.000 OA
ATOM     23  O   UNL     1      -0.816  11.158  21.460  0.00  0.00    +0.000 OA
ATOM     24  C   UNL     1      -1.571  11.300  19.013  0.00  0.00    +0.000 A 
ATOM     25  C   UNL     1      -2.863  11.784  18.940  0.00  0.00    +0.000 A 
ATOM     26  C   UNL     1      -3.658  11.296  17.902  0.00  0.00    +0.000 A 
ATOM     27  C   UNL     1      -3.145  10.359  16.984  0.00  0.00    +0.000 A 
ATOM     28  C   UNL     1      -1.827   9.894  17.089  0.00  0.00    +0.000 A 
ATOM     29  C   UNL     1      -1.050  10.380  18.126  0.00  0.00    +0.000 A 
ATOM     30  H   UNL     1       0.650   8.646  17.016  0.00  0.00    +0.000 HD
ENDBRANCH  17  18
ENDBRANCH  16  17
ENDBRANCH   1  16
TORSDOF 8
ENDMDL
