MODEL 1
REMARK VINA RESULT:      -6.0      0.000      0.000
REMARK  Name = 
REMARK  4 active torsions:
REMARK  status: ('A' for Active; 'I' for Inactive)
REMARK    1  A    between atoms: C_1  and  C_2
REMARK    2  A    between atoms: C_2  and  C_3
REMARK    3  A    between atoms: C_3  and  C_4
REMARK    4  A    between atoms: C_4  and  C_5
REMARK                            x       y       z     vdW  Elec       q    Type
REMARK                         _______ _______ _______ _____ _____    ______ ____
ROOT
ATOM      1  C   UNL     1       6.543   5.865  17.808  0.00  0.00    +0.000 C 
ATOM      2  C   UNL     1       5.576   6.548  16.821  0.00  0.00    +0.000 C 
ATOM      3  C   UNL     1       5.462   5.627  15.613  0.00  0.00    +0.000 C 
ATOM      4  C   UNL     1       6.640   4.740  15.739  0.00  0.00    +0.000 C 
ATOM      5  N   UNL     1       7.173   4.866  16.918  0.00  0.00    +0.000 N 
ATOM      6  O   UNL     1       8.182   4.176  17.277  0.00  0.00    +0.000 OA
ENDROOT
BRANCH   1   7
ATOM      7  C   UNL     1       5.802   5.060  18.871  0.00  0.00    +0.000 C 
ATOM      8  N   UNL     1       5.888   3.699  18.804  0.00  0.00    +0.000 N 
ATOM      9  O   UNL     1       5.108   5.575  19.745  0.00  0.00    +0.000 OA
ATOM     10  H   UNL     1       6.056   3.252  17.910  0.00  0.00    +0.000 HD
ATOM     11  H   UNL     1       5.286   3.197  19.441  0.00  0.00    +0.000 HD
ENDBRANCH   1   7
BRANCH   1  12
ATOM     12  C   UNL     1       7.656   6.813  18.290  0.00  0.00    +0.000 C 
BRANCH  12  14
ATOM     13  C   UNL     1       8.426   9.209  18.277  0.00  0.00    +0.000 C 
ATOM     14  C   UNL     1       7.805   8.087  17.454  0.00  0.00    +0.000 C 
ENDBRANCH  12  14
ENDBRANCH   1  12
TORSDOF 3
ENDMDL
MODEL 2
REMARK VINA RESULT:      -5.8      1.078      1.110
REMARK  Name = 
REMARK  4 active torsions:
REMARK  status: ('A' for Active; 'I' for Inactive)
REMARK    1  A    between atoms: C_1  and  C_2
REMARK    2  A    between atoms: C_2  and  C_3
REMARK    3  A    between atoms: C_3  and  C_4
REMARK    4  A    between atoms: C_4  and  C_5
REMARK                            x       y       z     vdW  Elec       q    Type
REMARK                         _______ _______ _______ _____ _____    ______ ____
ROOT
ATOM      1  C   UNL     1       6.076   5.410  17.219  0.00  0.00    +0.000 C 
ATOM      2  C   UNL     1       5.300   6.004  16.026  0.00  0.00    +0.000 C 
ATOM      3  C   UNL     1       5.719   5.213  14.794  0.00  0.00    +0.000 C 
ATOM      4  C   UNL     1       6.974   4.550  15.216  0.00  0.00    +0.000 C 
ATOM      5  N   UNL     1       7.121   4.646  16.504  0.00  0.00    +0.000 N 
ATOM      6  O   UNL     1       8.112   4.120  17.108  0.00  0.00    +0.000 OA
ENDROOT
BRANCH   1   7
ATOM      7  C   UNL     1       5.254   4.373  17.977  0.00  0.00    +0.000 C 
ATOM      8  N   UNL     1       5.824   3.799  19.076  0.00  0.00    +0.000 N 
ATOM      9  O   UNL     1       4.136   4.008  17.621  0.00  0.00    +0.000 OA
ATOM     10  H   UNL     1       6.833   3.734  19.141  0.00  0.00    +0.000 HD
ATOM     11  H   UNL     1       5.307   3.029  19.478  0.00  0.00    +0.000 HD
ENDBRANCH   1   7
BRANCH   1  12
ATOM     12  C   UNL     1       6.789   6.491  18.052  0.00  0.00    +0.000 C 
BRANCH  12  14
ATOM     13  C   UNL     1       8.209   8.568  18.097  0.00  0.00    +0.000 C 
ATOM     14  C   UNL     1       7.365   7.645  17.227  0.00  0.00    +0.000 C 
ENDBRANCH  12  14
ENDBRANCH   1  12
TORSDOF 3
ENDMDL
MODEL 3
REMARK VINA RESULT:      -5.6      1.800      3.582
REMARK  Name = 
REMARK  4 active torsions:
REMARK  status: ('A' for Active; 'I' for Inactive)
REMARK    1  A    between atoms: C_1  and  C_2
REMARK    2  A    between atoms: C_2  and  C_3
REMARK    3  A    between atoms: C_3  and  C_4
REMARK    4  A    between atoms: C_4  and  C_5
REMARK                            x       y       z     vdW  Elec       q    Type
REMARK                         _______ _______ _______ _____ _____    ______ ____
ROOT
ATOM      1  C   UNL     1       6.444   5.865  17.180  0.00  0.00    +0.000 C 
ATOM      2  C   UNL     1       5.264   6.547  16.459  0.00  0.00    +0.000 C 
ATOM      3  C   UNL     1       4.139   6.668  17.479  0.00  0.00    +0.000 C 
ATOM      4  C   UNL     1       4.522   5.703  18.535  0.00  0.00    +0.000 C 
ATOM      5  N   UNL     1       5.752   5.319  18.367  0.00  0.00    +0.000 N 
ATOM      6  O   UNL     1       6.321   4.513  19.175  0.00  0.00    +0.000 OA
ENDROOT
BRANCH   1   7
ATOM      7  C   UNL     1       7.449   6.879  17.718  0.00  0.00    +0.000 C 
ATOM      8  N   UNL     1       8.094   6.569  18.881  0.00  0.00    +0.000 N 
ATOM      9  O   UNL     1       7.666   7.962  17.181  0.00  0.00    +0.000 OA
ATOM     10  H   UNL     1       7.651   5.948  19.549  0.00  0.00    +0.000 HD
ATOM     11  H   UNL     1       8.653   7.313  19.275  0.00  0.00    +0.000 HD
ENDBRANCH   1   7
BRANCH   1  12
ATOM     12  C   UNL     1       7.004   4.670  16.387  0.00  0.00    +0.000 C 
BRANCH  12  14
ATOM     13  C   UNL     1       6.257   3.941  14.097  0.00  0.00    +0.000 C 
ATOM     14  C   UNL     1       5.953   3.894  15.590  0.00  0.00    +0.000 C 
ENDBRANCH  12  14
ENDBRANCH   1  12
TORSDOF 3
ENDMDL
MODEL 4
REMARK VINA RESULT:      -5.6      3.887      5.557
REMARK  Name = 
REMARK  4 active torsions:
REMARK  status: ('A' for Active; 'I' for Inactive)
REMARK    1  A    between atoms: C_1  and  C_2
REMARK    2  A    between atoms: C_2  and  C_3
REMARK    3  A    between atoms: C_3  and  C_4
REMARK    4  A    between atoms: C_4  and  C_5
REMARK                            x       y       z     vdW  Elec       q    Type
REMARK                         _______ _______ _______ _____ _____    ______ ____
ROOT
ATOM      1  C   UNL     1       2.950   3.420  18.999  0.00  0.00    +0.000 C 
ATOM      2  C   UNL     1       3.138   4.527  20.055  0.00  0.00    +0.000 C 
ATOM      3  C   UNL     1       2.095   4.281  21.138  0.00  0.00    +0.000 C 
ATOM      4  C   UNL     1       1.118   3.383  20.481  0.00  0.00    +0.000 C 
ATOM      5  N   UNL     1       1.608   2.922  19.369  0.00  0.00    +0.000 N 
ATOM      6  O   UNL     1       0.963   2.098  18.641  0.00  0.00    +0.000 OA
ENDROOT
BRANCH   1   7
ATOM      7  C   UNL     1       3.901   2.248  19.224  0.00  0.00    +0.000 C 
ATOM      8  N   UNL     1       3.759   1.158  18.414  0.00  0.00    +0.000 N 
ATOM      9  O   UNL     1       4.746   2.227  20.116  0.00  0.00    +0.000 OA
ATOM     10  H   UNL     1       2.856   0.956  18.000  0.00  0.00    +0.000 HD
ATOM     11  H   UNL     1       4.315   0.355  18.671  0.00  0.00    +0.000 HD
ENDBRANCH   1   7
BRANCH   1  12
ATOM     12  C   UNL     1       2.851   3.982  17.570  0.00  0.00    +0.000 C 
BRANCH  12  14
ATOM     13  C   UNL     1       4.950   4.187  16.197  0.00  0.00    +0.000 C 
ATOM     14  C   UNL     1       4.014   4.894  17.170  0.00  0.00    +0.000 C 
ENDBRANCH  12  14
ENDBRANCH   1  12
TORSDOF 3
ENDMDL
MODEL 5
REMARK VINA RESULT:      -5.6      3.037      4.642
REMARK  Name = 
REMARK  4 active torsions:
REMARK  status: ('A' for Active; 'I' for Inactive)
REMARK    1  A    between atoms: C_1  and  C_2
REMARK    2  A    between atoms: C_2  and  C_3
REMARK    3  A    between atoms: C_3  and  C_4
REMARK    4  A    between atoms: C_4  and  C_5
REMARK                            x       y       z     vdW  Elec       q    Type
REMARK                         _______ _______ _______ _____ _____    ______ ____
ROOT
ATOM      1  C   UNL     1       3.954   3.846  18.903  0.00  0.00    +0.000 C 
ATOM      2  C   UNL     1       3.390   4.052  17.484  0.00  0.00    +0.000 C 
ATOM      3  C   UNL     1       4.584   4.293  16.568  0.00  0.00    +0.000 C 
ATOM      4  C   UNL     1       5.673   4.651  17.505  0.00  0.00    +0.000 C 
ATOM      5  N   UNL     1       5.323   4.378  18.726  0.00  0.00    +0.000 N 
ATOM      6  O   UNL     1       6.111   4.567  19.710  0.00  0.00    +0.000 OA
ENDROOT
BRANCH   1   7
ATOM      7  C   UNL     1       4.127   2.368  19.241  0.00  0.00    +0.000 C 
ATOM      8  N   UNL     1       5.054   2.044  20.189  0.00  0.00    +0.000 N 
ATOM      9  O   UNL     1       3.508   1.471  18.675  0.00  0.00    +0.000 OA
ATOM     10  H   UNL     1       5.848   2.656  20.344  0.00  0.00    +0.000 HD
ATOM     11  H   UNL     1       5.233   1.055  20.297  0.00  0.00    +0.000 HD
ENDBRANCH   1   7
BRANCH   1  12
ATOM     12  C   UNL     1       3.252   4.731  19.948  0.00  0.00    +0.000 C 
BRANCH  12  14
ATOM     13  C   UNL     1       0.891   3.909  20.240  0.00  0.00    +0.000 C 
ATOM     14  C   UNL     1       2.281   3.977  20.861  0.00  0.00    +0.000 C 
ENDBRANCH  12  14
ENDBRANCH   1  12
TORSDOF 3
ENDMDL
MODEL 6
REMARK VINA RESULT:      -5.6      4.249      5.363
REMARK  Name = 
REMARK  4 active torsions:
REMARK  status: ('A' for Active; 'I' for Inactive)
REMARK    1  A    between atoms: C_1  and  C_2
REMARK    2  A    between atoms: C_2  and  C_3
REMARK    3  A    between atoms: C_3  and  C_4
REMARK    4  A    between atoms: C_4  and  C_5
REMARK                            x       y       z     vdW  Elec       q    Type
REMARK                         _______ _______ _______ _____ _____    ______ ____
ROOT
ATOM      1  C   UNL     1       3.203   3.386  19.371  0.00  0.00    +0.000 C 
ATOM      2  C   UNL     1       2.477   3.653  20.704  0.00  0.00    +0.000 C 
ATOM      3  C   UNL     1       1.111   2.986  20.599  0.00  0.00    +0.000 C 
ATOM      4  C   UNL     1       0.938   2.775  19.144  0.00  0.00    +0.000 C 
ATOM      5  N   UNL     1       2.065   2.966  18.526  0.00  0.00    +0.000 N 
ATOM      6  O   UNL     1       2.175   2.808  17.265  0.00  0.00    +0.000 OA
ENDROOT
BRANCH   1   7
ATOM      7  C   UNL     1       4.125   2.173  19.454  0.00  0.00    +0.000 C 
ATOM      8  N   UNL     1       4.019   1.234  18.468  0.00  0.00    +0.000 N 
ATOM      9  O   UNL     1       4.914   1.989  20.377  0.00  0.00    +0.000 OA
ATOM     10  H   UNL     1       3.141   1.122  17.976  0.00  0.00    +0.000 HD
ATOM     11  H   UNL     1       4.550   0.388  18.621  0.00  0.00    +0.000 HD
ENDBRANCH   1   7
BRANCH   1  12
ATOM     12  C   UNL     1       3.783   4.671  18.751  0.00  0.00    +0.000 C 
BRANCH  12  14
ATOM     13  C   UNL     1       2.570   6.822  18.268  0.00  0.00    +0.000 C 
ATOM     14  C   UNL     1       3.223   5.965  19.346  0.00  0.00    +0.000 C 
ENDBRANCH  12  14
ENDBRANCH   1  12
TORSDOF 3
ENDMDL
MODEL 7
REMARK VINA RESULT:      -5.6      1.689      3.495
REMARK  Name = 
REMARK  4 active torsions:
REMARK  status: ('A' for Active; 'I' for Inactive)
REMARK    1  A    between atoms: C_1  and  C_2
REMARK    2  A    between atoms: C_2  and  C_3
REMARK    3  A    between atoms: C_3  and  C_4
REMARK    4  A    between atoms: C_4  and  C_5
REMARK                            x       y       z     vdW  Elec       q    Type
REMARK                         _______ _______ _______ _____ _____    ______ ____
ROOT
ATOM      1  C   UNL     1       5.995   5.540  17.212  0.00  0.00    +0.000 C 
ATOM      2  C   UNL     1       6.763   6.876  17.179  0.00  0.00    +0.000 C 
ATOM      3  C   UNL     1       7.785   6.822  18.308  0.00  0.00    +0.000 C 
ATOM      4  C   UNL     1       7.288   5.729  19.175  0.00  0.00    +0.000 C 
ATOM      5  N   UNL     1       6.364   5.053  18.559  0.00  0.00    +0.000 N 
ATOM      6  O   UNL     1       5.807   4.037  19.091  0.00  0.00    +0.000 OA
ENDROOT
BRANCH   1   7
ATOM      7  C   UNL     1       6.574   4.523  16.233  0.00  0.00    +0.000 C 
ATOM      8  N   UNL     1       5.904   3.343  16.082  0.00  0.00    +0.000 N 
ATOM      9  O   UNL     1       7.623   4.702  15.618  0.00  0.00    +0.000 OA
ATOM     10  H   UNL     1       5.335   2.990  16.842  0.00  0.00    +0.000 HD
ATOM     11  H   UNL     1       6.380   2.646  15.526  0.00  0.00    +0.000 HD
ENDBRANCH   1   7
BRANCH   1  12
ATOM     12  C   UNL     1       4.469   5.739  17.201  0.00  0.00    +0.000 C 
BRANCH  12  14
ATOM     13  C   UNL     1       2.671   7.148  18.258  0.00  0.00    +0.000 C 
ATOM     14  C   UNL     1       4.017   7.161  17.543  0.00  0.00    +0.000 C 
ENDBRANCH  12  14
ENDBRANCH   1  12
TORSDOF 3
ENDMDL
MODEL 8
REMARK VINA RESULT:      -5.6      3.790      5.167
REMARK  Name = 
REMARK  4 active torsions:
REMARK  status: ('A' for Active; 'I' for Inactive)
REMARK    1  A    between atoms: C_1  and  C_2
REMARK    2  A    between atoms: C_2  and  C_3
REMARK    3  A    between atoms: C_3  and  C_4
REMARK    4  A    between atoms: C_4  and  C_5
REMARK                            x       y       z     vdW  Elec       q    Type
REMARK                         _______ _______ _______ _____ _____    ______ ____
ROOT
ATOM      1  C   UNL     1       3.103   3.497  19.471  0.00  0.00    +0.000 C 
ATOM      2  C   UNL     1       2.083   4.319  20.283  0.00  0.00    +0.000 C 
ATOM      3  C   UNL     1       0.743   3.606  20.154  0.00  0.00    +0.000 C 
ATOM      4  C   UNL     1       0.931   2.722  18.981  0.00  0.00    +0.000 C 
ATOM      5  N   UNL     1       2.189   2.662  18.661  0.00  0.00    +0.000 N 
ATOM      6  O   UNL     1       2.604   1.934  17.700  0.00  0.00    +0.000 OA
ENDROOT
BRANCH   1   7
ATOM      7  C   UNL     1       3.880   2.522  20.350  0.00  0.00    +0.000 C 
ATOM      8  N   UNL     1       4.949   1.884  19.789  0.00  0.00    +0.000 N 
ATOM      9  O   UNL     1       3.564   2.259  21.508  0.00  0.00    +0.000 OA
ATOM     10  H   UNL     1       4.973   1.733  18.787  0.00  0.00    +0.000 HD
ATOM     11  H   UNL     1       5.362   1.155  20.355  0.00  0.00    +0.000 HD
ENDBRANCH   1   7
BRANCH   1  12
ATOM     12  C   UNL     1       3.914   4.366  18.494  0.00  0.00    +0.000 C 
BRANCH  12  14
ATOM     13  C   UNL     1       4.112   6.671  17.503  0.00  0.00    +0.000 C 
ATOM     14  C   UNL     1       3.151   5.572  17.941  0.00  0.00    +0.000 C 
ENDBRANCH  12  14
ENDBRANCH   1  12
TORSDOF 3
ENDMDL
MODEL 9
REMARK VINA RESULT:      -5.6      3.343      5.018
REMARK  Name = 
REMARK  4 active torsions:
REMARK  status: ('A' for Active; 'I' for Inactive)
REMARK    1  A    between atoms: C_1  and  C_2
REMARK    2  A    between atoms: C_2  and  C_3
REMARK    3  A    between atoms: C_3  and  C_4
REMARK    4  A    between atoms: C_4  and  C_5
REMARK                            x       y       z     vdW  Elec       q    Type
REMARK                         _______ _______ _______ _____ _____    ______ ____
ROOT
ATOM      1  C   UNL     1       3.304   4.359  18.757  0.00  0.00    +0.000 C 
ATOM      2  C   UNL     1       2.851   5.650  18.046  0.00  0.00    +0.000 C 
ATOM      3  C   UNL     1       4.082   6.222  17.354  0.00  0.00    +0.000 C 
ATOM      4  C   UNL     1       5.210   5.539  18.028  0.00  0.00    +0.000 C 
ATOM      5  N   UNL     1       4.771   4.543  18.738  0.00  0.00    +0.000 N 
ATOM      6  O   UNL     1       5.561   3.780  19.385  0.00  0.00    +0.000 OA
ENDROOT
BRANCH   1   7
ATOM      7  C   UNL     1       3.034   3.117  17.913  0.00  0.00    +0.000 C 
ATOM      8  N   UNL     1       3.764   1.997  18.190  0.00  0.00    +0.000 N 
ATOM      9  O   UNL     1       2.231   3.095  16.983  0.00  0.00    +0.000 OA
ATOM     10  H   UNL     1       4.683   2.089  18.607  0.00  0.00    +0.000 HD
ATOM     11  H   UNL     1       3.652   1.236  17.534  0.00  0.00    +0.000 HD
ENDBRANCH   1   7
BRANCH   1  12
ATOM     12  C   UNL     1       2.867   4.317  20.232  0.00  0.00    +0.000 C 
BRANCH  12  14
ATOM     13  C   UNL     1       1.369   2.713  21.464  0.00  0.00    +0.000 C 
ATOM     14  C   UNL     1       1.425   3.849  20.449  0.00  0.00    +0.000 C 
ENDBRANCH  12  14
ENDBRANCH   1  12
TORSDOF 3
ENDMDL
