MODEL 1
REMARK VINA RESULT:      -7.9      0.000      0.000
REMARK  Name = 
REMARK  10 active torsions:
REMARK  status: ('A' for Active; 'I' for Inactive)
REMARK    1  A    between atoms: C_1  and  C_2
REMARK    2  A    between atoms: C_7  and  S_8
REMARK    3  A    between atoms: S_8  and  N_11
REMARK    4  A    between atoms: N_11  and  C_12
REMARK    5  A    between atoms: C_12  and  C_13
REMARK    6  A    between atoms: C_12  and  C_24
REMARK    7  A    between atoms: N_15  and  C_16
REMARK    8  A    between atoms: C_16  and  C_17
REMARK    9  A    between atoms: C_24  and  C_25
REMARK   10  A    between atoms: C_24  and  C_26
REMARK                            x       y       z     vdW  Elec       q    Type
REMARK                         _______ _______ _______ _____ _____    ______ ____
ROOT
ATOM      1  C   UNL     1       2.480   4.808  19.918  0.00  0.00    +0.000 C 
ENDROOT
BRANCH   1   2
ATOM      2  C   UNL     1       2.154   6.222  19.354  0.00  0.00    +0.000 C 
ATOM      3  O   UNL     1       2.017   6.440  18.152  0.00  0.00    +0.000 OA
ATOM      4  N   UNL     1       1.969   7.206  20.317  0.00  0.00    +0.000 N 
ATOM      5  H   UNL     1       2.620   7.158  21.093  0.00  0.00    +0.000 HD
BRANCH   4   6
ATOM      6  C   UNL     1       1.635   8.564  19.912  0.00  0.00    +0.000 C 
BRANCH   6   7
ATOM      7  C   UNL     1       0.737   9.267  20.909  0.00  0.00    +0.000 A 
ATOM      8  C   UNL     1       0.792   8.870  22.260  0.00  0.00    +0.000 A 
ATOM      9  C   UNL     1       0.017   9.502  23.237  0.00  0.00    +0.000 A 
ATOM     10  C   UNL     1      -0.804  10.570  22.890  0.00  0.00    +0.000 A 
ATOM     11  C   UNL     1      -0.894  10.962  21.555  0.00  0.00    +0.000 A 
ATOM     12  C   UNL     1      -0.164  10.289  20.566  0.00  0.00    +0.000 A 
ATOM     13 CL   UNL     1      -0.451  10.734  18.921  0.00  0.00    +0.000 Cl
ENDBRANCH   6   7
ENDBRANCH   4   6
ENDBRANCH   1   2
BRANCH   1  14
ATOM     14  C   UNL     1       1.134   4.096  20.293  0.00  0.00    +0.000 C 
ATOM     15  C   UNL     1       0.543   3.242  19.159  0.00  0.00    +0.000 C 
ATOM     16  C   UNL     1       1.316   3.166  21.507  0.00  0.00    +0.000 C 
ENDBRANCH   1  14
BRANCH   1  17
ATOM     17  N   UNL     1       3.227   3.984  18.926  0.00  0.00    +0.000 NA
ATOM     18  H   UNL     1       2.751   3.111  18.703  0.00  0.00    +0.000 HD
BRANCH  17  19
ATOM     19  S   UNL     1       4.878   3.680  19.222  0.00  0.00    +0.000 S 
ATOM     20  O   UNL     1       5.107   2.264  19.268  0.00  0.00    +0.000 OA
ATOM     21  O   UNL     1       5.316   4.577  20.278  0.00  0.00    +0.000 OA
BRANCH  19  28
ATOM     22  C   UNL     1       7.470   4.853  11.839  0.00  0.00    +0.000 C 
ATOM     23  C   UNL     1       7.047   4.755  13.261  0.00  0.00    +0.000 A 
ATOM     24  N   UNL     1       7.606   5.429  14.242  0.00  0.00    +0.000 NA
ATOM     25  C   UNL     1       7.004   5.101  15.441  0.00  0.00    +0.000 A 
ATOM     26  C   UNL     1       7.359   5.623  16.698  0.00  0.00    +0.000 A 
ATOM     27  C   UNL     1       6.684   5.195  17.844  0.00  0.00    +0.000 A 
ATOM     28  C   UNL     1       5.647   4.275  17.735  0.00  0.00    +0.000 A 
ATOM     29  C   UNL     1       5.253   3.741  16.491  0.00  0.00    +0.000 A 
ATOM     30  C   UNL     1       5.962   4.175  15.355  0.00  0.00    +0.000 A 
ATOM     31  S   UNL     1       5.755   3.720  13.708  0.00  0.00    +0.000 S 
ENDBRANCH  19  28
ENDBRANCH  17  19
ENDBRANCH   1  17
TORSDOF 7
ENDMDL
MODEL 2
REMARK VINA RESULT:      -7.8      2.762      7.876
REMARK  Name = 
REMARK  10 active torsions:
REMARK  status: ('A' for Active; 'I' for Inactive)
REMARK    1  A    between atoms: C_1  and  C_2
REMARK    2  A    between atoms: C_7  and  S_8
REMARK    3  A    between atoms: S_8  and  N_11
REMARK    4  A    between atoms: N_11  and  C_12
REMARK    5  A    between atoms: C_12  and  C_13
REMARK    6  A    between atoms: C_12  and  C_24
REMARK    7  A    between atoms: N_15  and  C_16
REMARK    8  A    between atoms: C_16  and  C_17
REMARK    9  A    between atoms: C_24  and  C_25
REMARK   10  A    between atoms: C_24  and  C_26
REMARK                            x       y       z     vdW  Elec       q    Type
REMARK                         _______ _______ _______ _____ _____    ______ ____
ROOT
ATOM      1  C   UNL     1       2.179   3.829  18.547  0.00  0.00    +0.000 C 
ENDROOT
BRANCH   1   2
ATOM      2  C   UNL     1       3.721   3.664  18.399  0.00  0.00    +0.000 C 
ATOM      3  O   UNL     1       4.419   3.153  19.272  0.00  0.00    +0.000 OA
ATOM      4  N   UNL     1       4.238   4.082  17.179  0.00  0.00    +0.000 N 
ATOM      5  H   UNL     1       3.829   4.939  16.824  0.00  0.00    +0.000 HD
BRANCH   4   6
ATOM      6  C   UNL     1       5.663   3.954  16.913  0.00  0.00    +0.000 C 
BRANCH   6   7
ATOM      7  C   UNL     1       6.457   5.152  17.390  0.00  0.00    +0.000 A 
ATOM      8  C   UNL     1       7.221   5.028  18.568  0.00  0.00    +0.000 A 
ATOM      9  C   UNL     1       8.004   6.083  19.043  0.00  0.00    +0.000 A 
ATOM     10  C   UNL     1       8.069   7.277  18.331  0.00  0.00    +0.000 A 
ATOM     11  C   UNL     1       7.299   7.431  17.178  0.00  0.00    +0.000 A 
ATOM     12  C   UNL     1       6.467   6.395  16.735  0.00  0.00    +0.000 A 
ATOM     13 CL   UNL     1       5.432   6.723  15.391  0.00  0.00    +0.000 Cl
ENDBRANCH   6   7
ENDBRANCH   4   6
ENDBRANCH   1   2
BRANCH   1  14
ATOM     14  C   UNL     1       1.645   2.708  19.505  0.00  0.00    +0.000 C 
ATOM     15  C   UNL     1       1.251   3.218  20.901  0.00  0.00    +0.000 C 
ATOM     16  C   UNL     1       0.404   2.015  18.913  0.00  0.00    +0.000 C 
ENDBRANCH   1  14
BRANCH   1  17
ATOM     17  N   UNL     1       1.824   5.170  19.092  0.00  0.00    +0.000 NA
ATOM     18  H   UNL     1       0.869   5.445  18.868  0.00  0.00    +0.000 HD
BRANCH  17  19
ATOM     19  S   UNL     1       2.885   6.467  18.773  0.00  0.00    +0.000 S 
ATOM     20  O   UNL     1       3.000   6.658  17.355  0.00  0.00    +0.000 OA
ATOM     21  O   UNL     1       4.042   6.322  19.638  0.00  0.00    +0.000 OA
BRANCH  19  28
ATOM     22  C   UNL     1      -1.443  11.538  23.034  0.00  0.00    +0.000 C 
ATOM     23  C   UNL     1      -0.611  10.691  22.139  0.00  0.00    +0.000 A 
ATOM     24  N   UNL     1      -0.376  10.967  20.876  0.00  0.00    +0.000 NA
ATOM     25  C   UNL     1       0.408   9.978  20.316  0.00  0.00    +0.000 A 
ATOM     26  C   UNL     1       0.840   9.943  18.978  0.00  0.00    +0.000 A 
ATOM     27  C   UNL     1       1.617   8.873  18.526  0.00  0.00    +0.000 A 
ATOM     28  C   UNL     1       1.981   7.860  19.406  0.00  0.00    +0.000 A 
ATOM     29  C   UNL     1       1.579   7.867  20.757  0.00  0.00    +0.000 A 
ATOM     30  C   UNL     1       0.782   8.948  21.182  0.00  0.00    +0.000 A 
ATOM     31  S   UNL     1       0.114   9.257  22.738  0.00  0.00    +0.000 S 
ENDBRANCH  19  28
ENDBRANCH  17  19
ENDBRANCH   1  17
TORSDOF 7
ENDMDL
MODEL 3
REMARK VINA RESULT:      -7.7      2.828      7.850
REMARK  Name = 
REMARK  10 active torsions:
REMARK  status: ('A' for Active; 'I' for Inactive)
REMARK    1  A    between atoms: C_1  and  C_2
REMARK    2  A    between atoms: C_7  and  S_8
REMARK    3  A    between atoms: S_8  and  N_11
REMARK    4  A    between atoms: N_11  and  C_12
REMARK    5  A    between atoms: C_12  and  C_13
REMARK    6  A    between atoms: C_12  and  C_24
REMARK    7  A    between atoms: N_15  and  C_16
REMARK    8  A    between atoms: C_16  and  C_17
REMARK    9  A    between atoms: C_24  and  C_25
REMARK   10  A    between atoms: C_24  and  C_26
REMARK                            x       y       z     vdW  Elec       q    Type
REMARK                         _______ _______ _______ _____ _____    ______ ____
ROOT
ATOM      1  C   UNL     1       2.158   3.924  18.847  0.00  0.00    +0.000 C 
ENDROOT
BRANCH   1   2
ATOM      2  C   UNL     1       3.684   3.750  18.589  0.00  0.00    +0.000 C 
ATOM      3  O   UNL     1       4.434   3.210  19.399  0.00  0.00    +0.000 OA
ATOM      4  N   UNL     1       4.119   4.193  17.346  0.00  0.00    +0.000 N 
ATOM      5  H   UNL     1       3.696   5.063  17.042  0.00  0.00    +0.000 HD
BRANCH   4   6
ATOM      6  C   UNL     1       5.522   4.059  16.979  0.00  0.00    +0.000 C 
BRANCH   6   7
ATOM      7  C   UNL     1       6.357   5.242  17.422  0.00  0.00    +0.000 A 
ATOM      8  C   UNL     1       7.239   5.074  18.509  0.00  0.00    +0.000 A 
ATOM      9  C   UNL     1       8.065   6.114  18.944  0.00  0.00    +0.000 A 
ATOM     10  C   UNL     1       8.053   7.336  18.280  0.00  0.00    +0.000 A 
ATOM     11  C   UNL     1       7.168   7.534  17.220  0.00  0.00    +0.000 A 
ATOM     12  C   UNL     1       6.297   6.511  16.823  0.00  0.00    +0.000 A 
ATOM     13 CL   UNL     1       5.128   6.888  15.607  0.00  0.00    +0.000 Cl
ENDBRANCH   6   7
ENDBRANCH   4   6
ENDBRANCH   1   2
BRANCH   1  14
ATOM     14  C   UNL     1       1.656   2.721  19.719  0.00  0.00    +0.000 C 
ATOM     15  C   UNL     1       1.211   3.120  21.135  0.00  0.00    +0.000 C 
ATOM     16  C   UNL     1       0.461   2.013  19.054  0.00  0.00    +0.000 C 
ENDBRANCH   1  14
BRANCH   1  17
ATOM     17  N   UNL     1       1.867   5.208  19.545  0.00  0.00    +0.000 NA
ATOM     18  H   UNL     1       0.869   5.370  19.670  0.00  0.00    +0.000 HD
BRANCH  17  19
ATOM     19  S   UNL     1       2.609   6.624  18.952  0.00  0.00    +0.000 S 
ATOM     20  O   UNL     1       2.261   6.809  17.572  0.00  0.00    +0.000 OA
ATOM     21  O   UNL     1       3.984   6.639  19.420  0.00  0.00    +0.000 OA
BRANCH  19  28
ATOM     22  C   UNL     1      -0.610  13.361  21.573  0.00  0.00    +0.000 C 
ATOM     23  C   UNL     1      -0.061  12.031  21.195  0.00  0.00    +0.000 A 
ATOM     24  N   UNL     1       0.072  11.027  22.032  0.00  0.00    +0.000 NA
ATOM     25  C   UNL     1       0.631   9.944  21.383  0.00  0.00    +0.000 A 
ATOM     26  C   UNL     1       0.927   8.704  21.977  0.00  0.00    +0.000 A 
ATOM     27  C   UNL     1       1.512   7.690  21.215  0.00  0.00    +0.000 A 
ATOM     28  C   UNL     1       1.775   7.901  19.865  0.00  0.00    +0.000 A 
ATOM     29  C   UNL     1       1.479   9.124  19.231  0.00  0.00    +0.000 A 
ATOM     30  C   UNL     1       0.907  10.135  20.027  0.00  0.00    +0.000 A 
ATOM     31  S   UNL     1       0.441  11.732  19.583  0.00  0.00    +0.000 S 
ENDBRANCH  19  28
ENDBRANCH  17  19
ENDBRANCH   1  17
TORSDOF 7
ENDMDL
MODEL 4
REMARK VINA RESULT:      -7.4      1.933      2.653
REMARK  Name = 
REMARK  10 active torsions:
REMARK  status: ('A' for Active; 'I' for Inactive)
REMARK    1  A    between atoms: C_1  and  C_2
REMARK    2  A    between atoms: C_7  and  S_8
REMARK    3  A    between atoms: S_8  and  N_11
REMARK    4  A    between atoms: N_11  and  C_12
REMARK    5  A    between atoms: C_12  and  C_13
REMARK    6  A    between atoms: C_12  and  C_24
REMARK    7  A    between atoms: N_15  and  C_16
REMARK    8  A    between atoms: C_16  and  C_17
REMARK    9  A    between atoms: C_24  and  C_25
REMARK   10  A    between atoms: C_24  and  C_26
REMARK                            x       y       z     vdW  Elec       q    Type
REMARK                         _______ _______ _______ _____ _____    ______ ____
ROOT
ATOM      1  C   UNL     1       2.587   4.420  19.756  0.00  0.00    +0.000 C 
ENDROOT
BRANCH   1   2
ATOM      2  C   UNL     1       2.276   5.809  19.123  0.00  0.00    +0.000 C 
ATOM      3  O   UNL     1       2.034   5.952  17.927  0.00  0.00    +0.000 OA
ATOM      4  N   UNL     1       2.232   6.864  20.026  0.00  0.00    +0.000 N 
ATOM      5  H   UNL     1       2.951   6.833  20.740  0.00  0.00    +0.000 HD
BRANCH   4   6
ATOM      6  C   UNL     1       1.924   8.208  19.557  0.00  0.00    +0.000 C 
BRANCH   6   7
ATOM      7  C   UNL     1       1.033   8.972  20.515  0.00  0.00    +0.000 A 
ATOM      8  C   UNL     1       0.483   8.284  21.615  0.00  0.00    +0.000 A 
ATOM      9  C   UNL     1      -0.317   8.939  22.556  0.00  0.00    +0.000 A 
ATOM     10  C   UNL     1      -0.557  10.304  22.437  0.00  0.00    +0.000 A 
ATOM     11  C   UNL     1      -0.045  10.998  21.340  0.00  0.00    +0.000 A 
ATOM     12  C   UNL     1       0.706  10.330  20.364  0.00  0.00    +0.000 A 
ATOM     13 CL   UNL     1       1.170  11.227  18.962  0.00  0.00    +0.000 Cl
ENDBRANCH   6   7
ENDBRANCH   4   6
ENDBRANCH   1   2
BRANCH   1  14
ATOM     14  C   UNL     1       1.427   4.048  20.743  0.00  0.00    +0.000 C 
ATOM     15  C   UNL     1       0.310   3.207  20.102  0.00  0.00    +0.000 C 
ATOM     16  C   UNL     1       1.957   3.248  21.947  0.00  0.00    +0.000 C 
ENDBRANCH   1  14
BRANCH   1  17
ATOM     17  N   UNL     1       2.720   3.364  18.712  0.00  0.00    +0.000 NA
ATOM     18  H   UNL     1       2.074   2.589  18.853  0.00  0.00    +0.000 HD
BRANCH  17  19
ATOM     19  S   UNL     1       4.280   2.760  18.383  0.00  0.00    +0.000 S 
ATOM     20  O   UNL     1       4.230   1.889  17.243  0.00  0.00    +0.000 OA
ATOM     21  O   UNL     1       4.882   2.362  19.644  0.00  0.00    +0.000 OA
BRANCH  19  28
ATOM     22  C   UNL     1       8.761   9.262  17.871  0.00  0.00    +0.000 C 
ATOM     23  C   UNL     1       7.895   8.054  17.827  0.00  0.00    +0.000 A 
ATOM     24  N   UNL     1       7.040   7.797  16.862  0.00  0.00    +0.000 NA
ATOM     25  C   UNL     1       6.374   6.617  17.125  0.00  0.00    +0.000 A 
ATOM     26  C   UNL     1       5.379   6.046  16.310  0.00  0.00    +0.000 A 
ATOM     27  C   UNL     1       4.763   4.853  16.697  0.00  0.00    +0.000 A 
ATOM     28  C   UNL     1       5.154   4.221  17.873  0.00  0.00    +0.000 A 
ATOM     29  C   UNL     1       6.156   4.755  18.708  0.00  0.00    +0.000 A 
ATOM     30  C   UNL     1       6.747   5.968  18.304  0.00  0.00    +0.000 A 
ATOM     31  S   UNL     1       7.973   6.890  19.084  0.00  0.00    +0.000 S 
ENDBRANCH  19  28
ENDBRANCH  17  19
ENDBRANCH   1  17
TORSDOF 7
ENDMDL
MODEL 5
REMARK VINA RESULT:      -7.4      3.027      8.018
REMARK  Name = 
REMARK  10 active torsions:
REMARK  status: ('A' for Active; 'I' for Inactive)
REMARK    1  A    between atoms: C_1  and  C_2
REMARK    2  A    between atoms: C_7  and  S_8
REMARK    3  A    between atoms: S_8  and  N_11
REMARK    4  A    between atoms: N_11  and  C_12
REMARK    5  A    between atoms: C_12  and  C_13
REMARK    6  A    between atoms: C_12  and  C_24
REMARK    7  A    between atoms: N_15  and  C_16
REMARK    8  A    between atoms: C_16  and  C_17
REMARK    9  A    between atoms: C_24  and  C_25
REMARK   10  A    between atoms: C_24  and  C_26
REMARK                            x       y       z     vdW  Elec       q    Type
REMARK                         _______ _______ _______ _____ _____    ______ ____
ROOT
ATOM      1  C   UNL     1       1.390   4.245  19.140  0.00  0.00    +0.000 C 
ENDROOT
BRANCH   1   2
ATOM      2  C   UNL     1       2.564   3.930  18.166  0.00  0.00    +0.000 C 
ATOM      3  O   UNL     1       2.382   3.568  17.006  0.00  0.00    +0.000 OA
ATOM      4  N   UNL     1       3.832   4.152  18.690  0.00  0.00    +0.000 N 
ATOM      5  H   UNL     1       3.941   3.860  19.655  0.00  0.00    +0.000 HD
BRANCH   4   6
ATOM      6  C   UNL     1       5.008   3.918  17.865  0.00  0.00    +0.000 C 
BRANCH   6   7
ATOM      7  C   UNL     1       6.033   5.028  17.980  0.00  0.00    +0.000 A 
ATOM      8  C   UNL     1       6.852   5.072  19.126  0.00  0.00    +0.000 A 
ATOM      9  C   UNL     1       7.841   6.047  19.278  0.00  0.00    +0.000 A 
ATOM     10  C   UNL     1       8.057   6.981  18.269  0.00  0.00    +0.000 A 
ATOM     11  C   UNL     1       7.240   6.973  17.139  0.00  0.00    +0.000 A 
ATOM     12  C   UNL     1       6.208   6.034  17.015  0.00  0.00    +0.000 A 
ATOM     13 CL   UNL     1       5.146   6.190  15.661  0.00  0.00    +0.000 Cl
ENDBRANCH   6   7
ENDBRANCH   4   6
ENDBRANCH   1   2
BRANCH   1  14
ATOM     14  C   UNL     1       1.220   3.039  20.128  0.00  0.00    +0.000 C 
ATOM     15  C   UNL     1       1.773   1.710  19.589  0.00  0.00    +0.000 C 
ATOM     16  C   UNL     1       1.932   3.312  21.466  0.00  0.00    +0.000 C 
ENDBRANCH   1  14
BRANCH   1  17
ATOM     17  N   UNL     1       1.642   5.496  19.910  0.00  0.00    +0.000 NA
ATOM     18  H   UNL     1       0.801   5.857  20.359  0.00  0.00    +0.000 HD
BRANCH  17  19
ATOM     19  S   UNL     1       2.463   6.766  19.123  0.00  0.00    +0.000 S 
ATOM     20  O   UNL     1       2.198   6.711  17.713  0.00  0.00    +0.000 OA
ATOM     21  O   UNL     1       3.810   6.831  19.663  0.00  0.00    +0.000 OA
BRANCH  19  28
ATOM     22  C   UNL     1      -1.725  12.029  23.291  0.00  0.00    +0.000 C 
ATOM     23  C   UNL     1      -0.907  11.146  22.418  0.00  0.00    +0.000 A 
ATOM     24  N   UNL     1      -0.588  11.433  21.175  0.00  0.00    +0.000 NA
ATOM     25  C   UNL     1       0.155  10.405  20.630  0.00  0.00    +0.000 A 
ATOM     26  C   UNL     1       0.653  10.371  19.315  0.00  0.00    +0.000 A 
ATOM     27  C   UNL     1       1.378   9.260  18.875  0.00  0.00    +0.000 A 
ATOM     28  C   UNL     1       1.625   8.204  19.746  0.00  0.00    +0.000 A 
ATOM     29  C   UNL     1       1.154   8.209  21.074  0.00  0.00    +0.000 A 
ATOM     30  C   UNL     1       0.412   9.332  21.486  0.00  0.00    +0.000 A 
ATOM     31  S   UNL     1      -0.314   9.652  23.014  0.00  0.00    +0.000 S 
ENDBRANCH  19  28
ENDBRANCH  17  19
ENDBRANCH   1  17
TORSDOF 7
ENDMDL
MODEL 6
REMARK VINA RESULT:      -7.4      2.893      7.626
REMARK  Name = 
REMARK  10 active torsions:
REMARK  status: ('A' for Active; 'I' for Inactive)
REMARK    1  A    between atoms: C_1  and  C_2
REMARK    2  A    between atoms: C_7  and  S_8
REMARK    3  A    between atoms: S_8  and  N_11
REMARK    4  A    between atoms: N_11  and  C_12
REMARK    5  A    between atoms: C_12  and  C_13
REMARK    6  A    between atoms: C_12  and  C_24
REMARK    7  A    between atoms: N_15  and  C_16
REMARK    8  A    between atoms: C_16  and  C_17
REMARK    9  A    between atoms: C_24  and  C_25
REMARK   10  A    between atoms: C_24  and  C_26
REMARK                            x       y       z     vdW  Elec       q    Type
REMARK                         _______ _______ _______ _____ _____    ______ ____
ROOT
ATOM      1  C   UNL     1       5.654   5.702  17.516  0.00  0.00    +0.000 C 
ENDROOT
BRANCH   1   2
ATOM      2  C   UNL     1       5.435   4.376  18.303  0.00  0.00    +0.000 C 
ATOM      3  O   UNL     1       6.039   4.115  19.341  0.00  0.00    +0.000 OA
ATOM      4  N   UNL     1       4.457   3.540  17.777  0.00  0.00    +0.000 N 
ATOM      5  H   UNL     1       4.460   3.480  16.765  0.00  0.00    +0.000 HD
BRANCH   4   6
ATOM      6  C   UNL     1       4.144   2.283  18.442  0.00  0.00    +0.000 C 
BRANCH   6   7
ATOM      7  C   UNL     1       3.103   2.441  19.531  0.00  0.00    +0.000 A 
ATOM      8  C   UNL     1       3.508   2.302  20.874  0.00  0.00    +0.000 A 
ATOM      9  C   UNL     1       2.606   2.472  21.927  0.00  0.00    +0.000 A 
ATOM     10  C   UNL     1       1.285   2.819  21.664  0.00  0.00    +0.000 A 
ATOM     11  C   UNL     1       0.856   2.935  20.341  0.00  0.00    +0.000 A 
ATOM     12  C   UNL     1       1.745   2.705  19.284  0.00  0.00    +0.000 A 
ATOM     13 CL   UNL     1       1.099   2.715  17.681  0.00  0.00    +0.000 Cl
ENDBRANCH   6   7
ENDBRANCH   4   6
ENDBRANCH   1   2
BRANCH   1  14
ATOM     14  C   UNL     1       5.463   5.414  15.986  0.00  0.00    +0.000 C 
ATOM     15  C   UNL     1       5.078   6.653  15.162  0.00  0.00    +0.000 C 
ATOM     16  C   UNL     1       6.751   4.841  15.363  0.00  0.00    +0.000 C 
ENDBRANCH   1  14
BRANCH   1  17
ATOM     17  N   UNL     1       4.699   6.759  17.953  0.00  0.00    +0.000 NA
ATOM     18  H   UNL     1       5.135   7.461  18.548  0.00  0.00    +0.000 HD
BRANCH  17  19
ATOM     19  S   UNL     1       3.219   6.263  18.640  0.00  0.00    +0.000 S 
ATOM     20  O   UNL     1       3.451   5.734  19.954  0.00  0.00    +0.000 OA
ATOM     21  O   UNL     1       2.475   5.537  17.625  0.00  0.00    +0.000 OA
BRANCH  19  28
ATOM     22  C   UNL     1      -1.278  12.293  21.094  0.00  0.00    +0.000 C 
ATOM     23  C   UNL     1      -0.386  11.246  20.530  0.00  0.00    +0.000 A 
ATOM     24  N   UNL     1       0.110  11.282  19.313  0.00  0.00    +0.000 NA
ATOM     25  C   UNL     1       0.878  10.157  19.085  0.00  0.00    +0.000 A 
ATOM     26  C   UNL     1       1.548   9.860  17.884  0.00  0.00    +0.000 A 
ATOM     27  C   UNL     1       2.279   8.675  17.771  0.00  0.00    +0.000 A 
ATOM     28  C   UNL     1       2.363   7.806  18.853  0.00  0.00    +0.000 A 
ATOM     29  C   UNL     1       1.718   8.075  20.076  0.00  0.00    +0.000 A 
ATOM     30  C   UNL     1       0.972   9.267  20.158  0.00  0.00    +0.000 A 
ATOM     31  S   UNL     1       0.060   9.888  21.478  0.00  0.00    +0.000 S 
ENDBRANCH  19  28
ENDBRANCH  17  19
ENDBRANCH   1  17
TORSDOF 7
ENDMDL
MODEL 7
REMARK VINA RESULT:      -7.4      3.169      7.810
REMARK  Name = 
REMARK  10 active torsions:
REMARK  status: ('A' for Active; 'I' for Inactive)
REMARK    1  A    between atoms: C_1  and  C_2
REMARK    2  A    between atoms: C_7  and  S_8
REMARK    3  A    between atoms: S_8  and  N_11
REMARK    4  A    between atoms: N_11  and  C_12
REMARK    5  A    between atoms: C_12  and  C_13
REMARK    6  A    between atoms: C_12  and  C_24
REMARK    7  A    between atoms: N_15  and  C_16
REMARK    8  A    between atoms: C_16  and  C_17
REMARK    9  A    between atoms: C_24  and  C_25
REMARK   10  A    between atoms: C_24  and  C_26
REMARK                            x       y       z     vdW  Elec       q    Type
REMARK                         _______ _______ _______ _____ _____    ______ ____
ROOT
ATOM      1  C   UNL     1       5.519   5.717  17.343  0.00  0.00    +0.000 C 
ENDROOT
BRANCH   1   2
ATOM      2  C   UNL     1       5.248   4.364  18.066  0.00  0.00    +0.000 C 
ATOM      3  O   UNL     1       5.840   4.031  19.090  0.00  0.00    +0.000 OA
ATOM      4  N   UNL     1       4.241   3.593  17.500  0.00  0.00    +0.000 N 
ATOM      5  H   UNL     1       4.243   3.582  16.486  0.00  0.00    +0.000 HD
BRANCH   4   6
ATOM      6  C   UNL     1       3.879   2.318  18.103  0.00  0.00    +0.000 C 
BRANCH   6   7
ATOM      7  C   UNL     1       2.981   2.477  19.312  0.00  0.00    +0.000 A 
ATOM      8  C   UNL     1       1.670   2.959  19.118  0.00  0.00    +0.000 A 
ATOM      9  C   UNL     1       0.779   3.094  20.186  0.00  0.00    +0.000 A 
ATOM     10  C   UNL     1       1.167   2.719  21.468  0.00  0.00    +0.000 A 
ATOM     11  C   UNL     1       2.468   2.266  21.687  0.00  0.00    +0.000 A 
ATOM     12  C   UNL     1       3.381   2.188  20.627  0.00  0.00    +0.000 A 
ATOM     13 CL   UNL     1       5.013   1.768  21.009  0.00  0.00    +0.000 Cl
ENDBRANCH   6   7
ENDBRANCH   4   6
ENDBRANCH   1   2
BRANCH   1  14
ATOM     14  C   UNL     1       5.316   5.512  15.802  0.00  0.00    +0.000 C 
ATOM     15  C   UNL     1       4.979   6.804  15.040  0.00  0.00    +0.000 C 
ATOM     16  C   UNL     1       6.579   4.921  15.148  0.00  0.00    +0.000 C 
ENDBRANCH   1  14
BRANCH   1  17
ATOM     17  N   UNL     1       4.607   6.789  17.834  0.00  0.00    +0.000 NA
ATOM     18  H   UNL     1       5.082   7.471  18.423  0.00  0.00    +0.000 HD
BRANCH  17  19
ATOM     19  S   UNL     1       3.143   6.315  18.570  0.00  0.00    +0.000 S 
ATOM     20  O   UNL     1       3.414   5.747  19.860  0.00  0.00    +0.000 OA
ATOM     21  O   UNL     1       2.338   5.635  17.571  0.00  0.00    +0.000 OA
BRANCH  19  28
ATOM     22  C   UNL     1      -1.158  12.369  21.302  0.00  0.00    +0.000 C 
ATOM     23  C   UNL     1      -0.298  11.321  20.690  0.00  0.00    +0.000 A 
ATOM     24  N   UNL     1       0.207  11.400  19.479  0.00  0.00    +0.000 NA
ATOM     25  C   UNL     1       0.936  10.262  19.198  0.00  0.00    +0.000 A 
ATOM     26  C   UNL     1       1.604  10.003  17.987  0.00  0.00    +0.000 A 
ATOM     27  C   UNL     1       2.294   8.800  17.819  0.00  0.00    +0.000 A 
ATOM     28  C   UNL     1       2.340   7.875  18.856  0.00  0.00    +0.000 A 
ATOM     29  C   UNL     1       1.696   8.105  20.088  0.00  0.00    +0.000 A 
ATOM     30  C   UNL     1       0.992   9.317  20.225  0.00  0.00    +0.000 A 
ATOM     31  S   UNL     1       0.092   9.903  21.571  0.00  0.00    +0.000 S 
ENDBRANCH  19  28
ENDBRANCH  17  19
ENDBRANCH   1  17
TORSDOF 7
ENDMDL
MODEL 8
REMARK VINA RESULT:      -7.3      4.728     10.552
REMARK  Name = 
REMARK  10 active torsions:
REMARK  status: ('A' for Active; 'I' for Inactive)
REMARK    1  A    between atoms: C_1  and  C_2
REMARK    2  A    between atoms: C_7  and  S_8
REMARK    3  A    between atoms: S_8  and  N_11
REMARK    4  A    between atoms: N_11  and  C_12
REMARK    5  A    between atoms: C_12  and  C_13
REMARK    6  A    between atoms: C_12  and  C_24
REMARK    7  A    between atoms: N_15  and  C_16
REMARK    8  A    between atoms: C_16  and  C_17
REMARK    9  A    between atoms: C_24  and  C_25
REMARK   10  A    between atoms: C_24  and  C_26
REMARK                            x       y       z     vdW  Elec       q    Type
REMARK                         _______ _______ _______ _____ _____    ______ ____
ROOT
ATOM      1  C   UNL     1       1.321   9.125  19.922  0.00  0.00    +0.000 C 
ENDROOT
BRANCH   1   2
ATOM      2  C   UNL     1       1.781   7.638  19.964  0.00  0.00    +0.000 C 
ATOM      3  O   UNL     1       1.520   6.891  20.905  0.00  0.00    +0.000 OA
ATOM      4  N   UNL     1       2.454   7.203  18.829  0.00  0.00    +0.000 N 
ATOM      5  H   UNL     1       3.109   7.877  18.448  0.00  0.00    +0.000 HD
BRANCH   4   6
ATOM      6  C   UNL     1       2.911   5.823  18.741  0.00  0.00    +0.000 C 
BRANCH   6   7
ATOM      7  C   UNL     1       3.828   5.585  17.559  0.00  0.00    +0.000 A 
ATOM      8  C   UNL     1       4.402   6.702  16.918  0.00  0.00    +0.000 A 
ATOM      9  C   UNL     1       5.286   6.550  15.846  0.00  0.00    +0.000 A 
ATOM     10  C   UNL     1       5.643   5.278  15.412  0.00  0.00    +0.000 A 
ATOM     11  C   UNL     1       5.065   4.160  16.015  0.00  0.00    +0.000 A 
ATOM     12  C   UNL     1       4.133   4.313  17.049  0.00  0.00    +0.000 A 
ATOM     13 CL   UNL     1       3.350   2.888  17.633  0.00  0.00    +0.000 Cl
ENDBRANCH   6   7
ENDBRANCH   4   6
ENDBRANCH   1   2
BRANCH   1  14
ATOM     14  C   UNL     1       1.193   9.568  18.423  0.00  0.00    +0.000 C 
ATOM     15  C   UNL     1      -0.230   9.980  18.014  0.00  0.00    +0.000 C 
ATOM     16  C   UNL     1       2.113  10.764  18.115  0.00  0.00    +0.000 C 
ENDBRANCH   1  14
BRANCH   1  17
ATOM     17  N   UNL     1       0.016   9.312  20.616  0.00  0.00    +0.000 NA
ATOM     18  H   UNL     1      -0.586   9.987  20.147  0.00  0.00    +0.000 HD
BRANCH  17  19
ATOM     19  S   UNL     1       0.041   9.631  22.291  0.00  0.00    +0.000 S 
ATOM     20  O   UNL     1       1.395   9.833  22.723  0.00  0.00    +0.000 OA
ATOM     21  O   UNL     1      -0.854   8.689  22.940  0.00  0.00    +0.000 OA
BRANCH  19  28
ATOM     22  C   UNL     1      -4.852  15.699  23.652  0.00  0.00    +0.000 C 
ATOM     23  C   UNL     1      -3.843  14.653  23.337  0.00  0.00    +0.000 A 
ATOM     24  N   UNL     1      -2.880  14.803  22.456  0.00  0.00    +0.000 NA
ATOM     25  C   UNL     1      -2.128  13.647  22.378  0.00  0.00    +0.000 A 
ATOM     26  C   UNL     1      -1.026  13.450  21.527  0.00  0.00    +0.000 A 
ATOM     27  C   UNL     1      -0.358  12.223  21.528  0.00  0.00    +0.000 A 
ATOM     28  C   UNL     1      -0.769  11.210  22.388  0.00  0.00    +0.000 A 
ATOM     29  C   UNL     1      -1.860  11.375  23.265  0.00  0.00    +0.000 A 
ATOM     30  C   UNL     1      -2.527  12.615  23.231  0.00  0.00    +0.000 A 
ATOM     31  S   UNL     1      -3.888  13.140  24.144  0.00  0.00    +0.000 S 
ENDBRANCH  19  28
ENDBRANCH  17  19
ENDBRANCH   1  17
TORSDOF 7
ENDMDL
MODEL 9
REMARK VINA RESULT:      -7.3      2.952      7.508
REMARK  Name = 
REMARK  10 active torsions:
REMARK  status: ('A' for Active; 'I' for Inactive)
REMARK    1  A    between atoms: C_1  and  C_2
REMARK    2  A    between atoms: C_7  and  S_8
REMARK    3  A    between atoms: S_8  and  N_11
REMARK    4  A    between atoms: N_11  and  C_12
REMARK    5  A    between atoms: C_12  and  C_13
REMARK    6  A    between atoms: C_12  and  C_24
REMARK    7  A    between atoms: N_15  and  C_16
REMARK    8  A    between atoms: C_16  and  C_17
REMARK    9  A    between atoms: C_24  and  C_25
REMARK   10  A    between atoms: C_24  and  C_26
REMARK                            x       y       z     vdW  Elec       q    Type
REMARK                         _______ _______ _______ _____ _____    ______ ____
ROOT
ATOM      1  C   UNL     1       2.388   3.709  18.043  0.00  0.00    +0.000 C 
ENDROOT
BRANCH   1   2
ATOM      2  C   UNL     1       3.942   3.634  17.978  0.00  0.00    +0.000 C 
ATOM      3  O   UNL     1       4.618   3.122  18.868  0.00  0.00    +0.000 OA
ATOM      4  N   UNL     1       4.502   4.134  16.808  0.00  0.00    +0.000 N 
ATOM      5  H   UNL     1       4.066   4.983  16.467  0.00  0.00    +0.000 HD
BRANCH   4   6
ATOM      6  C   UNL     1       5.945   4.094  16.620  0.00  0.00    +0.000 C 
BRANCH   6   7
ATOM      7  C   UNL     1       6.648   5.283  17.242  0.00  0.00    +0.000 A 
ATOM      8  C   UNL     1       7.540   5.055  18.309  0.00  0.00    +0.000 A 
ATOM      9  C   UNL     1       8.248   6.103  18.903  0.00  0.00    +0.000 A 
ATOM     10  C   UNL     1       8.107   7.400  18.420  0.00  0.00    +0.000 A 
ATOM     11  C   UNL     1       7.208   7.653  17.383  0.00  0.00    +0.000 A 
ATOM     12  C   UNL     1       6.453   6.612  16.829  0.00  0.00    +0.000 A 
ATOM     13 CL   UNL     1       5.253   7.033  15.659  0.00  0.00    +0.000 Cl
ENDBRANCH   6   7
ENDBRANCH   4   6
ENDBRANCH   1   2
BRANCH   1  14
ATOM     14  C   UNL     1       1.886   2.742  19.171  0.00  0.00    +0.000 C 
ATOM     15  C   UNL     1       0.366   2.782  19.395  0.00  0.00    +0.000 C 
ATOM     16  C   UNL     1       2.255   1.280  18.855  0.00  0.00    +0.000 C 
ENDBRANCH   1  14
BRANCH   1  17
ATOM     17  N   UNL     1       1.921   5.096  18.323  0.00  0.00    +0.000 NA
ATOM     18  H   UNL     1       1.938   5.692  17.497  0.00  0.00    +0.000 HD
BRANCH  17  19
ATOM     19  S   UNL     1       2.619   5.922  19.641  0.00  0.00    +0.000 S 
ATOM     20  O   UNL     1       4.047   5.944  19.495  0.00  0.00    +0.000 OA
ATOM     21  O   UNL     1       1.965   5.464  20.855  0.00  0.00    +0.000 OA
BRANCH  19  28
ATOM     22  C   UNL     1      -0.831  13.029  20.093  0.00  0.00    +0.000 C 
ATOM     23  C   UNL     1      -0.113  11.742  19.894  0.00  0.00    +0.000 A 
ATOM     24  N   UNL     1       0.459  11.388  18.765  0.00  0.00    +0.000 NA
ATOM     25  C   UNL     1       1.018  10.132  18.894  0.00  0.00    +0.000 A 
ATOM     26  C   UNL     1       1.699   9.437  17.878  0.00  0.00    +0.000 A 
ATOM     27  C   UNL     1       2.204   8.158  18.129  0.00  0.00    +0.000 A 
ATOM     28  C   UNL     1       2.053   7.588  19.388  0.00  0.00    +0.000 A 
ATOM     29  C   UNL     1       1.389   8.259  20.435  0.00  0.00    +0.000 A 
ATOM     30  C   UNL     1       0.875   9.539  20.150  0.00  0.00    +0.000 A 
ATOM     31  S   UNL     1       0.008  10.613  21.179  0.00  0.00    +0.000 S 
ENDBRANCH  19  28
ENDBRANCH  17  19
ENDBRANCH   1  17
TORSDOF 7
ENDMDL
