MODEL 1
REMARK VINA RESULT:      -7.2      0.000      0.000
REMARK  Name = 
REMARK  10 active torsions:
REMARK  status: ('A' for Active; 'I' for Inactive)
REMARK    1  A    between atoms: C_1  and  C_2
REMARK    2  A    between atoms: C_2  and  N_3
REMARK    3  A    between atoms: C_2  and  C_11
REMARK    4  A    between atoms: C_4  and  O_6
REMARK    5  A    between atoms: O_6  and  C_7
REMARK    6  A    between atoms: C_7  and  C_8
REMARK    7  A    between atoms: C_7  and  C_9
REMARK    8  A    between atoms: C_7  and  C_10
REMARK    9  A    between atoms: C_14  and  C_15
REMARK   10  A    between atoms: C_15  and  C_16
REMARK                            x       y       z     vdW  Elec       q    Type
REMARK                         _______ _______ _______ _____ _____    ______ ____
ROOT
ATOM      1  C   UNL     1       6.360   4.644  16.106  0.00  0.00    +0.000 A 
ATOM      2  N   UNL     1       7.480   4.906  15.414  0.00  0.00    +0.000 NA
ATOM      3  O   UNL     1       7.112   4.661  14.094  0.00  0.00    +0.000 OA
ATOM      4  C   UNL     1       5.807   4.270  14.124  0.00  0.00    +0.000 A 
ATOM      5  N   UNL     1       5.290   4.245  15.335  0.00  0.00    +0.000 NA
ENDROOT
BRANCH   1   7
ATOM      6  C   UNL     1       7.618   4.666  18.287  0.00  0.00    +0.000 C 
ATOM      7  C   UNL     1       6.273   4.852  17.587  0.00  0.00    +0.000 C 
BRANCH   7   8
ATOM      8  N   UNL     1       5.273   3.946  18.130  0.00  0.00    +0.000 N 
ATOM      9  C   UNL     1       4.394   4.373  19.083  0.00  0.00    +0.000 C 
ATOM     10  O   UNL     1       4.396   5.509  19.538  0.00  0.00    +0.000 OA
ATOM     11  H   UNL     1       5.237   2.976  17.853  0.00  0.00    +0.000 HD
BRANCH   9  12
ATOM     12  O   UNL     1       3.548   3.373  19.435  0.00  0.00    +0.000 OA
BRANCH  12  13
ATOM     13  C   UNL     1       2.125   3.523  19.161  0.00  0.00    +0.000 C 
ATOM     14  C   UNL     1       1.875   4.292  17.856  0.00  0.00    +0.000 C 
ATOM     15  C   UNL     1       1.579   2.096  18.986  0.00  0.00    +0.000 C 
ATOM     16  C   UNL     1       1.401   4.166  20.350  0.00  0.00    +0.000 C 
ENDBRANCH  12  13
ENDBRANCH   9  12
ENDBRANCH   7   8
ENDBRANCH   1   7
BRANCH   4  17
ATOM     17  C   UNL     1       5.151   4.020  12.817  0.00  0.00    +0.000 C 
BRANCH  17  18
ATOM     18  C   UNL     1       5.844   2.944  12.052  0.00  0.00    +0.000 A 
ATOM     19  C   UNL     1       5.384   1.791  11.457  0.00  0.00    +0.000 A 
ATOM     20  C   UNL     1       6.531   1.189  10.910  0.00  0.00    +0.000 A 
ATOM     21  N   UNL     1       7.636   1.901  11.137  0.00  0.00    +0.000 NA
ATOM     22  N   UNL     1       7.199   2.959  11.838  0.00  0.00    +0.000 N 
ATOM     23  H   UNL     1       7.878   3.645  12.153  0.00  0.00    +0.000 HD
ENDBRANCH  17  18
ENDBRANCH   4  17
TORSDOF 6
ENDMDL
MODEL 2
REMARK VINA RESULT:      -6.9      1.261      1.759
REMARK  Name = 
REMARK  10 active torsions:
REMARK  status: ('A' for Active; 'I' for Inactive)
REMARK    1  A    between atoms: C_1  and  C_2
REMARK    2  A    between atoms: C_2  and  N_3
REMARK    3  A    between atoms: C_2  and  C_11
REMARK    4  A    between atoms: C_4  and  O_6
REMARK    5  A    between atoms: O_6  and  C_7
REMARK    6  A    between atoms: C_7  and  C_8
REMARK    7  A    between atoms: C_7  and  C_9
REMARK    8  A    between atoms: C_7  and  C_10
REMARK    9  A    between atoms: C_14  and  C_15
REMARK   10  A    between atoms: C_15  and  C_16
REMARK                            x       y       z     vdW  Elec       q    Type
REMARK                         _______ _______ _______ _____ _____    ______ ____
ROOT
ATOM      1  C   UNL     1       6.184   5.076  16.725  0.00  0.00    +0.000 A 
ATOM      2  N   UNL     1       5.823   3.793  16.579  0.00  0.00    +0.000 NA
ATOM      3  O   UNL     1       6.080   3.532  15.236  0.00  0.00    +0.000 OA
ATOM      4  C   UNL     1       6.567   4.690  14.706  0.00  0.00    +0.000 A 
ATOM      5  N   UNL     1       6.657   5.673  15.577  0.00  0.00    +0.000 NA
ENDROOT
BRANCH   1   7
ATOM      6  C   UNL     1       7.515   5.806  18.734  0.00  0.00    +0.000 C 
ATOM      7  C   UNL     1       6.148   5.767  18.054  0.00  0.00    +0.000 C 
BRANCH   7   8
ATOM      8  N   UNL     1       5.163   5.110  18.898  0.00  0.00    +0.000 N 
ATOM      9  C   UNL     1       3.917   5.642  19.056  0.00  0.00    +0.000 C 
ATOM     10  O   UNL     1       3.558   6.683  18.521  0.00  0.00    +0.000 OA
ATOM     11  H   UNL     1       5.392   4.278  19.423  0.00  0.00    +0.000 HD
BRANCH   9  12
ATOM     12  O   UNL     1       3.163   4.864  19.872  0.00  0.00    +0.000 OA
BRANCH  12  13
ATOM     13  C   UNL     1       2.257   3.889  19.279  0.00  0.00    +0.000 C 
ATOM     14  C   UNL     1       2.820   2.463  19.365  0.00  0.00    +0.000 C 
ATOM     15  C   UNL     1       0.971   3.946  20.120  0.00  0.00    +0.000 C 
ATOM     16  C   UNL     1       1.900   4.276  17.839  0.00  0.00    +0.000 C 
ENDBRANCH  12  13
ENDBRANCH   9  12
ENDBRANCH   7   8
ENDBRANCH   1   7
BRANCH   4  17
ATOM     17  C   UNL     1       6.993   4.649  13.285  0.00  0.00    +0.000 C 
BRANCH  17  18
ATOM     18  C   UNL     1       6.149   3.718  12.484  0.00  0.00    +0.000 A 
ATOM     19  C   UNL     1       4.866   3.823  11.995  0.00  0.00    +0.000 A 
ATOM     20  C   UNL     1       4.633   2.603  11.336  0.00  0.00    +0.000 A 
ATOM     21  N   UNL     1       5.685   1.783  11.400  0.00  0.00    +0.000 NA
ATOM     22  N   UNL     1       6.591   2.476  12.107  0.00  0.00    +0.000 N 
ATOM     23  H   UNL     1       7.484   2.037  12.310  0.00  0.00    +0.000 HD
ENDBRANCH  17  18
ENDBRANCH   4  17
TORSDOF 6
ENDMDL
MODEL 3
REMARK VINA RESULT:      -6.8      1.149      1.385
REMARK  Name = 
REMARK  10 active torsions:
REMARK  status: ('A' for Active; 'I' for Inactive)
REMARK    1  A    between atoms: C_1  and  C_2
REMARK    2  A    between atoms: C_2  and  N_3
REMARK    3  A    between atoms: C_2  and  C_11
REMARK    4  A    between atoms: C_4  and  O_6
REMARK    5  A    between atoms: O_6  and  C_7
REMARK    6  A    between atoms: C_7  and  C_8
REMARK    7  A    between atoms: C_7  and  C_9
REMARK    8  A    between atoms: C_7  and  C_10
REMARK    9  A    between atoms: C_14  and  C_15
REMARK   10  A    between atoms: C_15  and  C_16
REMARK                            x       y       z     vdW  Elec       q    Type
REMARK                         _______ _______ _______ _____ _____    ______ ____
ROOT
ATOM      1  C   UNL     1       6.374   5.189  16.334  0.00  0.00    +0.000 A 
ATOM      2  N   UNL     1       5.358   5.802  15.707  0.00  0.00    +0.000 NA
ATOM      3  O   UNL     1       5.674   5.659  14.358  0.00  0.00    +0.000 OA
ATOM      4  C   UNL     1       6.854   4.978  14.310  0.00  0.00    +0.000 A 
ATOM      5  N   UNL     1       7.330   4.658  15.495  0.00  0.00    +0.000 NA
ENDROOT
BRANCH   1   7
ATOM      6  C   UNL     1       7.791   4.626  18.337  0.00  0.00    +0.000 C 
ATOM      7  C   UNL     1       6.411   5.031  17.823  0.00  0.00    +0.000 C 
BRANCH   7   8
ATOM      8  N   UNL     1       5.401   4.062  18.218  0.00  0.00    +0.000 N 
ATOM      9  C   UNL     1       4.431   4.397  19.118  0.00  0.00    +0.000 C 
ATOM     10  O   UNL     1       4.355   5.499  19.644  0.00  0.00    +0.000 OA
ATOM     11  H   UNL     1       5.422   3.112  17.876  0.00  0.00    +0.000 HD
BRANCH   9  12
ATOM     12  O   UNL     1       3.594   3.351  19.330  0.00  0.00    +0.000 OA
BRANCH  12  13
ATOM     13  C   UNL     1       2.170   3.524  19.078  0.00  0.00    +0.000 C 
ATOM     14  C   UNL     1       1.912   4.299  17.779  0.00  0.00    +0.000 C 
ATOM     15  C   UNL     1       1.598   2.106  18.909  0.00  0.00    +0.000 C 
ATOM     16  C   UNL     1       1.474   4.177  20.280  0.00  0.00    +0.000 C 
ENDBRANCH  12  13
ENDBRANCH   9  12
ENDBRANCH   7   8
ENDBRANCH   1   7
BRANCH   4  17
ATOM     17  C   UNL     1       7.372   4.630  12.963  0.00  0.00    +0.000 C 
BRANCH  17  18
ATOM     18  C   UNL     1       6.532   3.591  12.303  0.00  0.00    +0.000 A 
ATOM     19  C   UNL     1       6.850   2.405  11.678  0.00  0.00    +0.000 A 
ATOM     20  C   UNL     1       5.616   1.887  11.245  0.00  0.00    +0.000 A 
ATOM     21  N   UNL     1       4.592   2.680  11.567  0.00  0.00    +0.000 NA
ATOM     22  N   UNL     1       5.169   3.711  12.202  0.00  0.00    +0.000 N 
ATOM     23  H   UNL     1       4.579   4.471  12.526  0.00  0.00    +0.000 HD
ENDBRANCH  17  18
ENDBRANCH   4  17
TORSDOF 6
ENDMDL
MODEL 4
REMARK VINA RESULT:      -6.6      2.288      3.309
REMARK  Name = 
REMARK  10 active torsions:
REMARK  status: ('A' for Active; 'I' for Inactive)
REMARK    1  A    between atoms: C_1  and  C_2
REMARK    2  A    between atoms: C_2  and  N_3
REMARK    3  A    between atoms: C_2  and  C_11
REMARK    4  A    between atoms: C_4  and  O_6
REMARK    5  A    between atoms: O_6  and  C_7
REMARK    6  A    between atoms: C_7  and  C_8
REMARK    7  A    between atoms: C_7  and  C_9
REMARK    8  A    between atoms: C_7  and  C_10
REMARK    9  A    between atoms: C_14  and  C_15
REMARK   10  A    between atoms: C_15  and  C_16
REMARK                            x       y       z     vdW  Elec       q    Type
REMARK                         _______ _______ _______ _____ _____    ______ ____
ROOT
ATOM      1  C   UNL     1       4.134   6.254  17.148  0.00  0.00    +0.000 A 
ATOM      2  N   UNL     1       5.152   7.112  16.984  0.00  0.00    +0.000 NA
ATOM      3  O   UNL     1       6.158   6.323  16.434  0.00  0.00    +0.000 OA
ATOM      4  C   UNL     1       5.645   5.064  16.327  0.00  0.00    +0.000 A 
ATOM      5  N   UNL     1       4.402   4.963  16.748  0.00  0.00    +0.000 NA
ENDROOT
BRANCH   1   7
ATOM      6  C   UNL     1       2.756   8.185  17.992  0.00  0.00    +0.000 C 
ATOM      7  C   UNL     1       2.794   6.696  17.652  0.00  0.00    +0.000 C 
BRANCH   7   8
ATOM      8  N   UNL     1       2.437   5.887  18.807  0.00  0.00    +0.000 N 
ATOM      9  C   UNL     1       1.663   4.772  18.661  0.00  0.00    +0.000 C 
ATOM     10  O   UNL     1       1.223   4.396  17.583  0.00  0.00    +0.000 OA
ATOM     11  H   UNL     1       2.709   6.156  19.741  0.00  0.00    +0.000 HD
BRANCH   9  12
ATOM     12  O   UNL     1       1.463   4.168  19.859  0.00  0.00    +0.000 OA
BRANCH  12  13
ATOM     13  C   UNL     1       2.231   2.974  20.184  0.00  0.00    +0.000 C 
ATOM     14  C   UNL     1       2.082   2.586  21.662  0.00  0.00    +0.000 C 
ATOM     15  C   UNL     1       1.631   1.844  19.332  0.00  0.00    +0.000 C 
ATOM     16  C   UNL     1       3.702   3.141  19.784  0.00  0.00    +0.000 C 
ENDBRANCH  12  13
ENDBRANCH   9  12
ENDBRANCH   7   8
ENDBRANCH   1   7
BRANCH   4  17
ATOM     17  C   UNL     1       6.509   4.039  15.691  0.00  0.00    +0.000 C 
BRANCH  17  18
ATOM     18  C   UNL     1       6.949   4.460  14.330  0.00  0.00    +0.000 A 
ATOM     19  C   UNL     1       6.660   3.974  13.074  0.00  0.00    +0.000 A 
ATOM     20  C   UNL     1       7.399   4.786  12.197  0.00  0.00    +0.000 A 
ATOM     21  N   UNL     1       8.106   5.718  12.842  0.00  0.00    +0.000 NA
ATOM     22  N   UNL     1       7.824   5.498  14.135  0.00  0.00    +0.000 N 
ATOM     23  H   UNL     1       8.274   6.081  14.834  0.00  0.00    +0.000 HD
ENDBRANCH  17  18
ENDBRANCH   4  17
TORSDOF 6
ENDMDL
MODEL 5
REMARK VINA RESULT:      -6.6      1.157      1.487
REMARK  Name = 
REMARK  10 active torsions:
REMARK  status: ('A' for Active; 'I' for Inactive)
REMARK    1  A    between atoms: C_1  and  C_2
REMARK    2  A    between atoms: C_2  and  N_3
REMARK    3  A    between atoms: C_2  and  C_11
REMARK    4  A    between atoms: C_4  and  O_6
REMARK    5  A    between atoms: O_6  and  C_7
REMARK    6  A    between atoms: C_7  and  C_8
REMARK    7  A    between atoms: C_7  and  C_9
REMARK    8  A    between atoms: C_7  and  C_10
REMARK    9  A    between atoms: C_14  and  C_15
REMARK   10  A    between atoms: C_15  and  C_16
REMARK                            x       y       z     vdW  Elec       q    Type
REMARK                         _______ _______ _______ _____ _____    ______ ____
ROOT
ATOM      1  C   UNL     1       6.022   5.121  16.646  0.00  0.00    +0.000 A 
ATOM      2  N   UNL     1       4.959   4.421  16.221  0.00  0.00    +0.000 NA
ATOM      3  O   UNL     1       5.260   4.147  14.890  0.00  0.00    +0.000 OA
ATOM      4  C   UNL     1       6.475   4.715  14.645  0.00  0.00    +0.000 A 
ATOM      5  N   UNL     1       6.994   5.324  15.691  0.00  0.00    +0.000 NA
ENDROOT
BRANCH   1   7
ATOM      6  C   UNL     1       7.599   5.455  18.580  0.00  0.00    +0.000 C 
ATOM      7  C   UNL     1       6.164   5.567  18.069  0.00  0.00    +0.000 C 
BRANCH   7   8
ATOM      8  N   UNL     1       5.253   4.793  18.897  0.00  0.00    +0.000 N 
ATOM      9  C   UNL     1       4.057   5.318  19.292  0.00  0.00    +0.000 C 
ATOM     10  O   UNL     1       3.686   6.445  18.992  0.00  0.00    +0.000 OA
ATOM     11  H   UNL     1       5.503   3.876  19.238  0.00  0.00    +0.000 HD
BRANCH   9  12
ATOM     12  O   UNL     1       3.366   4.424  20.044  0.00  0.00    +0.000 OA
BRANCH  12  13
ATOM     13  C   UNL     1       2.306   3.645  19.419  0.00  0.00    +0.000 C 
ATOM     14  C   UNL     1       1.847   4.270  18.093  0.00  0.00    +0.000 C 
ATOM     15  C   UNL     1       2.921   2.270  19.110  0.00  0.00    +0.000 C 
ATOM     16  C   UNL     1       1.135   3.436  20.386  0.00  0.00    +0.000 C 
ENDBRANCH  12  13
ENDBRANCH   9  12
ENDBRANCH   7   8
ENDBRANCH   1   7
BRANCH   4  17
ATOM     17  C   UNL     1       7.059   4.496  13.298  0.00  0.00    +0.000 C 
BRANCH  17  18
ATOM     18  C   UNL     1       6.193   3.620  12.460  0.00  0.00    +0.000 A 
ATOM     19  C   UNL     1       4.911   3.774  11.980  0.00  0.00    +0.000 A 
ATOM     20  C   UNL     1       4.650   2.590  11.269  0.00  0.00    +0.000 A 
ATOM     21  N   UNL     1       5.684   1.746  11.292  0.00  0.00    +0.000 NA
ATOM     22  N   UNL     1       6.606   2.387  12.026  0.00  0.00    +0.000 N 
ATOM     23  H   UNL     1       7.490   1.920  12.206  0.00  0.00    +0.000 HD
ENDBRANCH  17  18
ENDBRANCH   4  17
TORSDOF 6
ENDMDL
MODEL 6
REMARK VINA RESULT:      -6.6      4.416      6.919
REMARK  Name = 
REMARK  10 active torsions:
REMARK  status: ('A' for Active; 'I' for Inactive)
REMARK    1  A    between atoms: C_1  and  C_2
REMARK    2  A    between atoms: C_2  and  N_3
REMARK    3  A    between atoms: C_2  and  C_11
REMARK    4  A    between atoms: C_4  and  O_6
REMARK    5  A    between atoms: O_6  and  C_7
REMARK    6  A    between atoms: C_7  and  C_8
REMARK    7  A    between atoms: C_7  and  C_9
REMARK    8  A    between atoms: C_7  and  C_10
REMARK    9  A    between atoms: C_14  and  C_15
REMARK   10  A    between atoms: C_15  and  C_16
REMARK                            x       y       z     vdW  Elec       q    Type
REMARK                         _______ _______ _______ _____ _____    ______ ____
ROOT
ATOM      1  C   UNL     1       7.479   6.777  17.701  0.00  0.00    +0.000 A 
ATOM      2  N   UNL     1       8.266   6.851  18.785  0.00  0.00    +0.000 NA
ATOM      3  O   UNL     1       8.604   8.201  18.850  0.00  0.00    +0.000 OA
ATOM      4  C   UNL     1       7.989   8.803  17.793  0.00  0.00    +0.000 A 
ATOM      5  N   UNL     1       7.279   7.977  17.053  0.00  0.00    +0.000 NA
ENDROOT
BRANCH   1   7
ATOM      6  C   UNL     1       6.845   5.284  15.775  0.00  0.00    +0.000 C 
ATOM      7  C   UNL     1       6.812   5.501  17.287  0.00  0.00    +0.000 C 
BRANCH   7   8
ATOM      8  N   UNL     1       5.446   5.502  17.785  0.00  0.00    +0.000 N 
ATOM      9  C   UNL     1       5.072   4.657  18.790  0.00  0.00    +0.000 C 
ATOM     10  O   UNL     1       5.837   3.860  19.317  0.00  0.00    +0.000 OA
ATOM     11  H   UNL     1       4.736   6.087  17.369  0.00  0.00    +0.000 HD
BRANCH   9  12
ATOM     12  O   UNL     1       3.764   4.834  19.102  0.00  0.00    +0.000 OA
BRANCH  12  13
ATOM     13  C   UNL     1       2.827   3.745  18.861  0.00  0.00    +0.000 C 
ATOM     14  C   UNL     1       2.909   3.235  17.415  0.00  0.00    +0.000 C 
ATOM     15  C   UNL     1       3.262   2.603  19.794  0.00  0.00    +0.000 C 
ATOM     16  C   UNL     1       1.399   4.154  19.242  0.00  0.00    +0.000 C 
ENDBRANCH  12  13
ENDBRANCH   9  12
ENDBRANCH   7   8
ENDBRANCH   1   7
BRANCH   4  17
ATOM     17  C   UNL     1       8.135  10.276  17.683  0.00  0.00    +0.000 C 
BRANCH  17  18
ATOM     18  C   UNL     1       9.288  10.775  18.485  0.00  0.00    +0.000 A 
ATOM     19  C   UNL     1      10.524  11.263  18.122  0.00  0.00    +0.000 A 
ATOM     20  C   UNL     1      11.167  11.550  19.339  0.00  0.00    +0.000 A 
ATOM     21  N   UNL     1      10.402  11.267  20.396  0.00  0.00    +0.000 NA
ATOM     22  N   UNL     1       9.269  10.792  19.857  0.00  0.00    +0.000 N 
ATOM     23  H   UNL     1       8.530  10.480  20.480  0.00  0.00    +0.000 HD
ENDBRANCH  17  18
ENDBRANCH   4  17
TORSDOF 6
ENDMDL
MODEL 7
REMARK VINA RESULT:      -6.6      1.313      1.826
REMARK  Name = 
REMARK  10 active torsions:
REMARK  status: ('A' for Active; 'I' for Inactive)
REMARK    1  A    between atoms: C_1  and  C_2
REMARK    2  A    between atoms: C_2  and  N_3
REMARK    3  A    between atoms: C_2  and  C_11
REMARK    4  A    between atoms: C_4  and  O_6
REMARK    5  A    between atoms: O_6  and  C_7
REMARK    6  A    between atoms: C_7  and  C_8
REMARK    7  A    between atoms: C_7  and  C_9
REMARK    8  A    between atoms: C_7  and  C_10
REMARK    9  A    between atoms: C_14  and  C_15
REMARK   10  A    between atoms: C_15  and  C_16
REMARK                            x       y       z     vdW  Elec       q    Type
REMARK                         _______ _______ _______ _____ _____    ______ ____
ROOT
ATOM      1  C   UNL     1       6.031   5.304  16.300  0.00  0.00    +0.000 A 
ATOM      2  N   UNL     1       5.589   4.038  16.285  0.00  0.00    +0.000 NA
ATOM      3  O   UNL     1       5.928   3.590  15.011  0.00  0.00    +0.000 OA
ATOM      4  C   UNL     1       6.536   4.636  14.384  0.00  0.00    +0.000 A 
ATOM      5  N   UNL     1       6.632   5.717  15.130  0.00  0.00    +0.000 NA
ENDROOT
BRANCH   1   7
ATOM      6  C   UNL     1       7.316   6.488  18.113  0.00  0.00    +0.000 C 
ATOM      7  C   UNL     1       5.944   6.163  17.525  0.00  0.00    +0.000 C 
BRANCH   7   8
ATOM      8  N   UNL     1       5.100   5.499  18.505  0.00  0.00    +0.000 N 
ATOM      9  C   UNL     1       3.850   5.974  18.780  0.00  0.00    +0.000 C 
ATOM     10  O   UNL     1       3.375   6.965  18.243  0.00  0.00    +0.000 OA
ATOM     11  H   UNL     1       5.433   4.708  19.036  0.00  0.00    +0.000 HD
BRANCH   9  12
ATOM     12  O   UNL     1       3.238   5.199  19.711  0.00  0.00    +0.000 OA
BRANCH  12  13
ATOM     13  C   UNL     1       2.326   4.153  19.270  0.00  0.00    +0.000 C 
ATOM     14  C   UNL     1       1.113   4.025  20.203  0.00  0.00    +0.000 C 
ATOM     15  C   UNL     1       1.819   4.593  17.886  0.00  0.00    +0.000 C 
ATOM     16  C   UNL     1       3.061   2.817  19.104  0.00  0.00    +0.000 C 
ENDBRANCH  12  13
ENDBRANCH   9  12
ENDBRANCH   7   8
ENDBRANCH   1   7
BRANCH   4  17
ATOM     17  C   UNL     1       7.065   4.385  13.020  0.00  0.00    +0.000 C 
BRANCH  17  18
ATOM     18  C   UNL     1       6.207   3.428  12.266  0.00  0.00    +0.000 A 
ATOM     19  C   UNL     1       4.889   3.483  11.869  0.00  0.00    +0.000 A 
ATOM     20  C   UNL     1       4.663   2.263  11.209  0.00  0.00    +0.000 A 
ATOM     21  N   UNL     1       5.750   1.489  11.185  0.00  0.00    +0.000 NA
ATOM     22  N   UNL     1       6.674   2.212  11.837  0.00  0.00    +0.000 N 
ATOM     23  H   UNL     1       7.597   1.810  11.970  0.00  0.00    +0.000 HD
ENDBRANCH  17  18
ENDBRANCH   4  17
TORSDOF 6
ENDMDL
MODEL 8
REMARK VINA RESULT:      -6.6      1.643      1.895
REMARK  Name = 
REMARK  10 active torsions:
REMARK  status: ('A' for Active; 'I' for Inactive)
REMARK    1  A    between atoms: C_1  and  C_2
REMARK    2  A    between atoms: C_2  and  N_3
REMARK    3  A    between atoms: C_2  and  C_11
REMARK    4  A    between atoms: C_4  and  O_6
REMARK    5  A    between atoms: O_6  and  C_7
REMARK    6  A    between atoms: C_7  and  C_8
REMARK    7  A    between atoms: C_7  and  C_9
REMARK    8  A    between atoms: C_7  and  C_10
REMARK    9  A    between atoms: C_14  and  C_15
REMARK   10  A    between atoms: C_15  and  C_16
REMARK                            x       y       z     vdW  Elec       q    Type
REMARK                         _______ _______ _______ _____ _____    ______ ____
ROOT
ATOM      1  C   UNL     1       6.129   5.044  16.758  0.00  0.00    +0.000 A 
ATOM      2  N   UNL     1       7.393   4.640  16.959  0.00  0.00    +0.000 NA
ATOM      3  O   UNL     1       7.898   4.496  15.670  0.00  0.00    +0.000 OA
ATOM      4  C   UNL     1       6.884   4.824  14.820  0.00  0.00    +0.000 A 
ATOM      5  N   UNL     1       5.773   5.173  15.433  0.00  0.00    +0.000 NA
ENDROOT
BRANCH   1   7
ATOM      6  C   UNL     1       5.926   5.379  19.245  0.00  0.00    +0.000 C 
ATOM      7  C   UNL     1       5.217   5.400  17.892  0.00  0.00    +0.000 C 
BRANCH   7   8
ATOM      8  N   UNL     1       4.081   4.493  17.883  0.00  0.00    +0.000 N 
ATOM      9  C   UNL     1       2.810   4.971  18.019  0.00  0.00    +0.000 C 
ATOM     10  O   UNL     1       2.550   6.159  18.162  0.00  0.00    +0.000 OA
ATOM     11  H   UNL     1       4.207   3.493  17.826  0.00  0.00    +0.000 HD
BRANCH   9  12
ATOM     12  O   UNL     1       1.909   3.957  17.972  0.00  0.00    +0.000 OA
BRANCH  12  13
ATOM     13  C   UNL     1       1.601   3.230  19.195  0.00  0.00    +0.000 C 
ATOM     14  C   UNL     1       0.989   4.148  20.264  0.00  0.00    +0.000 C 
ATOM     15  C   UNL     1       0.545   2.182  18.806  0.00  0.00    +0.000 C 
ATOM     16  C   UNL     1       2.836   2.488  19.720  0.00  0.00    +0.000 C 
ENDBRANCH  12  13
ENDBRANCH   9  12
ENDBRANCH   7   8
ENDBRANCH   1   7
BRANCH   4  17
ATOM     17  C   UNL     1       7.198   4.822  13.370  0.00  0.00    +0.000 C 
BRANCH  17  18
ATOM     18  C   UNL     1       6.357   3.842  12.626  0.00  0.00    +0.000 A 
ATOM     19  C   UNL     1       6.674   2.727  11.884  0.00  0.00    +0.000 A 
ATOM     20  C   UNL     1       5.438   2.240  11.423  0.00  0.00    +0.000 A 
ATOM     21  N   UNL     1       4.412   2.986  11.839  0.00  0.00    +0.000 NA
ATOM     22  N   UNL     1       4.991   3.957  12.561  0.00  0.00    +0.000 N 
ATOM     23  H   UNL     1       4.400   4.675  12.968  0.00  0.00    +0.000 HD
ENDBRANCH  17  18
ENDBRANCH   4  17
TORSDOF 6
ENDMDL
MODEL 9
REMARK VINA RESULT:      -6.5      1.592      2.194
REMARK  Name = 
REMARK  10 active torsions:
REMARK  status: ('A' for Active; 'I' for Inactive)
REMARK    1  A    between atoms: C_1  and  C_2
REMARK    2  A    between atoms: C_2  and  N_3
REMARK    3  A    between atoms: C_2  and  C_11
REMARK    4  A    between atoms: C_4  and  O_6
REMARK    5  A    between atoms: O_6  and  C_7
REMARK    6  A    between atoms: C_7  and  C_8
REMARK    7  A    between atoms: C_7  and  C_9
REMARK    8  A    between atoms: C_7  and  C_10
REMARK    9  A    between atoms: C_14  and  C_15
REMARK   10  A    between atoms: C_15  and  C_16
REMARK                            x       y       z     vdW  Elec       q    Type
REMARK                         _______ _______ _______ _____ _____    ______ ____
ROOT
ATOM      1  C   UNL     1       5.369   5.309  16.185  0.00  0.00    +0.000 A 
ATOM      2  N   UNL     1       6.619   5.373  16.668  0.00  0.00    +0.000 NA
ATOM      3  O   UNL     1       7.407   4.989  15.586  0.00  0.00    +0.000 OA
ATOM      4  C   UNL     1       6.549   4.727  14.559  0.00  0.00    +0.000 A 
ATOM      5  N   UNL     1       5.283   4.911  14.868  0.00  0.00    +0.000 NA
ENDROOT
BRANCH   1   7
ATOM      6  C   UNL     1       4.276   7.159  17.497  0.00  0.00    +0.000 C 
ATOM      7  C   UNL     1       4.179   5.718  16.998  0.00  0.00    +0.000 C 
BRANCH   7   8
ATOM      8  N   UNL     1       4.027   4.790  18.107  0.00  0.00    +0.000 N 
ATOM      9  C   UNL     1       2.994   3.899  18.131  0.00  0.00    +0.000 C 
ATOM     10  O   UNL     1       2.147   3.829  17.250  0.00  0.00    +0.000 OA
ATOM     11  H   UNL     1       4.648   4.817  18.903  0.00  0.00    +0.000 HD
BRANCH   9  12
ATOM     12  O   UNL     1       3.052   3.128  19.246  0.00  0.00    +0.000 OA
BRANCH  12  13
ATOM     13  C   UNL     1       2.090   3.360  20.314  0.00  0.00    +0.000 C 
ATOM     14  C   UNL     1       2.491   2.636  21.608  0.00  0.00    +0.000 C 
ATOM     15  C   UNL     1       2.121   4.873  20.586  0.00  0.00    +0.000 C 
ATOM     16  C   UNL     1       0.671   2.986  19.867  0.00  0.00    +0.000 C 
ENDBRANCH  12  13
ENDBRANCH   9  12
ENDBRANCH   7   8
ENDBRANCH   1   7
BRANCH   4  17
ATOM     17  C   UNL     1       7.156   4.367  13.254  0.00  0.00    +0.000 C 
BRANCH  17  18
ATOM     18  C   UNL     1       6.239   3.524  12.435  0.00  0.00    +0.000 A 
ATOM     19  C   UNL     1       4.934   3.700  12.033  0.00  0.00    +0.000 A 
ATOM     20  C   UNL     1       4.627   2.543  11.297  0.00  0.00    +0.000 A 
ATOM     21  N   UNL     1       5.654   1.693  11.234  0.00  0.00    +0.000 NA
ATOM     22  N   UNL     1       6.621   2.304  11.937  0.00  0.00    +0.000 N 
ATOM     23  H   UNL     1       7.510   1.828  12.052  0.00  0.00    +0.000 HD
ENDBRANCH  17  18
ENDBRANCH   4  17
TORSDOF 6
ENDMDL
