MODEL 1
REMARK VINA RESULT:      -7.9      0.000      0.000
REMARK  Name = 
REMARK  7 active torsions:
REMARK  status: ('A' for Active; 'I' for Inactive)
REMARK    1  A    between atoms: C_1  and  C_2
REMARK    2  A    between atoms: C_6  and  N_7
REMARK    3  A    between atoms: C_12  and  C_13
REMARK    4  A    between atoms: C_18  and  C_19
REMARK    5  A    between atoms: C_21  and  C_22
REMARK    6  A    between atoms: C_27  and  O_28
REMARK    7  A    between atoms: O_28  and  C_29
REMARK                            x       y       z     vdW  Elec       q    Type
REMARK                         _______ _______ _______ _____ _____    ______ ____
ROOT
ATOM      1  C   UNL     1      -1.048  11.409  21.262  0.00  0.00    +0.000 C 
ATOM      2  O   UNL     1      -2.082  11.396  21.937  0.00  0.00    +0.000 OA
ATOM      3  N   UNL     1      -0.235  10.288  21.241  0.00  0.00    +0.000 N 
ATOM      4  C   UNL     1      -0.420   9.125  22.112  0.00  0.00    +0.000 C 
ATOM      5  C   UNL     1       1.099   9.108  22.264  0.00  0.00    +0.000 C 
ATOM      6  C   UNL     1       1.190  10.009  21.005  0.00  0.00    +0.000 C 
ENDROOT
BRANCH   1  13
ATOM      7  C   UNL     1       0.568  13.849  22.163  0.00  0.00    +0.000 C 
ATOM      8  C   UNL     1       0.026  13.667  20.780  0.00  0.00    +0.000 A 
ATOM      9  C   UNL     1       0.489  14.612  19.834  0.00  0.00    +0.000 A 
ATOM     10  C   UNL     1       0.178  14.503  18.492  0.00  0.00    +0.000 A 
ATOM     11  C   UNL     1      -0.644  13.469  18.077  0.00  0.00    +0.000 A 
ATOM     12  C   UNL     1      -1.180  12.542  19.003  0.00  0.00    +0.000 A 
ATOM     13  C   UNL     1      -0.851  12.619  20.386  0.00  0.00    +0.000 A 
BRANCH  12  14
ATOM     14  N   UNL     1      -2.028  11.541  18.449  0.00  0.00    +0.000 N 
ATOM     15  N   UNL     1      -3.391  11.621  18.449  0.00  0.00    +0.000 NA
ATOM     16  C   UNL     1      -3.733  10.516  17.773  0.00  0.00    +0.000 A 
ATOM     17  C   UNL     1      -2.588   9.853  17.318  0.00  0.00    +0.000 A 
ATOM     18  N   UNL     1      -1.504  10.539  17.679  0.00  0.00    +0.000 NA
ENDBRANCH  12  14
ENDBRANCH   1  13
BRANCH   6  19
ATOM     19  C   UNL     1       1.493   9.138  19.774  0.00  0.00    +0.000 A 
ATOM     20  N   UNL     1       2.117   7.990  19.837  0.00  0.00    +0.000 NA
ATOM     21  C   UNL     1       2.252   7.629  18.508  0.00  0.00    +0.000 A 
ATOM     22  N   UNL     1       1.731   8.521  17.657  0.00  0.00    +0.000 NA
ATOM     23  O   UNL     1       1.205   9.508  18.487  0.00  0.00    +0.000 OA
BRANCH  21  24
ATOM     24  C   UNL     1       3.015   6.451  18.114  0.00  0.00    +0.000 A 
ATOM     25  C   UNL     1       4.187   6.710  17.364  0.00  0.00    +0.000 A 
ATOM     26  C   UNL     1       4.940   5.688  16.798  0.00  0.00    +0.000 A 
ATOM     27  C   UNL     1       4.550   4.370  16.987  0.00  0.00    +0.000 A 
ATOM     28  C   UNL     1       3.415   4.088  17.750  0.00  0.00    +0.000 A 
ATOM     29  C   UNL     1       2.641   5.112  18.329  0.00  0.00    +0.000 A 
BRANCH  29  30
ATOM     30  O   UNL     1       1.502   4.638  18.916  0.00  0.00    +0.000 OA
BRANCH  30  31
ATOM     31  C   UNL     1       1.442   4.426  20.320  0.00  0.00    +0.000 C 
ATOM     32  F   UNL     1       2.645   4.320  20.918  0.00  0.00    +0.000 F 
ATOM     33  F   UNL     1       0.740   5.434  20.884  0.00  0.00    +0.000 F 
ATOM     34  F   UNL     1       0.764   3.278  20.558  0.00  0.00    +0.000 F 
ENDBRANCH  30  31
ENDBRANCH  29  30
ENDBRANCH  21  24
ENDBRANCH   6  19
TORSDOF 6
ENDMDL
MODEL 2
REMARK VINA RESULT:      -7.5      2.161      3.365
REMARK  Name = 
REMARK  7 active torsions:
REMARK  status: ('A' for Active; 'I' for Inactive)
REMARK    1  A    between atoms: C_1  and  C_2
REMARK    2  A    between atoms: C_6  and  N_7
REMARK    3  A    between atoms: C_12  and  C_13
REMARK    4  A    between atoms: C_18  and  C_19
REMARK    5  A    between atoms: C_21  and  C_22
REMARK    6  A    between atoms: C_27  and  O_28
REMARK    7  A    between atoms: O_28  and  C_29
REMARK                            x       y       z     vdW  Elec       q    Type
REMARK                         _______ _______ _______ _____ _____    ______ ____
ROOT
ATOM      1  C   UNL     1       0.170  12.783  19.304  0.00  0.00    +0.000 C 
ATOM      2  O   UNL     1      -0.623  13.620  18.862  0.00  0.00    +0.000 OA
ATOM      3  N   UNL     1       0.001  11.447  18.977  0.00  0.00    +0.000 N 
ATOM      4  C   UNL     1      -1.170  10.917  18.275  0.00  0.00    +0.000 C 
ATOM      5  C   UNL     1      -1.104   9.737  19.240  0.00  0.00    +0.000 C 
ATOM      6  C   UNL     1       0.352  10.151  19.577  0.00  0.00    +0.000 C 
ENDROOT
BRANCH   1  13
ATOM      7  C   UNL     1       2.921  13.111  17.999  0.00  0.00    +0.000 C 
ATOM      8  C   UNL     1       2.578  13.608  19.369  0.00  0.00    +0.000 A 
ATOM      9  C   UNL     1       3.560  14.438  19.960  0.00  0.00    +0.000 A 
ATOM     10  C   UNL     1       3.336  15.074  21.167  0.00  0.00    +0.000 A 
ATOM     11  C   UNL     1       2.141  14.852  21.830  0.00  0.00    +0.000 A 
ATOM     12  C   UNL     1       1.162  13.977  21.302  0.00  0.00    +0.000 A 
ATOM     13  C   UNL     1       1.358  13.333  20.047  0.00  0.00    +0.000 A 
BRANCH  12  14
ATOM     14  N   UNL     1      -0.012  13.820  22.093  0.00  0.00    +0.000 N 
ATOM     15  N   UNL     1      -0.376  12.642  22.678  0.00  0.00    +0.000 NA
ATOM     16  C   UNL     1      -1.475  12.998  23.357  0.00  0.00    +0.000 A 
ATOM     17  C   UNL     1      -1.695  14.374  23.235  0.00  0.00    +0.000 A 
ATOM     18  N   UNL     1      -0.727  14.914  22.495  0.00  0.00    +0.000 NA
ENDBRANCH  12  14
ENDBRANCH   1  13
BRANCH   6  19
ATOM     19  C   UNL     1       1.330   9.293  18.758  0.00  0.00    +0.000 A 
ATOM     20  N   UNL     1       1.897   8.206  19.216  0.00  0.00    +0.000 NA
ATOM     21  C   UNL     1       2.754   7.840  18.193  0.00  0.00    +0.000 A 
ATOM     22  N   UNL     1       2.718   8.670  17.144  0.00  0.00    +0.000 NA
ATOM     23  O   UNL     1       1.761   9.618  17.500  0.00  0.00    +0.000 OA
BRANCH  21  24
ATOM     24  C   UNL     1       3.685   6.729  18.344  0.00  0.00    +0.000 A 
ATOM     25  C   UNL     1       4.761   6.710  17.423  0.00  0.00    +0.000 A 
ATOM     26  C   UNL     1       5.648   5.642  17.350  0.00  0.00    +0.000 A 
ATOM     27  C   UNL     1       5.495   4.569  18.215  0.00  0.00    +0.000 A 
ATOM     28  C   UNL     1       4.460   4.579  19.154  0.00  0.00    +0.000 A 
ATOM     29  C   UNL     1       3.553   5.653  19.241  0.00  0.00    +0.000 A 
BRANCH  29  30
ATOM     30  O   UNL     1       2.539   5.410  20.123  0.00  0.00    +0.000 OA
BRANCH  30  31
ATOM     31  C   UNL     1       1.588   4.383  19.873  0.00  0.00    +0.000 C 
ATOM     32  F   UNL     1       2.033   3.138  20.136  0.00  0.00    +0.000 F 
ATOM     33  F   UNL     1       0.476   4.632  20.597  0.00  0.00    +0.000 F 
ATOM     34  F   UNL     1       1.238   4.424  18.565  0.00  0.00    +0.000 F 
ENDBRANCH  30  31
ENDBRANCH  29  30
ENDBRANCH  21  24
ENDBRANCH   6  19
TORSDOF 6
ENDMDL
MODEL 3
REMARK VINA RESULT:      -7.4      2.254      2.642
REMARK  Name = 
REMARK  7 active torsions:
REMARK  status: ('A' for Active; 'I' for Inactive)
REMARK    1  A    between atoms: C_1  and  C_2
REMARK    2  A    between atoms: C_6  and  N_7
REMARK    3  A    between atoms: C_12  and  C_13
REMARK    4  A    between atoms: C_18  and  C_19
REMARK    5  A    between atoms: C_21  and  C_22
REMARK    6  A    between atoms: C_27  and  O_28
REMARK    7  A    between atoms: O_28  and  C_29
REMARK                            x       y       z     vdW  Elec       q    Type
REMARK                         _______ _______ _______ _____ _____    ______ ____
ROOT
ATOM      1  C   UNL     1      -0.907  11.301  21.082  0.00  0.00    +0.000 C 
ATOM      2  O   UNL     1      -1.945  11.288  21.751  0.00  0.00    +0.000 OA
ATOM      3  N   UNL     1      -0.091  10.181  21.070  0.00  0.00    +0.000 N 
ATOM      4  C   UNL     1      -0.280   9.021  21.944  0.00  0.00    +0.000 C 
ATOM      5  C   UNL     1       1.238   9.007  22.106  0.00  0.00    +0.000 C 
ATOM      6  C   UNL     1       1.336   9.904  20.845  0.00  0.00    +0.000 C 
ENDROOT
BRANCH   1  13
ATOM      7  C   UNL     1       0.747  13.722  21.965  0.00  0.00    +0.000 C 
ATOM      8  C   UNL     1       0.187  13.547  20.588  0.00  0.00    +0.000 A 
ATOM      9  C   UNL     1       0.650  14.487  19.637  0.00  0.00    +0.000 A 
ATOM     10  C   UNL     1       0.322  14.381  18.298  0.00  0.00    +0.000 A 
ATOM     11  C   UNL     1      -0.516  13.356  17.893  0.00  0.00    +0.000 A 
ATOM     12  C   UNL     1      -1.052  12.436  18.825  0.00  0.00    +0.000 A 
ATOM     13  C   UNL     1      -0.706  12.508  20.205  0.00  0.00    +0.000 A 
BRANCH  12  14
ATOM     14  N   UNL     1      -1.918  11.444  18.281  0.00  0.00    +0.000 N 
ATOM     15  N   UNL     1      -3.274  11.582  18.210  0.00  0.00    +0.000 NA
ATOM     16  C   UNL     1      -3.633  10.460  17.575  0.00  0.00    +0.000 A 
ATOM     17  C   UNL     1      -2.500   9.725  17.210  0.00  0.00    +0.000 A 
ATOM     18  N   UNL     1      -1.404  10.382  17.589  0.00  0.00    +0.000 NA
ENDBRANCH  12  14
ENDBRANCH   1  13
BRANCH   6  19
ATOM     19  C   UNL     1       1.648   9.030  19.619  0.00  0.00    +0.000 A 
ATOM     20  N   UNL     1       1.871   7.743  19.687  0.00  0.00    +0.000 NA
ATOM     21  C   UNL     1       2.204   7.409  18.385  0.00  0.00    +0.000 A 
ATOM     22  N   UNL     1       2.187   8.452  17.547  0.00  0.00    +0.000 NA
ATOM     23  O   UNL     1       1.796   9.521  18.349  0.00  0.00    +0.000 OA
BRANCH  21  24
ATOM     24  C   UNL     1       2.653   6.067  18.036  0.00  0.00    +0.000 A 
ATOM     25  C   UNL     1       1.632   5.092  17.939  0.00  0.00    +0.000 A 
ATOM     26  C   UNL     1       1.918   3.744  17.755  0.00  0.00    +0.000 A 
ATOM     27  C   UNL     1       3.239   3.336  17.640  0.00  0.00    +0.000 A 
ATOM     28  C   UNL     1       4.262   4.285  17.701  0.00  0.00    +0.000 A 
ATOM     29  C   UNL     1       3.990   5.655  17.888  0.00  0.00    +0.000 A 
BRANCH  29  30
ATOM     30  O   UNL     1       5.126   6.394  18.058  0.00  0.00    +0.000 OA
BRANCH  30  31
ATOM     31  C   UNL     1       5.901   6.803  16.939  0.00  0.00    +0.000 C 
ATOM     32  F   UNL     1       5.192   6.978  15.806  0.00  0.00    +0.000 F 
ATOM     33  F   UNL     1       6.550   7.946  17.250  0.00  0.00    +0.000 F 
ATOM     34  F   UNL     1       6.840   5.859  16.691  0.00  0.00    +0.000 F 
ENDBRANCH  30  31
ENDBRANCH  29  30
ENDBRANCH  21  24
ENDBRANCH   6  19
TORSDOF 6
ENDMDL
MODEL 4
REMARK VINA RESULT:      -7.4      1.855      2.541
REMARK  Name = 
REMARK  7 active torsions:
REMARK  status: ('A' for Active; 'I' for Inactive)
REMARK    1  A    between atoms: C_1  and  C_2
REMARK    2  A    between atoms: C_6  and  N_7
REMARK    3  A    between atoms: C_12  and  C_13
REMARK    4  A    between atoms: C_18  and  C_19
REMARK    5  A    between atoms: C_21  and  C_22
REMARK    6  A    between atoms: C_27  and  O_28
REMARK    7  A    between atoms: O_28  and  C_29
REMARK                            x       y       z     vdW  Elec       q    Type
REMARK                         _______ _______ _______ _____ _____    ______ ____
ROOT
ATOM      1  C   UNL     1      -1.223  11.780  21.442  0.00  0.00    +0.000 C 
ATOM      2  O   UNL     1      -2.325  11.974  21.962  0.00  0.00    +0.000 OA
ATOM      3  N   UNL     1      -0.526  10.618  21.736  0.00  0.00    +0.000 N 
ATOM      4  C   UNL     1      -0.926   9.664  22.772  0.00  0.00    +0.000 C 
ATOM      5  C   UNL     1       0.555   9.565  23.128  0.00  0.00    +0.000 C 
ATOM      6  C   UNL     1       0.882  10.195  21.749  0.00  0.00    +0.000 C 
ENDROOT
BRANCH   1  13
ATOM      7  C   UNL     1       0.633  14.136  22.061  0.00  0.00    +0.000 C 
ATOM      8  C   UNL     1       0.172  13.771  20.684  0.00  0.00    +0.000 A 
ATOM      9  C   UNL     1       0.822  14.468  19.638  0.00  0.00    +0.000 A 
ATOM     10  C   UNL     1       0.595  14.155  18.311  0.00  0.00    +0.000 A 
ATOM     11  C   UNL     1      -0.324  13.167  18.004  0.00  0.00    +0.000 A 
ATOM     12  C   UNL     1      -1.043  12.493  19.020  0.00  0.00    +0.000 A 
ATOM     13  C   UNL     1      -0.805  12.779  20.395  0.00  0.00    +0.000 A 
BRANCH  12  14
ATOM     14  N   UNL     1      -1.974  11.514  18.569  0.00  0.00    +0.000 N 
ATOM     15  N   UNL     1      -3.316  11.740  18.466  0.00  0.00    +0.000 NA
ATOM     16  C   UNL     1      -3.752  10.586  17.944  0.00  0.00    +0.000 A 
ATOM     17  C   UNL     1      -2.672   9.739  17.671  0.00  0.00    +0.000 A 
ATOM     18  N   UNL     1      -1.534  10.353  17.996  0.00  0.00    +0.000 NA
ENDBRANCH  12  14
ENDBRANCH   1  13
BRANCH   6  19
ATOM     19  C   UNL     1       1.242   9.082  20.751  0.00  0.00    +0.000 A 
ATOM     20  N   UNL     1       1.474   7.844  21.101  0.00  0.00    +0.000 NA
ATOM     21  C   UNL     1       1.851   7.243  19.913  0.00  0.00    +0.000 A 
ATOM     22  N   UNL     1       1.852   8.080  18.869  0.00  0.00    +0.000 NA
ATOM     23  O   UNL     1       1.426   9.291  19.409  0.00  0.00    +0.000 OA
BRANCH  21  24
ATOM     24  C   UNL     1       2.323   5.864  19.875  0.00  0.00    +0.000 A 
ATOM     25  C   UNL     1       1.520   4.929  20.570  0.00  0.00    +0.000 A 
ATOM     26  C   UNL     1       1.913   3.606  20.744  0.00  0.00    +0.000 A 
ATOM     27  C   UNL     1       3.116   3.177  20.204  0.00  0.00    +0.000 A 
ATOM     28  C   UNL     1       3.911   4.074  19.487  0.00  0.00    +0.000 A 
ATOM     29  C   UNL     1       3.528   5.417  19.302  0.00  0.00    +0.000 A 
BRANCH  29  30
ATOM     30  O   UNL     1       4.501   6.159  18.696  0.00  0.00    +0.000 OA
BRANCH  30  31
ATOM     31  C   UNL     1       4.595   6.216  17.279  0.00  0.00    +0.000 C 
ATOM     32  F   UNL     1       4.102   5.133  16.646  0.00  0.00    +0.000 F 
ATOM     33  F   UNL     1       3.960   7.325  16.843  0.00  0.00    +0.000 F 
ATOM     34  F   UNL     1       5.899   6.334  16.934  0.00  0.00    +0.000 F 
ENDBRANCH  30  31
ENDBRANCH  29  30
ENDBRANCH  21  24
ENDBRANCH   6  19
TORSDOF 6
ENDMDL
MODEL 5
REMARK VINA RESULT:      -7.4      3.158      8.831
REMARK  Name = 
REMARK  7 active torsions:
REMARK  status: ('A' for Active; 'I' for Inactive)
REMARK    1  A    between atoms: C_1  and  C_2
REMARK    2  A    between atoms: C_6  and  N_7
REMARK    3  A    between atoms: C_12  and  C_13
REMARK    4  A    between atoms: C_18  and  C_19
REMARK    5  A    between atoms: C_21  and  C_22
REMARK    6  A    between atoms: C_27  and  O_28
REMARK    7  A    between atoms: O_28  and  C_29
REMARK                            x       y       z     vdW  Elec       q    Type
REMARK                         _______ _______ _______ _____ _____    ______ ____
ROOT
ATOM      1  C   UNL     1       2.681   5.190  18.310  0.00  0.00    +0.000 C 
ATOM      2  O   UNL     1       2.554   4.633  17.215  0.00  0.00    +0.000 OA
ATOM      3  N   UNL     1       2.314   6.520  18.443  0.00  0.00    +0.000 N 
ATOM      4  C   UNL     1       1.940   7.383  17.320  0.00  0.00    +0.000 C 
ATOM      5  C   UNL     1       2.749   8.479  18.008  0.00  0.00    +0.000 C 
ATOM      6  C   UNL     1       2.683   7.645  19.315  0.00  0.00    +0.000 C 
ENDROOT
BRANCH   1  13
ATOM      7  C   UNL     1       0.655   3.989  20.267  0.00  0.00    +0.000 C 
ATOM      8  C   UNL     1       2.112   3.646  20.253  0.00  0.00    +0.000 A 
ATOM      9  C   UNL     1       2.471   2.555  21.080  0.00  0.00    +0.000 A 
ATOM     10  C   UNL     1       3.754   2.040  21.079  0.00  0.00    +0.000 A 
ATOM     11  C   UNL     1       4.716   2.638  20.284  0.00  0.00    +0.000 A 
ATOM     12  C   UNL     1       4.411   3.772  19.493  0.00  0.00    +0.000 A 
ATOM     13  C   UNL     1       3.090   4.303  19.456  0.00  0.00    +0.000 A 
BRANCH  12  14
ATOM     14  N   UNL     1       5.495   4.304  18.738  0.00  0.00    +0.000 N 
ATOM     15  N   UNL     1       6.516   5.024  19.288  0.00  0.00    +0.000 NA
ATOM     16  C   UNL     1       7.307   5.237  18.228  0.00  0.00    +0.000 A 
ATOM     17  C   UNL     1       6.796   4.581  17.103  0.00  0.00    +0.000 A 
ATOM     18  N   UNL     1       5.686   3.925  17.438  0.00  0.00    +0.000 NA
ENDBRANCH  12  14
ENDBRANCH   1  13
BRANCH   6  19
ATOM     19  C   UNL     1       1.552   8.182  20.207  0.00  0.00    +0.000 A 
ATOM     20  N   UNL     1       1.053   9.386  20.096  0.00  0.00    +0.000 NA
ATOM     21  C   UNL     1       0.156   9.457  21.148  0.00  0.00    +0.000 A 
ATOM     22  N   UNL     1       0.105   8.339  21.881  0.00  0.00    +0.000 NA
ATOM     23  O   UNL     1       1.005   7.483  21.251  0.00  0.00    +0.000 OA
BRANCH  21  24
ATOM     24  C   UNL     1      -0.541  10.696  21.469  0.00  0.00    +0.000 A 
ATOM     25  C   UNL     1      -1.025  10.793  22.796  0.00  0.00    +0.000 A 
ATOM     26  C   UNL     1      -1.830  11.848  23.211  0.00  0.00    +0.000 A 
ATOM     27  C   UNL     1      -2.155  12.851  22.310  0.00  0.00    +0.000 A 
ATOM     28  C   UNL     1      -1.663  12.794  21.004  0.00  0.00    +0.000 A 
ATOM     29  C   UNL     1      -0.848  11.732  20.567  0.00  0.00    +0.000 A 
BRANCH  29  30
ATOM     30  O   UNL     1      -0.587  11.790  19.228  0.00  0.00    +0.000 OA
BRANCH  30  31
ATOM     31  C   UNL     1      -1.482  11.210  18.288  0.00  0.00    +0.000 C 
ATOM     32  F   UNL     1      -2.650  10.793  18.817  0.00  0.00    +0.000 F 
ATOM     33  F   UNL     1      -1.721  12.103  17.304  0.00  0.00    +0.000 F 
ATOM     34  F   UNL     1      -0.883  10.135  17.722  0.00  0.00    +0.000 F 
ENDBRANCH  30  31
ENDBRANCH  29  30
ENDBRANCH  21  24
ENDBRANCH   6  19
TORSDOF 6
ENDMDL
MODEL 6
REMARK VINA RESULT:      -7.4      5.145      7.515
REMARK  Name = 
REMARK  7 active torsions:
REMARK  status: ('A' for Active; 'I' for Inactive)
REMARK    1  A    between atoms: C_1  and  C_2
REMARK    2  A    between atoms: C_6  and  N_7
REMARK    3  A    between atoms: C_12  and  C_13
REMARK    4  A    between atoms: C_18  and  C_19
REMARK    5  A    between atoms: C_21  and  C_22
REMARK    6  A    between atoms: C_27  and  O_28
REMARK    7  A    between atoms: O_28  and  C_29
REMARK                            x       y       z     vdW  Elec       q    Type
REMARK                         _______ _______ _______ _____ _____    ______ ____
ROOT
ATOM      1  C   UNL     1       0.869  16.045  19.890  0.00  0.00    +0.000 C 
ATOM      2  O   UNL     1       0.881  16.799  20.867  0.00  0.00    +0.000 OA
ATOM      3  N   UNL     1       0.834  14.674  20.088  0.00  0.00    +0.000 N 
ATOM      4  C   UNL     1       0.988  14.031  21.395  0.00  0.00    +0.000 C 
ATOM      5  C   UNL     1       1.853  12.994  20.685  0.00  0.00    +0.000 C 
ATOM      6  C   UNL     1       1.251  13.478  19.340  0.00  0.00    +0.000 C 
ENDROOT
BRANCH   1  13
ATOM      7  C   UNL     1      -1.748  17.312  18.930  0.00  0.00    +0.000 C 
ATOM      8  C   UNL     1      -0.448  17.418  18.197  0.00  0.00    +0.000 A 
ATOM      9  C   UNL     1      -0.450  18.330  17.115  0.00  0.00    +0.000 A 
ATOM     10  C   UNL     1       0.706  18.630  16.421  0.00  0.00    +0.000 A 
ATOM     11  C   UNL     1       1.882  17.985  16.765  0.00  0.00    +0.000 A 
ATOM     12  C   UNL     1       1.910  17.017  17.798  0.00  0.00    +0.000 A 
ATOM     13  C   UNL     1       0.737  16.713  18.546  0.00  0.00    +0.000 A 
BRANCH  12  14
ATOM     14  N   UNL     1       3.177  16.413  18.038  0.00  0.00    +0.000 N 
ATOM     15  N   UNL     1       3.651  15.346  17.331  0.00  0.00    +0.000 NA
ATOM     16  C   UNL     1       4.873  15.188  17.855  0.00  0.00    +0.000 A 
ATOM     17  C   UNL     1       5.135  16.196  18.788  0.00  0.00    +0.000 A 
ATOM     18  N   UNL     1       4.091  17.021  18.855  0.00  0.00    +0.000 NA
ENDBRANCH  12  14
ENDBRANCH   1  13
BRANCH   6  19
ATOM     19  C   UNL     1       0.110  12.536  18.922  0.00  0.00    +0.000 A 
ATOM     20  N   UNL     1      -1.094  12.948  18.619  0.00  0.00    +0.000 NA
ATOM     21  C   UNL     1      -1.791  11.770  18.414  0.00  0.00    +0.000 A 
ATOM     22  N   UNL     1      -1.045  10.672  18.586  0.00  0.00    +0.000 NA
ATOM     23  O   UNL     1       0.218  11.170  18.897  0.00  0.00    +0.000 OA
BRANCH  21  24
ATOM     24  C   UNL     1      -3.228  11.770  18.171  0.00  0.00    +0.000 A 
ATOM     25  C   UNL     1      -4.039  11.849  19.329  0.00  0.00    +0.000 A 
ATOM     26  C   UNL     1      -5.422  11.717  19.269  0.00  0.00    +0.000 A 
ATOM     27  C   UNL     1      -6.036  11.524  18.041  0.00  0.00    +0.000 A 
ATOM     28  C   UNL     1      -5.259  11.475  16.880  0.00  0.00    +0.000 A 
ATOM     29  C   UNL     1      -3.857  11.606  16.923  0.00  0.00    +0.000 A 
BRANCH  29  30
ATOM     30  O   UNL     1      -3.275  11.392  15.706  0.00  0.00    +0.000 OA
BRANCH  30  31
ATOM     31  C   UNL     1      -3.120  10.075  15.196  0.00  0.00    +0.000 C 
ATOM     32  F   UNL     1      -4.280   9.452  14.906  0.00  0.00    +0.000 F 
ATOM     33  F   UNL     1      -2.341  10.123  14.093  0.00  0.00    +0.000 F 
ATOM     34  F   UNL     1      -2.472   9.324  16.118  0.00  0.00    +0.000 F 
ENDBRANCH  30  31
ENDBRANCH  29  30
ENDBRANCH  21  24
ENDBRANCH   6  19
TORSDOF 6
ENDMDL
MODEL 7
REMARK VINA RESULT:      -7.4      1.795      2.630
REMARK  Name = 
REMARK  7 active torsions:
REMARK  status: ('A' for Active; 'I' for Inactive)
REMARK    1  A    between atoms: C_1  and  C_2
REMARK    2  A    between atoms: C_6  and  N_7
REMARK    3  A    between atoms: C_12  and  C_13
REMARK    4  A    between atoms: C_18  and  C_19
REMARK    5  A    between atoms: C_21  and  C_22
REMARK    6  A    between atoms: C_27  and  O_28
REMARK    7  A    between atoms: O_28  and  C_29
REMARK                            x       y       z     vdW  Elec       q    Type
REMARK                         _______ _______ _______ _____ _____    ______ ____
ROOT
ATOM      1  C   UNL     1      -1.117  11.845  21.317  0.00  0.00    +0.000 C 
ATOM      2  O   UNL     1      -2.238  12.095  21.769  0.00  0.00    +0.000 OA
ATOM      3  N   UNL     1      -0.496  10.654  21.658  0.00  0.00    +0.000 N 
ATOM      4  C   UNL     1      -1.004   9.727  22.672  0.00  0.00    +0.000 C 
ATOM      5  C   UNL     1       0.446   9.559  23.118  0.00  0.00    +0.000 C 
ATOM      6  C   UNL     1       0.887  10.163  21.758  0.00  0.00    +0.000 C 
ENDROOT
BRANCH   1  13
ATOM      7  C   UNL     1       0.752  14.158  22.049  0.00  0.00    +0.000 C 
ATOM      8  C   UNL     1       0.391  13.784  20.645  0.00  0.00    +0.000 A 
ATOM      9  C   UNL     1       1.141  14.446  19.645  0.00  0.00    +0.000 A 
ATOM     10  C   UNL     1       1.011  14.118  18.309  0.00  0.00    +0.000 A 
ATOM     11  C   UNL     1       0.090  13.151  17.943  0.00  0.00    +0.000 A 
ATOM     12  C   UNL     1      -0.726  12.514  18.908  0.00  0.00    +0.000 A 
ATOM     13  C   UNL     1      -0.589  12.815  20.293  0.00  0.00    +0.000 A 
BRANCH  12  14
ATOM     14  N   UNL     1      -1.647  11.555  18.397  0.00  0.00    +0.000 N 
ATOM     15  N   UNL     1      -1.305  10.271  18.084  0.00  0.00    +0.000 NA
ATOM     16  C   UNL     1      -2.485   9.750  17.725  0.00  0.00    +0.000 A 
ATOM     17  C   UNL     1      -3.505  10.690  17.906  0.00  0.00    +0.000 A 
ATOM     18  N   UNL     1      -2.990  11.814  18.404  0.00  0.00    +0.000 NA
ENDBRANCH  12  14
ENDBRANCH   1  13
BRANCH   6  19
ATOM     19  C   UNL     1       1.251   9.027  20.789  0.00  0.00    +0.000 A 
ATOM     20  N   UNL     1       1.350   7.773  21.147  0.00  0.00    +0.000 NA
ATOM     21  C   UNL     1       1.790   7.146  19.995  0.00  0.00    +0.000 A 
ATOM     22  N   UNL     1       1.958   7.983  18.964  0.00  0.00    +0.000 NA
ATOM     23  O   UNL     1       1.580   9.223  19.473  0.00  0.00    +0.000 OA
BRANCH  21  24
ATOM     24  C   UNL     1       2.154   5.735  19.990  0.00  0.00    +0.000 A 
ATOM     25  C   UNL     1       1.178   4.855  20.518  0.00  0.00    +0.000 A 
ATOM     26  C   UNL     1       1.433   3.502  20.710  0.00  0.00    +0.000 A 
ATOM     27  C   UNL     1       2.671   2.986  20.356  0.00  0.00    +0.000 A 
ATOM     28  C   UNL     1       3.639   3.828  19.804  0.00  0.00    +0.000 A 
ATOM     29  C   UNL     1       3.397   5.201  19.604  0.00  0.00    +0.000 A 
BRANCH  29  30
ATOM     30  O   UNL     1       4.510   5.872  19.185  0.00  0.00    +0.000 OA
BRANCH  30  31
ATOM     31  C   UNL     1       4.798   6.009  17.799  0.00  0.00    +0.000 C 
ATOM     32  F   UNL     1       5.243   7.230  17.443  0.00  0.00    +0.000 F 
ATOM     33  F   UNL     1       5.705   5.073  17.447  0.00  0.00    +0.000 F 
ATOM     34  F   UNL     1       3.668   5.764  17.094  0.00  0.00    +0.000 F 
ENDBRANCH  30  31
ENDBRANCH  29  30
ENDBRANCH  21  24
ENDBRANCH   6  19
TORSDOF 6
ENDMDL
MODEL 8
REMARK VINA RESULT:      -7.3      2.972      4.311
REMARK  Name = 
REMARK  7 active torsions:
REMARK  status: ('A' for Active; 'I' for Inactive)
REMARK    1  A    between atoms: C_1  and  C_2
REMARK    2  A    between atoms: C_6  and  N_7
REMARK    3  A    between atoms: C_12  and  C_13
REMARK    4  A    between atoms: C_18  and  C_19
REMARK    5  A    between atoms: C_21  and  C_22
REMARK    6  A    between atoms: C_27  and  O_28
REMARK    7  A    between atoms: O_28  and  C_29
REMARK                            x       y       z     vdW  Elec       q    Type
REMARK                         _______ _______ _______ _____ _____    ______ ____
ROOT
ATOM      1  C   UNL     1       0.325  13.247  19.091  0.00  0.00    +0.000 C 
ATOM      2  O   UNL     1      -0.293  14.156  18.530  0.00  0.00    +0.000 OA
ATOM      3  N   UNL     1       0.007  11.929  18.805  0.00  0.00    +0.000 N 
ATOM      4  C   UNL     1      -1.147  11.522  18.000  0.00  0.00    +0.000 C 
ATOM      5  C   UNL     1      -1.347  10.400  19.016  0.00  0.00    +0.000 C 
ATOM      6  C   UNL     1       0.109  10.634  19.495  0.00  0.00    +0.000 C 
ENDROOT
BRANCH   1  13
ATOM      7  C   UNL     1       3.132  13.655  17.937  0.00  0.00    +0.000 C 
ATOM      8  C   UNL     1       2.747  13.995  19.343  0.00  0.00    +0.000 A 
ATOM      9  C   UNL     1       3.722  14.724  20.064  0.00  0.00    +0.000 A 
ATOM     10  C   UNL     1       3.465  15.219  21.329  0.00  0.00    +0.000 A 
ATOM     11  C   UNL     1       2.240  14.951  21.916  0.00  0.00    +0.000 A 
ATOM     12  C   UNL     1       1.264  14.170  21.253  0.00  0.00    +0.000 A 
ATOM     13  C   UNL     1       1.496  13.674  19.938  0.00  0.00    +0.000 A 
BRANCH  12  14
ATOM     14  N   UNL     1       0.057  13.951  21.976  0.00  0.00    +0.000 N 
ATOM     15  N   UNL     1      -0.233  12.787  22.628  0.00  0.00    +0.000 NA
ATOM     16  C   UNL     1      -1.407  13.077  23.203  0.00  0.00    +0.000 A 
ATOM     17  C   UNL     1      -1.750  14.410  22.959  0.00  0.00    +0.000 A 
ATOM     18  N   UNL     1      -0.789  14.992  22.243  0.00  0.00    +0.000 NA
ENDBRANCH  12  14
ENDBRANCH   1  13
BRANCH   6  19
ATOM     19  C   UNL     1       1.038   9.607  18.826  0.00  0.00    +0.000 A 
ATOM     20  N   UNL     1       1.294   8.427  19.329  0.00  0.00    +0.000 NA
ATOM     21  C   UNL     1       2.237   7.908  18.460  0.00  0.00    +0.000 A 
ATOM     22  N   UNL     1       2.552   8.737  17.459  0.00  0.00    +0.000 NA
ATOM     23  O   UNL     1       1.746   9.852  17.679  0.00  0.00    +0.000 OA
BRANCH  21  24
ATOM     24  C   UNL     1       2.895   6.635  18.726  0.00  0.00    +0.000 A 
ATOM     25  C   UNL     1       2.305   5.848  19.743  0.00  0.00    +0.000 A 
ATOM     26  C   UNL     1       2.898   4.678  20.206  0.00  0.00    +0.000 A 
ATOM     27  C   UNL     1       4.092   4.252  19.645  0.00  0.00    +0.000 A 
ATOM     28  C   UNL     1       4.678   4.995  18.617  0.00  0.00    +0.000 A 
ATOM     29  C   UNL     1       4.091   6.183  18.138  0.00  0.00    +0.000 A 
BRANCH  29  30
ATOM     30  O   UNL     1       4.884   6.829  17.234  0.00  0.00    +0.000 OA
BRANCH  30  31
ATOM     31  C   UNL     1       5.219   6.221  15.994  0.00  0.00    +0.000 C 
ATOM     32  F   UNL     1       4.611   5.038  15.774  0.00  0.00    +0.000 F 
ATOM     33  F   UNL     1       4.922   7.077  14.993  0.00  0.00    +0.000 F 
ATOM     34  F   UNL     1       6.556   6.006  15.960  0.00  0.00    +0.000 F 
ENDBRANCH  30  31
ENDBRANCH  29  30
ENDBRANCH  21  24
ENDBRANCH   6  19
TORSDOF 6
ENDMDL
MODEL 9
REMARK VINA RESULT:      -7.3      5.406      8.513
REMARK  Name = 
REMARK  7 active torsions:
REMARK  status: ('A' for Active; 'I' for Inactive)
REMARK    1  A    between atoms: C_1  and  C_2
REMARK    2  A    between atoms: C_6  and  N_7
REMARK    3  A    between atoms: C_12  and  C_13
REMARK    4  A    between atoms: C_18  and  C_19
REMARK    5  A    between atoms: C_21  and  C_22
REMARK    6  A    between atoms: C_27  and  O_28
REMARK    7  A    between atoms: O_28  and  C_29
REMARK                            x       y       z     vdW  Elec       q    Type
REMARK                         _______ _______ _______ _____ _____    ______ ____
ROOT
ATOM      1  C   UNL     1      -1.372  13.232  23.103  0.00  0.00    +0.000 C 
ATOM      2  O   UNL     1      -0.602  13.922  23.778  0.00  0.00    +0.000 OA
ATOM      3  N   UNL     1      -2.730  13.259  23.380  0.00  0.00    +0.000 N 
ATOM      4  C   UNL     1      -3.314  13.924  24.547  0.00  0.00    +0.000 C 
ATOM      5  C   UNL     1      -4.237  12.714  24.664  0.00  0.00    +0.000 C 
ATOM      6  C   UNL     1      -3.872  12.351  23.200  0.00  0.00    +0.000 C 
ENDROOT
BRANCH   1  13
ATOM      7  C   UNL     1      -0.725  10.238  23.116  0.00  0.00    +0.000 C 
ATOM      8  C   UNL     1      -0.611  11.115  21.909  0.00  0.00    +0.000 A 
ATOM      9  C   UNL     1      -0.379  10.425  20.696  0.00  0.00    +0.000 A 
ATOM     10  C   UNL     1      -0.373  11.082  19.480  0.00  0.00    +0.000 A 
ATOM     11  C   UNL     1      -0.553  12.455  19.460  0.00  0.00    +0.000 A 
ATOM     12  C   UNL     1      -0.723  13.189  20.658  0.00  0.00    +0.000 A 
ATOM     13  C   UNL     1      -0.760  12.530  21.920  0.00  0.00    +0.000 A 
BRANCH  12  14
ATOM     14  N   UNL     1      -0.876  14.596  20.499  0.00  0.00    +0.000 N 
ATOM     15  N   UNL     1       0.135  15.427  20.109  0.00  0.00    +0.000 NA
ATOM     16  C   UNL     1      -0.491  16.608  20.034  0.00  0.00    +0.000 A 
ATOM     17  C   UNL     1      -1.857  16.450  20.293  0.00  0.00    +0.000 A 
ATOM     18  N   UNL     1      -2.120  15.163  20.516  0.00  0.00    +0.000 NA
ENDBRANCH  12  14
ENDBRANCH   1  13
BRANCH   6  19
ATOM     19  C   UNL     1      -4.974  12.862  22.258  0.00  0.00    +0.000 A 
ATOM     20  N   UNL     1      -4.848  12.910  20.956  0.00  0.00    +0.000 NA
ATOM     21  C   UNL     1      -6.019  13.522  20.546  0.00  0.00    +0.000 A 
ATOM     22  N   UNL     1      -6.837  13.841  21.556  0.00  0.00    +0.000 NA
ATOM     23  O   UNL     1      -6.165  13.386  22.688  0.00  0.00    +0.000 OA
BRANCH  21  24
ATOM     24  C   UNL     1      -6.237  13.887  19.151  0.00  0.00    +0.000 A 
ATOM     25  C   UNL     1      -6.604  15.236  18.928  0.00  0.00    +0.000 A 
ATOM     26  C   UNL     1      -6.982  15.697  17.672  0.00  0.00    +0.000 A 
ATOM     27  C   UNL     1      -6.982  14.822  16.596  0.00  0.00    +0.000 A 
ATOM     28  C   UNL     1      -6.593  13.494  16.786  0.00  0.00    +0.000 A 
ATOM     29  C   UNL     1      -6.208  13.010  18.052  0.00  0.00    +0.000 A 
BRANCH  29  30
ATOM     30  O   UNL     1      -5.999  11.660  18.054  0.00  0.00    +0.000 OA
BRANCH  30  31
ATOM     31  C   UNL     1      -4.763  11.116  17.612  0.00  0.00    +0.000 C 
ATOM     32  F   UNL     1      -4.676  10.944  16.278  0.00  0.00    +0.000 F 
ATOM     33  F   UNL     1      -3.758  11.913  18.035  0.00  0.00    +0.000 F 
ATOM     34  F   UNL     1      -4.589   9.904  18.192  0.00  0.00    +0.000 F 
ENDBRANCH  30  31
ENDBRANCH  29  30
ENDBRANCH  21  24
ENDBRANCH   6  19
TORSDOF 6
ENDMDL
