MODEL 1
REMARK VINA RESULT:      -8.2      0.000      0.000
REMARK  Name = 
REMARK  11 active torsions:
REMARK  status: ('A' for Active; 'I' for Inactive)
REMARK    1  A    between atoms: C_1  and  N_2
REMARK    2  A    between atoms: N_2  and  C_3
REMARK    3  A    between atoms: N_2  and  C_4
REMARK    4  A    between atoms: C_4  and  C_5
REMARK    5  A    between atoms: C_5  and  C_6
REMARK    6  A    between atoms: C_6  and  N_7
REMARK    7  A    between atoms: N_7  and  C_8
REMARK    8  A    between atoms: C_8  and  C_9
REMARK    9  A    between atoms: C_18  and  O_19
REMARK   10  A    between atoms: C_23  and  S_24
REMARK   11  A    between atoms: N_25  and  C_26
REMARK                            x       y       z     vdW  Elec       q    Type
REMARK                         _______ _______ _______ _____ _____    ______ ____
ROOT
ATOM      1  N   UNL     1       4.099   4.578  17.583  0.00  0.00    +0.000 N 
ATOM      2  C   UNL     1       5.080   4.499  16.596  0.00  0.00    +0.000 C 
ATOM      3  N   UNL     1       4.786   4.300  15.341  0.00  0.00    +0.000 NA
ENDROOT
BRANCH   3   4
ATOM      4  C   UNL     1       5.716   4.311  14.283  0.00  0.00    +0.000 A 
ATOM      5  C   UNL     1       6.876   5.093  14.269  0.00  0.00    +0.000 A 
ATOM      6  C   UNL     1       7.716   5.130  13.151  0.00  0.00    +0.000 A 
ATOM      7  C   UNL     1       7.462   4.303  12.064  0.00  0.00    +0.000 A 
ATOM      8  C   UNL     1       6.371   3.439  12.098  0.00  0.00    +0.000 A 
ATOM      9  C   UNL     1       5.502   3.453  13.198  0.00  0.00    +0.000 A 
ENDBRANCH   3   4
BRANCH   2  10
ATOM     10  S   UNL     1       6.740   4.686  17.196  0.00  0.00    +0.000 S 
ATOM     11  H   UNL     1       6.568   3.844  18.225  0.00  0.00    +0.000 HD
ENDBRANCH   2  10
BRANCH   1  12
ATOM     12  C   UNL     1       2.753   4.022  17.361  0.00  0.00    +0.000 C 
BRANCH  12  13
ATOM     13  C   UNL     1       2.640   2.533  17.731  0.00  0.00    +0.000 C 
BRANCH  13  14
ATOM     14  C   UNL     1       1.814   2.196  18.992  0.00  0.00    +0.000 C 
BRANCH  14  16
ATOM     15  C   UNL     1       1.628   2.491  21.427  0.00  0.00    +0.000 C 
ATOM     16  N   UNL     1       2.416   2.766  20.221  0.00  0.00    +0.000 NA
ATOM     17  C   UNL     1       3.787   2.288  20.438  0.00  0.00    +0.000 C 
ENDBRANCH  14  16
ENDBRANCH  13  14
ENDBRANCH  12  13
ENDBRANCH   1  12
BRANCH   1  18
ATOM     18  C   UNL     1       4.212   5.494  18.727  0.00  0.00    +0.000 C 
BRANCH  18  19
ATOM     19  C   UNL     1       3.111   6.516  18.920  0.00  0.00    +0.000 A 
ATOM     20  C   UNL     1       2.886   7.656  18.134  0.00  0.00    +0.000 A 
ATOM     21  C   UNL     1       2.045   8.698  18.597  0.00  0.00    +0.000 A 
ATOM     22  C   UNL     1       1.977   9.962  17.973  0.00  0.00    +0.000 A 
ATOM     23  C   UNL     1       1.313  10.967  18.644  0.00  0.00    +0.000 A 
ATOM     24  C   UNL     1       0.607  10.719  19.797  0.00  0.00    +0.000 A 
ATOM     25  C   UNL     1       0.553   9.473  20.359  0.00  0.00    +0.000 A 
ATOM     26  C   UNL     1       1.341   8.470  19.813  0.00  0.00    +0.000 A 
ATOM     27  N   UNL     1       1.482   7.363  20.531  0.00  0.00    +0.000 NA
ATOM     28  C   UNL     1       2.386   6.469  20.103  0.00  0.00    +0.000 A 
ATOM     29  O   UNL     1       0.119  11.860  20.362  0.00  0.00    +0.000 OA
ATOM     30  C   UNL     1       0.918  12.821  19.645  0.00  0.00    +0.000 C 
ATOM     31  O   UNL     1       1.368  12.303  18.372  0.00  0.00    +0.000 OA
BRANCH  28  32
ATOM     32  O   UNL     1       2.653   5.542  21.055  0.00  0.00    +0.000 OA
ATOM     33  H   UNL     1       3.529   5.867  21.340  0.00  0.00    +0.000 HD
ENDBRANCH  28  32
ENDBRANCH  18  19
ENDBRANCH   1  18
TORSDOF 9
ENDMDL
MODEL 2
REMARK VINA RESULT:      -7.3      4.509     10.501
REMARK  Name = 
REMARK  11 active torsions:
REMARK  status: ('A' for Active; 'I' for Inactive)
REMARK    1  A    between atoms: C_1  and  N_2
REMARK    2  A    between atoms: N_2  and  C_3
REMARK    3  A    between atoms: N_2  and  C_4
REMARK    4  A    between atoms: C_4  and  C_5
REMARK    5  A    between atoms: C_5  and  C_6
REMARK    6  A    between atoms: C_6  and  N_7
REMARK    7  A    between atoms: N_7  and  C_8
REMARK    8  A    between atoms: C_8  and  C_9
REMARK    9  A    between atoms: C_18  and  O_19
REMARK   10  A    between atoms: C_23  and  S_24
REMARK   11  A    between atoms: N_25  and  C_26
REMARK                            x       y       z     vdW  Elec       q    Type
REMARK                         _______ _______ _______ _____ _____    ______ ____
ROOT
ATOM      1  N   UNL     1      -0.623  11.280  20.065  0.00  0.00    +0.000 N 
ATOM      2  C   UNL     1      -1.237  12.235  20.873  0.00  0.00    +0.000 C 
ATOM      3  N   UNL     1      -2.480  12.126  21.253  0.00  0.00    +0.000 NA
ENDROOT
BRANCH   3   4
ATOM      4  C   UNL     1      -3.129  12.999  22.148  0.00  0.00    +0.000 A 
ATOM      5  C   UNL     1      -3.791  14.169  21.759  0.00  0.00    +0.000 A 
ATOM      6  C   UNL     1      -4.339  15.043  22.703  0.00  0.00    +0.000 A 
ATOM      7  C   UNL     1      -4.323  14.709  24.052  0.00  0.00    +0.000 A 
ATOM      8  C   UNL     1      -3.761  13.500  24.453  0.00  0.00    +0.000 A 
ATOM      9  C   UNL     1      -3.162  12.659  23.506  0.00  0.00    +0.000 A 
ENDBRANCH   3   4
BRANCH   2  10
ATOM     10  S   UNL     1      -0.190  13.597  21.323  0.00  0.00    +0.000 S 
ATOM     11  H   UNL     1      -1.178  14.501  21.275  0.00  0.00    +0.000 HD
ENDBRANCH   2  10
BRANCH   1  12
ATOM     12  C   UNL     1      -1.422  10.348  19.250  0.00  0.00    +0.000 C 
BRANCH  12  13
ATOM     13  C   UNL     1      -1.873  10.946  17.907  0.00  0.00    +0.000 C 
BRANCH  13  14
ATOM     14  C   UNL     1      -2.009   9.963  16.724  0.00  0.00    +0.000 C 
BRANCH  14  16
ATOM     15  C   UNL     1      -4.086  11.261  16.489  0.00  0.00    +0.000 C 
ATOM     16  N   UNL     1      -3.315  10.099  16.034  0.00  0.00    +0.000 NA
ATOM     17  C   UNL     1      -3.163  10.179  14.576  0.00  0.00    +0.000 C 
ENDBRANCH  14  16
ENDBRANCH  13  14
ENDBRANCH  12  13
ENDBRANCH   1  12
BRANCH   1  18
ATOM     18  C   UNL     1       0.789  10.907  20.230  0.00  0.00    +0.000 C 
BRANCH  18  19
ATOM     19  C   UNL     1       1.285   9.687  19.481  0.00  0.00    +0.000 A 
ATOM     20  C   UNL     1       1.466   8.401  20.011  0.00  0.00    +0.000 A 
ATOM     21  C   UNL     1       2.233   7.435  19.314  0.00  0.00    +0.000 A 
ATOM     22  C   UNL     1       2.654   6.222  19.903  0.00  0.00    +0.000 A 
ATOM     23  C   UNL     1       3.589   5.475  19.218  0.00  0.00    +0.000 A 
ATOM     24  C   UNL     1       3.983   5.806  17.944  0.00  0.00    +0.000 A 
ATOM     25  C   UNL     1       3.497   6.911  17.300  0.00  0.00    +0.000 A 
ATOM     26  C   UNL     1       2.685   7.783  18.010  0.00  0.00    +0.000 A 
ATOM     27  N   UNL     1       2.456   8.969  17.461  0.00  0.00    +0.000 NA
ATOM     28  C   UNL     1       1.830   9.882  18.219  0.00  0.00    +0.000 A 
ATOM     29  O   UNL     1       4.992   5.010  17.489  0.00  0.00    +0.000 OA
ATOM     30  C   UNL     1       5.402   4.434  18.745  0.00  0.00    +0.000 C 
ATOM     31  O   UNL     1       4.331   4.443  19.716  0.00  0.00    +0.000 OA
BRANCH  28  32
ATOM     32  O   UNL     1       1.919  11.120  17.674  0.00  0.00    +0.000 OA
ATOM     33  H   UNL     1       1.548  10.923  16.793  0.00  0.00    +0.000 HD
ENDBRANCH  28  32
ENDBRANCH  18  19
ENDBRANCH   1  18
TORSDOF 9
ENDMDL
MODEL 3
REMARK VINA RESULT:      -7.2      0.603      1.218
REMARK  Name = 
REMARK  11 active torsions:
REMARK  status: ('A' for Active; 'I' for Inactive)
REMARK    1  A    between atoms: C_1  and  N_2
REMARK    2  A    between atoms: N_2  and  C_3
REMARK    3  A    between atoms: N_2  and  C_4
REMARK    4  A    between atoms: C_4  and  C_5
REMARK    5  A    between atoms: C_5  and  C_6
REMARK    6  A    between atoms: C_6  and  N_7
REMARK    7  A    between atoms: N_7  and  C_8
REMARK    8  A    between atoms: C_8  and  C_9
REMARK    9  A    between atoms: C_18  and  O_19
REMARK   10  A    between atoms: C_23  and  S_24
REMARK   11  A    between atoms: N_25  and  C_26
REMARK                            x       y       z     vdW  Elec       q    Type
REMARK                         _______ _______ _______ _____ _____    ______ ____
ROOT
ATOM      1  N   UNL     1       3.742   4.723  17.600  0.00  0.00    +0.000 N 
ATOM      2  C   UNL     1       4.742   4.556  16.645  0.00  0.00    +0.000 C 
ATOM      3  N   UNL     1       4.471   4.405  15.377  0.00  0.00    +0.000 NA
ENDROOT
BRANCH   3   4
ATOM      4  C   UNL     1       5.433   4.334  14.351  0.00  0.00    +0.000 A 
ATOM      5  C   UNL     1       5.289   3.559  13.194  0.00  0.00    +0.000 A 
ATOM      6  C   UNL     1       6.318   3.459  12.253  0.00  0.00    +0.000 A 
ATOM      7  C   UNL     1       7.474   4.216  12.402  0.00  0.00    +0.000 A 
ATOM      8  C   UNL     1       7.596   5.074  13.492  0.00  0.00    +0.000 A 
ATOM      9  C   UNL     1       6.585   5.123  14.461  0.00  0.00    +0.000 A 
ENDBRANCH   3   4
BRANCH   2  10
ATOM     10  S   UNL     1       6.391   4.562  17.301  0.00  0.00    +0.000 S 
ATOM     11  H   UNL     1       6.187   3.499  18.091  0.00  0.00    +0.000 HD
ENDBRANCH   2  10
BRANCH   1  12
ATOM     12  C   UNL     1       2.353   4.312  17.326  0.00  0.00    +0.000 C 
BRANCH  12  13
ATOM     13  C   UNL     1       2.044   2.874  17.777  0.00  0.00    +0.000 C 
BRANCH  13  14
ATOM     14  C   UNL     1       2.194   2.575  19.284  0.00  0.00    +0.000 C 
BRANCH  14  16
ATOM     15  C   UNL     1       3.952   1.130  18.349  0.00  0.00    +0.000 C 
ATOM     16  N   UNL     1       3.351   1.691  19.564  0.00  0.00    +0.000 NA
ATOM     17  C   UNL     1       4.398   2.378  20.331  0.00  0.00    +0.000 C 
ENDBRANCH  14  16
ENDBRANCH  13  14
ENDBRANCH  12  13
ENDBRANCH   1  12
BRANCH   1  18
ATOM     18  C   UNL     1       3.909   5.606  18.763  0.00  0.00    +0.000 C 
BRANCH  18  19
ATOM     19  C   UNL     1       2.854   6.669  18.996  0.00  0.00    +0.000 A 
ATOM     20  C   UNL     1       2.647   7.820  18.222  0.00  0.00    +0.000 A 
ATOM     21  C   UNL     1       1.861   8.890  18.716  0.00  0.00    +0.000 A 
ATOM     22  C   UNL     1       1.820  10.159  18.098  0.00  0.00    +0.000 A 
ATOM     23  C   UNL     1       1.217  11.185  18.795  0.00  0.00    +0.000 A 
ATOM     24  C   UNL     1       0.542  10.958  19.970  0.00  0.00    +0.000 A 
ATOM     25  C   UNL     1       0.459   9.713  20.530  0.00  0.00    +0.000 A 
ATOM     26  C   UNL     1       1.190   8.683  19.955  0.00  0.00    +0.000 A 
ATOM     27  N   UNL     1       1.313   7.569  20.664  0.00  0.00    +0.000 NA
ATOM     28  C   UNL     1       2.169   6.644  20.202  0.00  0.00    +0.000 A 
ATOM     29  O   UNL     1       0.116  12.114  20.555  0.00  0.00    +0.000 OA
ATOM     30  C   UNL     1       0.926  13.048  19.815  0.00  0.00    +0.000 C 
ATOM     31  O   UNL     1       1.313  12.519  18.526  0.00  0.00    +0.000 OA
BRANCH  28  32
ATOM     32  O   UNL     1       2.433   5.703  21.143  0.00  0.00    +0.000 OA
ATOM     33  H   UNL     1       1.541   5.311  21.218  0.00  0.00    +0.000 HD
ENDBRANCH  28  32
ENDBRANCH  18  19
ENDBRANCH   1  18
TORSDOF 9
ENDMDL
MODEL 4
REMARK VINA RESULT:      -7.1      3.745      6.790
REMARK  Name = 
REMARK  11 active torsions:
REMARK  status: ('A' for Active; 'I' for Inactive)
REMARK    1  A    between atoms: C_1  and  N_2
REMARK    2  A    between atoms: N_2  and  C_3
REMARK    3  A    between atoms: N_2  and  C_4
REMARK    4  A    between atoms: C_4  and  C_5
REMARK    5  A    between atoms: C_5  and  C_6
REMARK    6  A    between atoms: C_6  and  N_7
REMARK    7  A    between atoms: N_7  and  C_8
REMARK    8  A    between atoms: C_8  and  C_9
REMARK    9  A    between atoms: C_18  and  O_19
REMARK   10  A    between atoms: C_23  and  S_24
REMARK   11  A    between atoms: N_25  and  C_26
REMARK                            x       y       z     vdW  Elec       q    Type
REMARK                         _______ _______ _______ _____ _____    ______ ____
ROOT
ATOM      1  N   UNL     1       1.093   9.126  19.984  0.00  0.00    +0.000 N 
ATOM      2  C   UNL     1       1.832   8.117  19.371  0.00  0.00    +0.000 C 
ATOM      3  N   UNL     1       2.173   7.027  20.002  0.00  0.00    +0.000 NA
ENDROOT
BRANCH   3   4
ATOM      4  C   UNL     1       2.829   5.927  19.414  0.00  0.00    +0.000 A 
ATOM      5  C   UNL     1       4.202   5.680  19.532  0.00  0.00    +0.000 A 
ATOM      6  C   UNL     1       4.811   4.622  18.851  0.00  0.00    +0.000 A 
ATOM      7  C   UNL     1       4.038   3.728  18.119  0.00  0.00    +0.000 A 
ATOM      8  C   UNL     1       2.656   3.893  18.073  0.00  0.00    +0.000 A 
ATOM      9  C   UNL     1       2.062   4.991  18.710  0.00  0.00    +0.000 A 
ENDBRANCH   3   4
BRANCH   2  10
ATOM     10  S   UNL     1       2.266   8.448  17.682  0.00  0.00    +0.000 S 
ATOM     11  H   UNL     1       1.425   7.532  17.182  0.00  0.00    +0.000 HD
ENDBRANCH   2  10
BRANCH   1  12
ATOM     12  C   UNL     1       1.028   9.235  21.452  0.00  0.00    +0.000 C 
BRANCH  12  13
ATOM     13  C   UNL     1      -0.410   9.264  21.997  0.00  0.00    +0.000 C 
BRANCH  13  14
ATOM     14  C   UNL     1      -0.722  10.332  23.068  0.00  0.00    +0.000 C 
BRANCH  14  16
ATOM     15  C   UNL     1      -2.588  11.929  23.208  0.00  0.00    +0.000 C 
ATOM     16  N   UNL     1      -1.374  11.530  22.486  0.00  0.00    +0.000 NA
ATOM     17  C   UNL     1      -0.465  12.681  22.427  0.00  0.00    +0.000 C 
ENDBRANCH  14  16
ENDBRANCH  13  14
ENDBRANCH  12  13
ENDBRANCH   1  12
BRANCH   1  18
ATOM     18  C   UNL     1       0.080   9.905  19.258  0.00  0.00    +0.000 C 
BRANCH  18  19
ATOM     19  C   UNL     1       0.403  11.350  18.933  0.00  0.00    +0.000 A 
ATOM     20  C   UNL     1       1.683  11.909  18.808  0.00  0.00    +0.000 A 
ATOM     21  C   UNL     1       1.862  13.314  18.827  0.00  0.00    +0.000 A 
ATOM     22  C   UNL     1       3.130  13.922  18.954  0.00  0.00    +0.000 A 
ATOM     23  C   UNL     1       3.161  15.278  19.201  0.00  0.00    +0.000 A 
ATOM     24  C   UNL     1       2.019  16.043  19.171  0.00  0.00    +0.000 A 
ATOM     25  C   UNL     1       0.789  15.498  18.927  0.00  0.00    +0.000 A 
ATOM     26  C   UNL     1       0.687  14.117  18.839  0.00  0.00    +0.000 A 
ATOM     27  N   UNL     1      -0.536  13.604  18.880  0.00  0.00    +0.000 NA
ATOM     28  C   UNL     1      -0.635  12.270  18.984  0.00  0.00    +0.000 A 
ATOM     29  O   UNL     1       2.248  17.332  19.550  0.00  0.00    +0.000 OA
ATOM     30  C   UNL     1       3.541  17.157  20.161  0.00  0.00    +0.000 C 
ATOM     31  O   UNL     1       4.234  16.004  19.632  0.00  0.00    +0.000 OA
BRANCH  28  32
ATOM     32  O   UNL     1      -1.895  11.893  19.314  0.00  0.00    +0.000 OA
ATOM     33  H   UNL     1      -1.685  11.065  19.788  0.00  0.00    +0.000 HD
ENDBRANCH  28  32
ENDBRANCH  18  19
ENDBRANCH   1  18
TORSDOF 9
ENDMDL
MODEL 5
REMARK VINA RESULT:      -7.1      4.060      9.411
REMARK  Name = 
REMARK  11 active torsions:
REMARK  status: ('A' for Active; 'I' for Inactive)
REMARK    1  A    between atoms: C_1  and  N_2
REMARK    2  A    between atoms: N_2  and  C_3
REMARK    3  A    between atoms: N_2  and  C_4
REMARK    4  A    between atoms: C_4  and  C_5
REMARK    5  A    between atoms: C_5  and  C_6
REMARK    6  A    between atoms: C_6  and  N_7
REMARK    7  A    between atoms: N_7  and  C_8
REMARK    8  A    between atoms: C_8  and  C_9
REMARK    9  A    between atoms: C_18  and  O_19
REMARK   10  A    between atoms: C_23  and  S_24
REMARK   11  A    between atoms: N_25  and  C_26
REMARK                            x       y       z     vdW  Elec       q    Type
REMARK                         _______ _______ _______ _____ _____    ______ ____
ROOT
ATOM      1  N   UNL     1      -0.276  11.880  20.538  0.00  0.00    +0.000 N 
ATOM      2  C   UNL     1       0.171  12.905  19.707  0.00  0.00    +0.000 C 
ATOM      3  N   UNL     1       1.061  13.776  20.097  0.00  0.00    +0.000 NA
ENDROOT
BRANCH   3   4
ATOM      4  C   UNL     1       1.628  14.771  19.276  0.00  0.00    +0.000 A 
ATOM      5  C   UNL     1       1.145  16.081  19.186  0.00  0.00    +0.000 A 
ATOM      6  C   UNL     1       1.695  16.998  18.286  0.00  0.00    +0.000 A 
ATOM      7  C   UNL     1       2.808  16.650  17.531  0.00  0.00    +0.000 A 
ATOM      8  C   UNL     1       3.371  15.386  17.680  0.00  0.00    +0.000 A 
ATOM      9  C   UNL     1       2.777  14.453  18.541  0.00  0.00    +0.000 A 
ENDBRANCH   3   4
BRANCH   2  10
ATOM     10  S   UNL     1      -0.575  12.920  18.096  0.00  0.00    +0.000 S 
ATOM     11  H   UNL     1       0.591  12.805  17.446  0.00  0.00    +0.000 HD
ENDBRANCH   2  10
BRANCH   1  12
ATOM     12  C   UNL     1      -0.118  11.966  22.001  0.00  0.00    +0.000 C 
BRANCH  12  13
ATOM     13  C   UNL     1      -1.426  11.715  22.771  0.00  0.00    +0.000 C 
BRANCH  13  14
ATOM     14  C   UNL     1      -2.507  12.813  22.670  0.00  0.00    +0.000 C 
BRANCH  14  16
ATOM     15  C   UNL     1      -4.161  12.462  24.457  0.00  0.00    +0.000 C 
ATOM     16  N   UNL     1      -3.852  12.305  23.031  0.00  0.00    +0.000 NA
ATOM     17  C   UNL     1      -4.914  12.949  22.248  0.00  0.00    +0.000 C 
ENDBRANCH  14  16
ENDBRANCH  13  14
ENDBRANCH  12  13
ENDBRANCH   1  12
BRANCH   1  18
ATOM     18  C   UNL     1      -0.597  10.540  20.027  0.00  0.00    +0.000 C 
BRANCH  18  19
ATOM     19  C   UNL     1       0.505   9.500  20.038  0.00  0.00    +0.000 A 
ATOM     20  C   UNL     1       1.465   9.293  19.037  0.00  0.00    +0.000 A 
ATOM     21  C   UNL     1       2.227   8.100  19.004  0.00  0.00    +0.000 A 
ATOM     22  C   UNL     1       3.020   7.729  17.897  0.00  0.00    +0.000 A 
ATOM     23  C   UNL     1       3.523   6.444  17.877  0.00  0.00    +0.000 A 
ATOM     24  C   UNL     1       3.396   5.605  18.958  0.00  0.00    +0.000 A 
ATOM     25  C   UNL     1       2.738   5.984  20.096  0.00  0.00    +0.000 A 
ATOM     26  C   UNL     1       2.073   7.201  20.097  0.00  0.00    +0.000 A 
ATOM     27  N   UNL     1       1.225   7.419  21.094  0.00  0.00    +0.000 NA
ATOM     28  C   UNL     1       0.443   8.506  21.004  0.00  0.00    +0.000 A 
ATOM     29  O   UNL     1       3.859   4.350  18.698  0.00  0.00    +0.000 OA
ATOM     30  C   UNL     1       3.919   4.430  17.260  0.00  0.00    +0.000 C 
ATOM     31  O   UNL     1       4.059   5.795  16.804  0.00  0.00    +0.000 OA
BRANCH  28  32
ATOM     32  O   UNL     1      -0.568   8.462  21.907  0.00  0.00    +0.000 OA
ATOM     33  H   UNL     1      -0.164   7.855  22.556  0.00  0.00    +0.000 HD
ENDBRANCH  28  32
ENDBRANCH  18  19
ENDBRANCH   1  18
TORSDOF 9
ENDMDL
MODEL 6
REMARK VINA RESULT:      -7.0      4.116      9.756
REMARK  Name = 
REMARK  11 active torsions:
REMARK  status: ('A' for Active; 'I' for Inactive)
REMARK    1  A    between atoms: C_1  and  N_2
REMARK    2  A    between atoms: N_2  and  C_3
REMARK    3  A    between atoms: N_2  and  C_4
REMARK    4  A    between atoms: C_4  and  C_5
REMARK    5  A    between atoms: C_5  and  C_6
REMARK    6  A    between atoms: C_6  and  N_7
REMARK    7  A    between atoms: N_7  and  C_8
REMARK    8  A    between atoms: C_8  and  C_9
REMARK    9  A    between atoms: C_18  and  O_19
REMARK   10  A    between atoms: C_23  and  S_24
REMARK   11  A    between atoms: N_25  and  C_26
REMARK                            x       y       z     vdW  Elec       q    Type
REMARK                         _______ _______ _______ _____ _____    ______ ____
ROOT
ATOM      1  N   UNL     1       0.266  10.538  18.560  0.00  0.00    +0.000 N 
ATOM      2  C   UNL     1      -0.129  11.494  19.494  0.00  0.00    +0.000 C 
ATOM      3  N   UNL     1      -1.290  11.445  20.087  0.00  0.00    +0.000 NA
ENDROOT
BRANCH   3   4
ATOM      4  C   UNL     1      -1.709  12.318  21.110  0.00  0.00    +0.000 A 
ATOM      5  C   UNL     1      -1.424  12.129  22.467  0.00  0.00    +0.000 A 
ATOM      6  C   UNL     1      -1.945  12.982  23.445  0.00  0.00    +0.000 A 
ATOM      7  C   UNL     1      -2.679  14.102  23.073  0.00  0.00    +0.000 A 
ATOM      8  C   UNL     1      -2.887  14.368  21.723  0.00  0.00    +0.000 A 
ATOM      9  C   UNL     1      -2.412  13.475  20.752  0.00  0.00    +0.000 A 
ENDBRANCH   3   4
BRANCH   2  10
ATOM     10  S   UNL     1       1.071  12.768  19.790  0.00  0.00    +0.000 S 
ATOM     11  H   UNL     1       2.107  11.919  19.837  0.00  0.00    +0.000 HD
ENDBRANCH   2  10
BRANCH   1  12
ATOM     12  C   UNL     1      -0.726   9.691  17.874  0.00  0.00    +0.000 C 
BRANCH  12  13
ATOM     13  C   UNL     1      -1.872  10.493  17.233  0.00  0.00    +0.000 C 
BRANCH  13  14
ATOM     14  C   UNL     1      -3.275   9.850  17.280  0.00  0.00    +0.000 C 
BRANCH  14  16
ATOM     15  C   UNL     1      -4.747  11.755  16.770  0.00  0.00    +0.000 C 
ATOM     16  N   UNL     1      -4.205  10.472  16.308  0.00  0.00    +0.000 NA
ATOM     17  C   UNL     1      -3.579  10.674  14.996  0.00  0.00    +0.000 C 
ENDBRANCH  14  16
ENDBRANCH  13  14
ENDBRANCH  12  13
ENDBRANCH   1  12
BRANCH   1  18
ATOM     18  C   UNL     1       1.656  10.072  18.457  0.00  0.00    +0.000 C 
BRANCH  18  19
ATOM     19  C   UNL     1       1.964   8.667  18.934  0.00  0.00    +0.000 A 
ATOM     20  C   UNL     1       2.306   7.571  18.128  0.00  0.00    +0.000 A 
ATOM     21  C   UNL     1       2.251   6.252  18.643  0.00  0.00    +0.000 A 
ATOM     22  C   UNL     1       2.343   5.106  17.823  0.00  0.00    +0.000 A 
ATOM     23  C   UNL     1       2.037   3.890  18.396  0.00  0.00    +0.000 A 
ATOM     24  C   UNL     1       1.807   3.766  19.746  0.00  0.00    +0.000 A 
ATOM     25  C   UNL     1       1.835   4.845  20.587  0.00  0.00    +0.000 A 
ATOM     26  C   UNL     1       1.971   6.109  20.031  0.00  0.00    +0.000 A 
ATOM     27  N   UNL     1       1.720   7.142  20.826  0.00  0.00    +0.000 NA
ATOM     28  C   UNL     1       1.667   8.353  20.252  0.00  0.00    +0.000 A 
ATOM     29  O   UNL     1       1.415   2.508  20.092  0.00  0.00    +0.000 OA
ATOM     30  C   UNL     1       1.075   2.013  18.782  0.00  0.00    +0.000 C 
ATOM     31  O   UNL     1       1.787   2.720  17.740  0.00  0.00    +0.000 OA
BRANCH  28  32
ATOM     32  O   UNL     1       1.118   9.270  21.088  0.00  0.00    +0.000 OA
ATOM     33  H   UNL     1       1.796   9.258  21.790  0.00  0.00    +0.000 HD
ENDBRANCH  28  32
ENDBRANCH  18  19
ENDBRANCH   1  18
TORSDOF 9
ENDMDL
MODEL 7
REMARK VINA RESULT:      -7.0      4.337      7.339
REMARK  Name = 
REMARK  11 active torsions:
REMARK  status: ('A' for Active; 'I' for Inactive)
REMARK    1  A    between atoms: C_1  and  N_2
REMARK    2  A    between atoms: N_2  and  C_3
REMARK    3  A    between atoms: N_2  and  C_4
REMARK    4  A    between atoms: C_4  and  C_5
REMARK    5  A    between atoms: C_5  and  C_6
REMARK    6  A    between atoms: C_6  and  N_7
REMARK    7  A    between atoms: N_7  and  C_8
REMARK    8  A    between atoms: C_8  and  C_9
REMARK    9  A    between atoms: C_18  and  O_19
REMARK   10  A    between atoms: C_23  and  S_24
REMARK   11  A    between atoms: N_25  and  C_26
REMARK                            x       y       z     vdW  Elec       q    Type
REMARK                         _______ _______ _______ _____ _____    ______ ____
ROOT
ATOM      1  N   UNL     1       0.714   9.917  19.482  0.00  0.00    +0.000 N 
ATOM      2  C   UNL     1       1.390   8.706  19.351  0.00  0.00    +0.000 C 
ATOM      3  N   UNL     1       1.903   8.318  18.216  0.00  0.00    +0.000 NA
ENDROOT
BRANCH   3   4
ATOM      4  C   UNL     1       2.683   7.158  18.039  0.00  0.00    +0.000 A 
ATOM      5  C   UNL     1       2.197   5.855  18.199  0.00  0.00    +0.000 A 
ATOM      6  C   UNL     1       3.042   4.746  18.099  0.00  0.00    +0.000 A 
ATOM      7  C   UNL     1       4.372   4.916  17.734  0.00  0.00    +0.000 A 
ATOM      8  C   UNL     1       4.853   6.194  17.467  0.00  0.00    +0.000 A 
ATOM      9  C   UNL     1       4.013   7.305  17.629  0.00  0.00    +0.000 A 
ENDBRANCH   3   4
BRANCH   2  10
ATOM     10  S   UNL     1       1.480   7.752  20.845  0.00  0.00    +0.000 S 
ATOM     11  H   UNL     1       1.358   6.574  20.218  0.00  0.00    +0.000 HD
ENDBRANCH   2  10
BRANCH   1  12
ATOM     12  C   UNL     1       0.165  10.612  18.303  0.00  0.00    +0.000 C 
BRANCH  12  13
ATOM     13  C   UNL     1      -1.175  10.028  17.822  0.00  0.00    +0.000 C 
BRANCH  13  14
ATOM     14  C   UNL     1      -2.388  10.984  17.833  0.00  0.00    +0.000 C 
BRANCH  14  16
ATOM     15  C   UNL     1      -2.701  10.005  15.598  0.00  0.00    +0.000 C 
ATOM     16  N   UNL     1      -2.987  11.137  16.486  0.00  0.00    +0.000 NA
ATOM     17  C   UNL     1      -4.442  11.329  16.547  0.00  0.00    +0.000 C 
ENDBRANCH  14  16
ENDBRANCH  13  14
ENDBRANCH  12  13
ENDBRANCH   1  12
BRANCH   1  18
ATOM     18  C   UNL     1       0.805  10.738  20.698  0.00  0.00    +0.000 C 
BRANCH  18  19
ATOM     19  C   UNL     1      -0.490  11.212  21.324  0.00  0.00    +0.000 A 
ATOM     20  C   UNL     1      -1.355  12.190  20.810  0.00  0.00    +0.000 A 
ATOM     21  C   UNL     1      -2.350  12.777  21.629  0.00  0.00    +0.000 A 
ATOM     22  C   UNL     1      -3.076  13.925  21.247  0.00  0.00    +0.000 A 
ATOM     23  C   UNL     1      -3.839  14.545  22.215  0.00  0.00    +0.000 A 
ATOM     24  C   UNL     1      -4.019  13.987  23.458  0.00  0.00    +0.000 A 
ATOM     25  C   UNL     1      -3.424  12.807  23.815  0.00  0.00    +0.000 A 
ATOM     26  C   UNL     1      -2.516  12.236  22.936  0.00  0.00    +0.000 A 
ATOM     27  N   UNL     1      -1.757  11.257  23.412  0.00  0.00    +0.000 NA
ATOM     28  C   UNL     1      -0.753  10.829  22.632  0.00  0.00    +0.000 A 
ATOM     29  O   UNL     1      -4.711  14.806  24.299  0.00  0.00    +0.000 OA
ATOM     30  C   UNL     1      -4.592  16.036  23.559  0.00  0.00    +0.000 C 
ATOM     31  O   UNL     1      -4.381  15.796  22.148  0.00  0.00    +0.000 OA
BRANCH  28  32
ATOM     32  O   UNL     1       0.118  10.057  23.328  0.00  0.00    +0.000 OA
ATOM     33  H   UNL     1      -0.524   9.477  23.781  0.00  0.00    +0.000 HD
ENDBRANCH  28  32
ENDBRANCH  18  19
ENDBRANCH   1  18
TORSDOF 9
ENDMDL
MODEL 8
REMARK VINA RESULT:      -6.9      4.225      9.910
REMARK  Name = 
REMARK  11 active torsions:
REMARK  status: ('A' for Active; 'I' for Inactive)
REMARK    1  A    between atoms: C_1  and  N_2
REMARK    2  A    between atoms: N_2  and  C_3
REMARK    3  A    between atoms: N_2  and  C_4
REMARK    4  A    between atoms: C_4  and  C_5
REMARK    5  A    between atoms: C_5  and  C_6
REMARK    6  A    between atoms: C_6  and  N_7
REMARK    7  A    between atoms: N_7  and  C_8
REMARK    8  A    between atoms: C_8  and  C_9
REMARK    9  A    between atoms: C_18  and  O_19
REMARK   10  A    between atoms: C_23  and  S_24
REMARK   11  A    between atoms: N_25  and  C_26
REMARK                            x       y       z     vdW  Elec       q    Type
REMARK                         _______ _______ _______ _____ _____    ______ ____
ROOT
ATOM      1  N   UNL     1       0.071  10.702  18.898  0.00  0.00    +0.000 N 
ATOM      2  C   UNL     1      -0.249  11.800  19.695  0.00  0.00    +0.000 C 
ATOM      3  N   UNL     1      -1.321  11.828  20.438  0.00  0.00    +0.000 NA
ENDROOT
BRANCH   3   4
ATOM      4  C   UNL     1      -1.648  12.859  21.340  0.00  0.00    +0.000 A 
ATOM      5  C   UNL     1      -2.491  13.933  21.030  0.00  0.00    +0.000 A 
ATOM      6  C   UNL     1      -2.707  14.974  21.938  0.00  0.00    +0.000 A 
ATOM      7  C   UNL     1      -2.163  14.907  23.215  0.00  0.00    +0.000 A 
ATOM      8  C   UNL     1      -1.406  13.798  23.582  0.00  0.00    +0.000 A 
ATOM      9  C   UNL     1      -1.146  12.788  22.646  0.00  0.00    +0.000 A 
ENDBRANCH   3   4
BRANCH   2  10
ATOM     10  S   UNL     1       0.915  13.137  19.601  0.00  0.00    +0.000 S 
ATOM     11  H   UNL     1      -0.006  14.085  19.825  0.00  0.00    +0.000 HD
ENDBRANCH   2  10
BRANCH   1  12
ATOM     12  C   UNL     1      -0.958   9.721  18.509  0.00  0.00    +0.000 C 
BRANCH  12  13
ATOM     13  C   UNL     1      -1.568   9.995  17.124  0.00  0.00    +0.000 C 
BRANCH  13  14
ATOM     14  C   UNL     1      -2.550  11.183  17.025  0.00  0.00    +0.000 C 
BRANCH  14  16
ATOM     15  C   UNL     1      -4.934  11.746  16.794  0.00  0.00    +0.000 C 
ATOM     16  N   UNL     1      -3.878  10.767  16.513  0.00  0.00    +0.000 NA
ATOM     17  C   UNL     1      -3.855  10.504  15.069  0.00  0.00    +0.000 C 
ENDBRANCH  14  16
ENDBRANCH  13  14
ENDBRANCH  12  13
ENDBRANCH   1  12
BRANCH   1  18
ATOM     18  C   UNL     1       1.457  10.261  18.692  0.00  0.00    +0.000 C 
BRANCH  18  19
ATOM     19  C   UNL     1       1.813   8.846  19.101  0.00  0.00    +0.000 A 
ATOM     20  C   UNL     1       2.127   7.785  18.240  0.00  0.00    +0.000 A 
ATOM     21  C   UNL     1       2.121   6.448  18.711  0.00  0.00    +0.000 A 
ATOM     22  C   UNL     1       2.184   5.333  17.848  0.00  0.00    +0.000 A 
ATOM     23  C   UNL     1       1.930   4.092  18.394  0.00  0.00    +0.000 A 
ATOM     24  C   UNL     1       1.779   3.919  19.749  0.00  0.00    +0.000 A 
ATOM     25  C   UNL     1       1.837   4.969  20.624  0.00  0.00    +0.000 A 
ATOM     26  C   UNL     1       1.922   6.253  20.106  0.00  0.00    +0.000 A 
ATOM     27  N   UNL     1       1.701   7.254  20.950  0.00  0.00    +0.000 NA
ATOM     28  C   UNL     1       1.596   8.483  20.423  0.00  0.00    +0.000 A 
ATOM     29  O   UNL     1       1.426   2.643  20.073  0.00  0.00    +0.000 OA
ATOM     30  C   UNL     1       1.021   2.187  18.767  0.00  0.00    +0.000 C 
ATOM     31  O   UNL     1       1.661   2.941  17.712  0.00  0.00    +0.000 OA
BRANCH  28  32
ATOM     32  O   UNL     1       1.081   9.361  21.319  0.00  0.00    +0.000 OA
ATOM     33  H   UNL     1       0.151   9.353  21.022  0.00  0.00    +0.000 HD
ENDBRANCH  28  32
ENDBRANCH  18  19
ENDBRANCH   1  18
TORSDOF 9
ENDMDL
MODEL 9
REMARK VINA RESULT:      -6.9      2.317      3.934
REMARK  Name = 
REMARK  11 active torsions:
REMARK  status: ('A' for Active; 'I' for Inactive)
REMARK    1  A    between atoms: C_1  and  N_2
REMARK    2  A    between atoms: N_2  and  C_3
REMARK    3  A    between atoms: N_2  and  C_4
REMARK    4  A    between atoms: C_4  and  C_5
REMARK    5  A    between atoms: C_5  and  C_6
REMARK    6  A    between atoms: C_6  and  N_7
REMARK    7  A    between atoms: N_7  and  C_8
REMARK    8  A    between atoms: C_8  and  C_9
REMARK    9  A    between atoms: C_18  and  O_19
REMARK   10  A    between atoms: C_23  and  S_24
REMARK   11  A    between atoms: N_25  and  C_26
REMARK                            x       y       z     vdW  Elec       q    Type
REMARK                         _______ _______ _______ _____ _____    ______ ____
ROOT
ATOM      1  N   UNL     1       2.429   6.701  19.403  0.00  0.00    +0.000 N 
ATOM      2  C   UNL     1       3.482   6.418  18.536  0.00  0.00    +0.000 C 
ATOM      3  N   UNL     1       4.077   5.257  18.523  0.00  0.00    +0.000 NA
ENDROOT
BRANCH   3   4
ATOM      4  C   UNL     1       5.075   4.873  17.607  0.00  0.00    +0.000 A 
ATOM      5  C   UNL     1       4.814   4.401  16.316  0.00  0.00    +0.000 A 
ATOM      6  C   UNL     1       5.844   3.949  15.484  0.00  0.00    +0.000 A 
ATOM      7  C   UNL     1       7.167   4.058  15.894  0.00  0.00    +0.000 A 
ATOM      8  C   UNL     1       7.458   4.622  17.133  0.00  0.00    +0.000 A 
ATOM      9  C   UNL     1       6.416   5.016  17.983  0.00  0.00    +0.000 A 
ENDBRANCH   3   4
BRANCH   2  10
ATOM     10  S   UNL     1       3.938   7.764  17.472  0.00  0.00    +0.000 S 
ATOM     11  H   UNL     1       5.117   7.225  17.129  0.00  0.00    +0.000 HD
ENDBRANCH   2  10
BRANCH   1  12
ATOM     12  C   UNL     1       2.212   5.900  20.621  0.00  0.00    +0.000 C 
BRANCH  12  13
ATOM     13  C   UNL     1       1.180   4.775  20.434  0.00  0.00    +0.000 C 
BRANCH  13  14
ATOM     14  C   UNL     1       1.570   3.383  20.976  0.00  0.00    +0.000 C 
BRANCH  14  16
ATOM     15  C   UNL     1       1.071   2.768  18.646  0.00  0.00    +0.000 C 
ATOM     16  N   UNL     1       1.758   2.394  19.887  0.00  0.00    +0.000 NA
ATOM     17  C   UNL     1       3.177   2.167  19.586  0.00  0.00    +0.000 C 
ENDBRANCH  14  16
ENDBRANCH  13  14
ENDBRANCH  12  13
ENDBRANCH   1  12
BRANCH   1  18
ATOM     18  C   UNL     1       1.295   7.548  19.007  0.00  0.00    +0.000 C 
BRANCH  18  19
ATOM     19  C   UNL     1       1.078   8.836  19.774  0.00  0.00    +0.000 A 
ATOM     20  C   UNL     1       0.506   8.961  21.048  0.00  0.00    +0.000 A 
ATOM     21  C   UNL     1       0.060  10.221  21.519  0.00  0.00    +0.000 A 
ATOM     22  C   UNL     1      -0.738  10.368  22.673  0.00  0.00    +0.000 A 
ATOM     23  C   UNL     1      -1.308  11.603  22.899  0.00  0.00    +0.000 A 
ATOM     24  C   UNL     1      -0.990  12.695  22.126  0.00  0.00    +0.000 A 
ATOM     25  C   UNL     1      -0.121  12.609  21.074  0.00  0.00    +0.000 A 
ATOM     26  C   UNL     1       0.345  11.354  20.706  0.00  0.00    +0.000 A 
ATOM     27  N   UNL     1       0.956  11.264  19.532  0.00  0.00    +0.000 NA
ATOM     28  C   UNL     1       1.242  10.031  19.087  0.00  0.00    +0.000 A 
ATOM     29  O   UNL     1      -1.741  13.789  22.440  0.00  0.00    +0.000 OA
ATOM     30  C   UNL     1      -2.776  13.136  23.200  0.00  0.00    +0.000 C 
ATOM     31  O   UNL     1      -2.319  11.888  23.770  0.00  0.00    +0.000 OA
BRANCH  28  32
ATOM     32  O   UNL     1       1.583  10.047  17.774  0.00  0.00    +0.000 OA
ATOM     33  H   UNL     1       1.857   9.115  17.678  0.00  0.00    +0.000 HD
ENDBRANCH  28  32
ENDBRANCH  18  19
ENDBRANCH   1  18
TORSDOF 9
ENDMDL
