MODEL 1
REMARK VINA RESULT:      -5.6      0.000      0.000
REMARK  Name = 
REMARK  27 active torsions:
REMARK  status: ('A' for Active; 'I' for Inactive)
REMARK    1  A    between atoms: C_1  and  N_2
REMARK    2  A    between atoms: N_2  and  C_3
REMARK    3  A    between atoms: N_2  and  C_4
REMARK    4  A    between atoms: N_2  and  C_5
REMARK    5  A    between atoms: C_5  and  C_6
REMARK    6  A    between atoms: C_6  and  C_7
REMARK    7  A    between atoms: C_6  and  O_11
REMARK    8  A    between atoms: C_7  and  C_8
REMARK    9  A    between atoms: C_8  and  O_10
REMARK   10  A    between atoms: O_11  and  C_12
REMARK   11  A    between atoms: C_12  and  C_14
REMARK   12  A    between atoms: C_14  and  C_15
REMARK   13  A    between atoms: C_15  and  C_16
REMARK   14  A    between atoms: C_16  and  C_17
REMARK   15  A    between atoms: C_17  and  C_18
REMARK   16  A    between atoms: C_18  and  C_19
REMARK   17  A    between atoms: C_19  and  C_20
REMARK   18  A    between atoms: C_20  and  C_21
REMARK   19  A    between atoms: C_21  and  C_22
REMARK   20  A    between atoms: C_22  and  C_23
REMARK   21  A    between atoms: C_23  and  C_24
REMARK   22  A    between atoms: C_24  and  C_25
REMARK   23  A    between atoms: C_25  and  C_26
REMARK   24  A    between atoms: C_26  and  C_27
REMARK   25  A    between atoms: C_27  and  C_28
REMARK   26  A    between atoms: C_28  and  O_29
REMARK   27  A    between atoms: O_29  and  N_30
REMARK                            x       y       z     vdW  Elec       q    Type
REMARK                         _______ _______ _______ _____ _____    ______ ____
ROOT
ATOM      1  C   UNL     1       2.533   8.432  17.713  0.00  0.00    +0.000 C 
ENDROOT
BRANCH   1   2
ATOM      2  C   UNL     1       2.383   6.932  17.936  0.00  0.00    +0.000 C 
BRANCH   2   3
ATOM      3  C   UNL     1       3.067   6.503  19.228  0.00  0.00    +0.000 C 
BRANCH   3   4
ATOM      4  C   UNL     1       2.070   6.412  20.363  0.00  0.00    +0.000 C 
BRANCH   4   5
ATOM      5  C   UNL     1       2.018   4.980  20.874  0.00  0.00    +0.000 C 
BRANCH   5   6
ATOM      6  C   UNL     1       0.822   4.266  20.275  0.00  0.00    +0.000 C 
BRANCH   6   7
ATOM      7  C   UNL     1       1.133   2.794  20.066  0.00  0.00    +0.000 C 
BRANCH   7   8
ATOM      8  C   UNL     1       2.588   2.518  20.412  0.00  0.00    +0.000 C 
BRANCH   8   9
ATOM      9  C   UNL     1       3.389   2.226  19.153  0.00  0.00    +0.000 C 
BRANCH   9  10
ATOM     10  C   UNL     1       2.524   2.417  17.913  0.00  0.00    +0.000 C 
BRANCH  10  11
ATOM     11  C   UNL     1       3.132   3.471  16.996  0.00  0.00    +0.000 C 
BRANCH  11  12
ATOM     12  C   UNL     1       4.611   3.669  17.297  0.00  0.00    +0.000 C 
BRANCH  12  13
ATOM     13  C   UNL     1       5.170   4.856  16.523  0.00  0.00    +0.000 C 
BRANCH  13  14
ATOM     14  O   UNL     1       6.120   5.525  17.355  0.00  0.00    +0.000 OA
BRANCH  14  15
ATOM     15  N   UNL     1       7.333   4.810  17.517  0.00  0.00    +0.000 N 
ATOM     16  O   UNL     1       7.931   4.450  16.495  0.00  0.00    +0.000 OA
ATOM     17  O   UNL     1       7.629   4.628  18.696  0.00  0.00    +0.000 OA
ENDBRANCH  14  15
ENDBRANCH  13  14
ENDBRANCH  12  13
ENDBRANCH  11  12
ENDBRANCH  10  11
ENDBRANCH   9  10
ENDBRANCH   8   9
ENDBRANCH   7   8
ENDBRANCH   6   7
ENDBRANCH   5   6
ENDBRANCH   4   5
ENDBRANCH   3   4
ENDBRANCH   2   3
ENDBRANCH   1   2
BRANCH   1  18
ATOM     18  C   UNL     1       1.192   9.129  17.882  0.00  0.00    +0.000 C 
BRANCH  18  19
ATOM     19  C   UNL     1       1.272  10.212  18.916  0.00  0.00    +0.000 C 
BRANCH  19  20
ATOM     20  C   UNL     1      -0.013  10.234  19.688  0.00  0.00    +0.000 C 
ATOM     21  O   UNL     1      -0.344   9.459  20.555  0.00  0.00    +0.000 OA
BRANCH  20  22
ATOM     22  O   UNL     1      -0.818  11.179  19.104  0.00  0.00    +0.000 OA
BRANCH  22  23
ATOM     23  C   UNL     1      -0.673  12.499  19.636  0.00  0.00    +0.000 C 
BRANCH  23  24
ATOM     24  C   UNL     1      -0.414  13.450  18.458  0.00  0.00    +0.000 C 
BRANCH  24  25
ATOM     25  C   UNL     1       0.129  14.762  18.894  0.00  0.00    +0.000 C 
ATOM     26  O   UNL     1       1.180  14.946  19.473  0.00  0.00    +0.000 OA
BRANCH  25  27
ATOM     27  O   UNL     1      -0.668  15.771  18.479  0.00  0.00    +0.000 OA
ATOM     28  H   UNL     1      -1.168  16.085  19.257  0.00  0.00    +0.000 HD
ENDBRANCH  25  27
ENDBRANCH  24  25
ENDBRANCH  23  24
BRANCH  23  29
ATOM     29  C   UNL     1      -1.994  12.850  20.383  0.00  0.00    +0.000 C 
BRANCH  29  31
ATOM     30  C   UNL     1      -2.594  12.153  22.838  0.00  0.00    +0.000 C 
ATOM     31  N   UNL     1      -1.924  13.179  21.923  0.00  0.00    +0.000 N 
ATOM     32  C   UNL     1      -2.449  14.584  22.229  0.00  0.00    +0.000 C 
ATOM     33  C   UNL     1      -0.432  13.180  22.301  0.00  0.00    +0.000 C 
ENDBRANCH  29  31
ENDBRANCH  23  29
ENDBRANCH  22  23
ENDBRANCH  20  22
ENDBRANCH  19  20
ENDBRANCH  18  19
ENDBRANCH   1  18
TORSDOF 24
ENDMDL
MODEL 2
REMARK VINA RESULT:      -5.5      6.307     11.070
REMARK  Name = 
REMARK  27 active torsions:
REMARK  status: ('A' for Active; 'I' for Inactive)
REMARK    1  A    between atoms: C_1  and  N_2
REMARK    2  A    between atoms: N_2  and  C_3
REMARK    3  A    between atoms: N_2  and  C_4
REMARK    4  A    between atoms: N_2  and  C_5
REMARK    5  A    between atoms: C_5  and  C_6
REMARK    6  A    between atoms: C_6  and  C_7
REMARK    7  A    between atoms: C_6  and  O_11
REMARK    8  A    between atoms: C_7  and  C_8
REMARK    9  A    between atoms: C_8  and  O_10
REMARK   10  A    between atoms: O_11  and  C_12
REMARK   11  A    between atoms: C_12  and  C_14
REMARK   12  A    between atoms: C_14  and  C_15
REMARK   13  A    between atoms: C_15  and  C_16
REMARK   14  A    between atoms: C_16  and  C_17
REMARK   15  A    between atoms: C_17  and  C_18
REMARK   16  A    between atoms: C_18  and  C_19
REMARK   17  A    between atoms: C_19  and  C_20
REMARK   18  A    between atoms: C_20  and  C_21
REMARK   19  A    between atoms: C_21  and  C_22
REMARK   20  A    between atoms: C_22  and  C_23
REMARK   21  A    between atoms: C_23  and  C_24
REMARK   22  A    between atoms: C_24  and  C_25
REMARK   23  A    between atoms: C_25  and  C_26
REMARK   24  A    between atoms: C_26  and  C_27
REMARK   25  A    between atoms: C_27  and  C_28
REMARK   26  A    between atoms: C_28  and  O_29
REMARK   27  A    between atoms: O_29  and  N_30
REMARK                            x       y       z     vdW  Elec       q    Type
REMARK                         _______ _______ _______ _____ _____    ______ ____
ROOT
ATOM      1  C   UNL     1       7.849   9.043  17.985  0.00  0.00    +0.000 C 
ENDROOT
BRANCH   1   2
ATOM      2  C   UNL     1       9.017  10.016  18.084  0.00  0.00    +0.000 C 
BRANCH   2   3
ATOM      3  C   UNL     1       9.244  10.451  19.526  0.00  0.00    +0.000 C 
BRANCH   3   4
ATOM      4  C   UNL     1      10.535  11.228  19.659  0.00  0.00    +0.000 C 
BRANCH   4   5
ATOM      5  C   UNL     1      10.477  12.458  18.766  0.00  0.00    +0.000 C 
BRANCH   5   6
ATOM      6  C   UNL     1      11.580  13.423  19.152  0.00  0.00    +0.000 C 
BRANCH   6   7
ATOM      7  C   UNL     1      11.196  14.193  20.404  0.00  0.00    +0.000 C 
BRANCH   7   8
ATOM      8  C   UNL     1       9.927  14.992  20.152  0.00  0.00    +0.000 C 
BRANCH   8   9
ATOM      9  C   UNL     1       9.018  14.948  21.371  0.00  0.00    +0.000 C 
BRANCH   9  10
ATOM     10  C   UNL     1       8.258  13.628  21.422  0.00  0.00    +0.000 C 
BRANCH  10  11
ATOM     11  C   UNL     1       8.668  12.824  22.649  0.00  0.00    +0.000 C 
BRANCH  11  12
ATOM     12  C   UNL     1       7.637  11.750  22.968  0.00  0.00    +0.000 C 
BRANCH  12  13
ATOM     13  C   UNL     1       7.272  11.768  24.448  0.00  0.00    +0.000 C 
BRANCH  13  14
ATOM     14  O   UNL     1       6.947  13.111  24.812  0.00  0.00    +0.000 OA
BRANCH  14  15
ATOM     15  N   UNL     1       5.554  13.339  24.947  0.00  0.00    +0.000 N 
ATOM     16  O   UNL     1       5.006  14.072  24.114  0.00  0.00    +0.000 OA
ATOM     17  O   UNL     1       5.066  12.764  25.919  0.00  0.00    +0.000 OA
ENDBRANCH  14  15
ENDBRANCH  13  14
ENDBRANCH  12  13
ENDBRANCH  11  12
ENDBRANCH  10  11
ENDBRANCH   9  10
ENDBRANCH   8   9
ENDBRANCH   7   8
ENDBRANCH   6   7
ENDBRANCH   5   6
ENDBRANCH   4   5
ENDBRANCH   3   4
ENDBRANCH   2   3
ENDBRANCH   1   2
BRANCH   1  18
ATOM     18  C   UNL     1       8.272   7.658  18.447  0.00  0.00    +0.000 C 
BRANCH  18  19
ATOM     19  C   UNL     1       7.316   6.610  17.960  0.00  0.00    +0.000 C 
BRANCH  19  20
ATOM     20  C   UNL     1       7.272   5.497  18.964  0.00  0.00    +0.000 C 
ATOM     21  O   UNL     1       7.705   5.530  20.092  0.00  0.00    +0.000 OA
BRANCH  20  22
ATOM     22  O   UNL     1       6.818   4.380  18.309  0.00  0.00    +0.000 OA
BRANCH  22  23
ATOM     23  C   UNL     1       5.820   4.633  17.316  0.00  0.00    +0.000 C 
BRANCH  23  24
ATOM     24  C   UNL     1       6.343   4.087  15.979  0.00  0.00    +0.000 C 
BRANCH  24  25
ATOM     25  C   UNL     1       6.434   5.136  14.932  0.00  0.00    +0.000 C 
ATOM     26  O   UNL     1       5.553   5.905  14.610  0.00  0.00    +0.000 OA
BRANCH  25  27
ATOM     27  O   UNL     1       7.684   5.194  14.422  0.00  0.00    +0.000 OA
ATOM     28  H   UNL     1       8.301   4.937  15.136  0.00  0.00    +0.000 HD
ENDBRANCH  25  27
ENDBRANCH  24  25
ENDBRANCH  23  24
BRANCH  23  29
ATOM     29  C   UNL     1       4.518   3.907  17.767  0.00  0.00    +0.000 C 
BRANCH  29  31
ATOM     30  C   UNL     1       1.926   4.273  17.925  0.00  0.00    +0.000 C 
ATOM     31  N   UNL     1       3.318   4.778  18.305  0.00  0.00    +0.000 N 
ATOM     32  C   UNL     1       3.470   6.252  17.923  0.00  0.00    +0.000 C 
ATOM     33  C   UNL     1       3.391   4.716  19.842  0.00  0.00    +0.000 C 
ENDBRANCH  29  31
ENDBRANCH  23  29
ENDBRANCH  22  23
ENDBRANCH  20  22
ENDBRANCH  19  20
ENDBRANCH  18  19
ENDBRANCH   1  18
TORSDOF 24
ENDMDL
MODEL 3
REMARK VINA RESULT:      -5.5      1.849      2.993
REMARK  Name = 
REMARK  27 active torsions:
REMARK  status: ('A' for Active; 'I' for Inactive)
REMARK    1  A    between atoms: C_1  and  N_2
REMARK    2  A    between atoms: N_2  and  C_3
REMARK    3  A    between atoms: N_2  and  C_4
REMARK    4  A    between atoms: N_2  and  C_5
REMARK    5  A    between atoms: C_5  and  C_6
REMARK    6  A    between atoms: C_6  and  C_7
REMARK    7  A    between atoms: C_6  and  O_11
REMARK    8  A    between atoms: C_7  and  C_8
REMARK    9  A    between atoms: C_8  and  O_10
REMARK   10  A    between atoms: O_11  and  C_12
REMARK   11  A    between atoms: C_12  and  C_14
REMARK   12  A    between atoms: C_14  and  C_15
REMARK   13  A    between atoms: C_15  and  C_16
REMARK   14  A    between atoms: C_16  and  C_17
REMARK   15  A    between atoms: C_17  and  C_18
REMARK   16  A    between atoms: C_18  and  C_19
REMARK   17  A    between atoms: C_19  and  C_20
REMARK   18  A    between atoms: C_20  and  C_21
REMARK   19  A    between atoms: C_21  and  C_22
REMARK   20  A    between atoms: C_22  and  C_23
REMARK   21  A    between atoms: C_23  and  C_24
REMARK   22  A    between atoms: C_24  and  C_25
REMARK   23  A    between atoms: C_25  and  C_26
REMARK   24  A    between atoms: C_26  and  C_27
REMARK   25  A    between atoms: C_27  and  C_28
REMARK   26  A    between atoms: C_28  and  O_29
REMARK   27  A    between atoms: O_29  and  N_30
REMARK                            x       y       z     vdW  Elec       q    Type
REMARK                         _______ _______ _______ _____ _____    ______ ____
ROOT
ATOM      1  C   UNL     1       1.871   8.594  19.058  0.00  0.00    +0.000 C 
ENDROOT
BRANCH   1   2
ATOM      2  C   UNL     1       2.438   7.490  18.174  0.00  0.00    +0.000 C 
BRANCH   2   3
ATOM      3  C   UNL     1       2.359   6.138  18.873  0.00  0.00    +0.000 C 
BRANCH   3   4
ATOM      4  C   UNL     1       1.902   6.298  20.307  0.00  0.00    +0.000 C 
BRANCH   4   5
ATOM      5  C   UNL     1       1.789   4.926  20.955  0.00  0.00    +0.000 C 
BRANCH   5   6
ATOM      6  C   UNL     1       1.039   3.985  20.032  0.00  0.00    +0.000 C 
BRANCH   6   7
ATOM      7  C   UNL     1       1.735   2.637  19.971  0.00  0.00    +0.000 C 
BRANCH   7   8
ATOM      8  C   UNL     1       2.952   2.640  20.883  0.00  0.00    +0.000 C 
BRANCH   8   9
ATOM      9  C   UNL     1       4.230   2.508  20.069  0.00  0.00    +0.000 C 
BRANCH   9  10
ATOM     10  C   UNL     1       3.939   2.695  18.585  0.00  0.00    +0.000 C 
BRANCH  10  11
ATOM     11  C   UNL     1       4.861   3.752  17.990  0.00  0.00    +0.000 C 
BRANCH  11  12
ATOM     12  C   UNL     1       4.397   4.160  16.598  0.00  0.00    +0.000 C 
BRANCH  12  13
ATOM     13  C   UNL     1       5.015   5.491  16.187  0.00  0.00    +0.000 C 
BRANCH  13  14
ATOM     14  O   UNL     1       5.917   5.902  17.216  0.00  0.00    +0.000 OA
BRANCH  14  15
ATOM     15  N   UNL     1       7.124   6.456  16.721  0.00  0.00    +0.000 N 
ATOM     16  O   UNL     1       7.523   7.514  17.226  0.00  0.00    +0.000 OA
ATOM     17  O   UNL     1       7.623   5.791  15.815  0.00  0.00    +0.000 OA
ENDBRANCH  14  15
ENDBRANCH  13  14
ENDBRANCH  12  13
ENDBRANCH  11  12
ENDBRANCH  10  11
ENDBRANCH   9  10
ENDBRANCH   8   9
ENDBRANCH   7   8
ENDBRANCH   6   7
ENDBRANCH   5   6
ENDBRANCH   4   5
ENDBRANCH   3   4
ENDBRANCH   2   3
ENDBRANCH   1   2
BRANCH   1  18
ATOM     18  C   UNL     1       1.425   9.774  18.210  0.00  0.00    +0.000 C 
BRANCH  18  19
ATOM     19  C   UNL     1      -0.046   9.710  17.926  0.00  0.00    +0.000 C 
BRANCH  19  20
ATOM     20  C   UNL     1      -0.759  10.625  18.875  0.00  0.00    +0.000 C 
ATOM     21  O   UNL     1      -1.851  11.120  18.713  0.00  0.00    +0.000 OA
BRANCH  20  22
ATOM     22  O   UNL     1       0.127  10.944  19.872  0.00  0.00    +0.000 OA
BRANCH  22  23
ATOM     23  C   UNL     1      -0.392  11.819  20.877  0.00  0.00    +0.000 C 
BRANCH  23  24
ATOM     24  C   UNL     1      -0.671  10.977  22.130  0.00  0.00    +0.000 C 
BRANCH  24  25
ATOM     25  C   UNL     1       0.189   9.769  22.208  0.00  0.00    +0.000 C 
ATOM     26  O   UNL     1       1.311   9.716  22.666  0.00  0.00    +0.000 OA
BRANCH  25  27
ATOM     27  O   UNL     1      -0.481   8.678  21.775  0.00  0.00    +0.000 OA
ATOM     28  H   UNL     1       0.181   8.052  21.421  0.00  0.00    +0.000 HD
ENDBRANCH  25  27
ENDBRANCH  24  25
ENDBRANCH  23  24
BRANCH  23  29
ATOM     29  C   UNL     1       0.682  12.914  21.144  0.00  0.00    +0.000 C 
BRANCH  29  31
ATOM     30  C   UNL     1       1.329  15.418  20.708  0.00  0.00    +0.000 C 
ATOM     31  N   UNL     1       0.818  14.103  20.117  0.00  0.00    +0.000 N 
ATOM     32  C   UNL     1      -0.483  14.339  19.346  0.00  0.00    +0.000 C 
ATOM     33  C   UNL     1       1.867  13.665  19.079  0.00  0.00    +0.000 C 
ENDBRANCH  29  31
ENDBRANCH  23  29
ENDBRANCH  22  23
ENDBRANCH  20  22
ENDBRANCH  19  20
ENDBRANCH  18  19
ENDBRANCH   1  18
TORSDOF 24
ENDMDL
MODEL 4
REMARK VINA RESULT:      -5.4      1.900      3.561
REMARK  Name = 
REMARK  27 active torsions:
REMARK  status: ('A' for Active; 'I' for Inactive)
REMARK    1  A    between atoms: C_1  and  N_2
REMARK    2  A    between atoms: N_2  and  C_3
REMARK    3  A    between atoms: N_2  and  C_4
REMARK    4  A    between atoms: N_2  and  C_5
REMARK    5  A    between atoms: C_5  and  C_6
REMARK    6  A    between atoms: C_6  and  C_7
REMARK    7  A    between atoms: C_6  and  O_11
REMARK    8  A    between atoms: C_7  and  C_8
REMARK    9  A    between atoms: C_8  and  O_10
REMARK   10  A    between atoms: O_11  and  C_12
REMARK   11  A    between atoms: C_12  and  C_14
REMARK   12  A    between atoms: C_14  and  C_15
REMARK   13  A    between atoms: C_15  and  C_16
REMARK   14  A    between atoms: C_16  and  C_17
REMARK   15  A    between atoms: C_17  and  C_18
REMARK   16  A    between atoms: C_18  and  C_19
REMARK   17  A    between atoms: C_19  and  C_20
REMARK   18  A    between atoms: C_20  and  C_21
REMARK   19  A    between atoms: C_21  and  C_22
REMARK   20  A    between atoms: C_22  and  C_23
REMARK   21  A    between atoms: C_23  and  C_24
REMARK   22  A    between atoms: C_24  and  C_25
REMARK   23  A    between atoms: C_25  and  C_26
REMARK   24  A    between atoms: C_26  and  C_27
REMARK   25  A    between atoms: C_27  and  C_28
REMARK   26  A    between atoms: C_28  and  O_29
REMARK   27  A    between atoms: O_29  and  N_30
REMARK                            x       y       z     vdW  Elec       q    Type
REMARK                         _______ _______ _______ _____ _____    ______ ____
ROOT
ATOM      1  C   UNL     1       2.211   6.045  18.626  0.00  0.00    +0.000 C 
ENDROOT
BRANCH   1   2
ATOM      2  C   UNL     1       1.652   5.935  20.039  0.00  0.00    +0.000 C 
BRANCH   2   3
ATOM      3  C   UNL     1       2.281   4.763  20.784  0.00  0.00    +0.000 C 
BRANCH   3   4
ATOM      4  C   UNL     1       1.248   3.699  21.083  0.00  0.00    +0.000 C 
BRANCH   4   5
ATOM      5  C   UNL     1       0.987   2.882  19.827  0.00  0.00    +0.000 C 
BRANCH   5   6
ATOM      6  C   UNL     1       2.235   2.107  19.452  0.00  0.00    +0.000 C 
BRANCH   6   7
ATOM      7  C   UNL     1       2.390   2.050  17.942  0.00  0.00    +0.000 C 
BRANCH   7   8
ATOM      8  C   UNL     1       3.511   2.977  17.500  0.00  0.00    +0.000 C 
BRANCH   8   9
ATOM      9  C   UNL     1       4.458   3.258  18.656  0.00  0.00    +0.000 C 
BRANCH   9  10
ATOM     10  C   UNL     1       5.663   4.059  18.177  0.00  0.00    +0.000 C 
BRANCH  10  11
ATOM     11  C   UNL     1       6.007   5.155  19.178  0.00  0.00    +0.000 C 
BRANCH  11  12
ATOM     12  C   UNL     1       7.254   5.915  18.748  0.00  0.00    +0.000 C 
BRANCH  12  13
ATOM     13  C   UNL     1       6.931   6.903  17.633  0.00  0.00    +0.000 C 
BRANCH  13  14
ATOM     14  O   UNL     1       7.671   6.523  16.472  0.00  0.00    +0.000 OA
BRANCH  14  15
ATOM     15  N   UNL     1       6.940   5.698  15.580  0.00  0.00    +0.000 N 
ATOM     16  O   UNL     1       7.419   4.594  15.291  0.00  0.00    +0.000 OA
ATOM     17  O   UNL     1       5.895   6.218  15.192  0.00  0.00    +0.000 OA
ENDBRANCH  14  15
ENDBRANCH  13  14
ENDBRANCH  12  13
ENDBRANCH  11  12
ENDBRANCH  10  11
ENDBRANCH   9  10
ENDBRANCH   8   9
ENDBRANCH   7   8
ENDBRANCH   6   7
ENDBRANCH   5   6
ENDBRANCH   4   5
ENDBRANCH   3   4
ENDBRANCH   2   3
ENDBRANCH   1   2
BRANCH   1  18
ATOM     18  C   UNL     1       2.395   7.503  18.241  0.00  0.00    +0.000 C 
BRANCH  18  19
ATOM     19  C   UNL     1       1.928   8.415  19.336  0.00  0.00    +0.000 C 
BRANCH  19  20
ATOM     20  C   UNL     1       1.095   9.505  18.731  0.00  0.00    +0.000 C 
ATOM     21  O   UNL     1       0.615   9.510  17.621  0.00  0.00    +0.000 OA
BRANCH  20  22
ATOM     22  O   UNL     1       1.131  10.569  19.596  0.00  0.00    +0.000 OA
BRANCH  22  23
ATOM     23  C   UNL     1       0.226  10.473  20.701  0.00  0.00    +0.000 C 
BRANCH  23  24
ATOM     24  C   UNL     1       0.968   9.780  21.852  0.00  0.00    +0.000 C 
BRANCH  24  25
ATOM     25  C   UNL     1       0.055   9.347  22.940  0.00  0.00    +0.000 C 
ATOM     26  O   UNL     1       0.147   9.643  24.113  0.00  0.00    +0.000 OA
BRANCH  25  27
ATOM     27  O   UNL     1      -0.977   8.632  22.441  0.00  0.00    +0.000 OA
ATOM     28  H   UNL     1      -0.744   7.687  22.525  0.00  0.00    +0.000 HD
ENDBRANCH  25  27
ENDBRANCH  24  25
ENDBRANCH  23  24
BRANCH  23  29
ATOM     29  C   UNL     1      -0.205  11.921  21.079  0.00  0.00    +0.000 C 
BRANCH  29  31
ATOM     30  C   UNL     1      -0.508  13.470  18.985  0.00  0.00    +0.000 C 
ATOM     31  N   UNL     1      -1.185  12.692  20.114  0.00  0.00    +0.000 N 
ATOM     32  C   UNL     1      -2.143  13.602  20.886  0.00  0.00    +0.000 C 
ATOM     33  C   UNL     1      -2.057  11.621  19.432  0.00  0.00    +0.000 C 
ENDBRANCH  29  31
ENDBRANCH  23  29
ENDBRANCH  22  23
ENDBRANCH  20  22
ENDBRANCH  19  20
ENDBRANCH  18  19
ENDBRANCH   1  18
TORSDOF 24
ENDMDL
MODEL 5
REMARK VINA RESULT:      -5.4      2.464      3.702
REMARK  Name = 
REMARK  27 active torsions:
REMARK  status: ('A' for Active; 'I' for Inactive)
REMARK    1  A    between atoms: C_1  and  N_2
REMARK    2  A    between atoms: N_2  and  C_3
REMARK    3  A    between atoms: N_2  and  C_4
REMARK    4  A    between atoms: N_2  and  C_5
REMARK    5  A    between atoms: C_5  and  C_6
REMARK    6  A    between atoms: C_6  and  C_7
REMARK    7  A    between atoms: C_6  and  O_11
REMARK    8  A    between atoms: C_7  and  C_8
REMARK    9  A    between atoms: C_8  and  O_10
REMARK   10  A    between atoms: O_11  and  C_12
REMARK   11  A    between atoms: C_12  and  C_14
REMARK   12  A    between atoms: C_14  and  C_15
REMARK   13  A    between atoms: C_15  and  C_16
REMARK   14  A    between atoms: C_16  and  C_17
REMARK   15  A    between atoms: C_17  and  C_18
REMARK   16  A    between atoms: C_18  and  C_19
REMARK   17  A    between atoms: C_19  and  C_20
REMARK   18  A    between atoms: C_20  and  C_21
REMARK   19  A    between atoms: C_21  and  C_22
REMARK   20  A    between atoms: C_22  and  C_23
REMARK   21  A    between atoms: C_23  and  C_24
REMARK   22  A    between atoms: C_24  and  C_25
REMARK   23  A    between atoms: C_25  and  C_26
REMARK   24  A    between atoms: C_26  and  C_27
REMARK   25  A    between atoms: C_27  and  C_28
REMARK   26  A    between atoms: C_28  and  O_29
REMARK   27  A    between atoms: O_29  and  N_30
REMARK                            x       y       z     vdW  Elec       q    Type
REMARK                         _______ _______ _______ _____ _____    ______ ____
ROOT
ATOM      1  C   UNL     1       1.254   5.972  20.637  0.00  0.00    +0.000 C 
ENDROOT
BRANCH   1   2
ATOM      2  C   UNL     1       2.217   4.922  21.177  0.00  0.00    +0.000 C 
BRANCH   2   3
ATOM      3  C   UNL     1       1.549   3.555  21.246  0.00  0.00    +0.000 C 
BRANCH   3   4
ATOM      4  C   UNL     1       2.391   2.507  20.551  0.00  0.00    +0.000 C 
BRANCH   4   5
ATOM      5  C   UNL     1       1.585   1.881  19.423  0.00  0.00    +0.000 C 
BRANCH   5   6
ATOM      6  C   UNL     1       0.778   2.952  18.716  0.00  0.00    +0.000 C 
BRANCH   6   7
ATOM      7  C   UNL     1       1.656   3.722  17.744  0.00  0.00    +0.000 C 
BRANCH   7   8
ATOM      8  C   UNL     1       2.687   2.789  17.127  0.00  0.00    +0.000 C 
BRANCH   8   9
ATOM      9  C   UNL     1       4.093   3.319  17.362  0.00  0.00    +0.000 C 
BRANCH   9  10
ATOM     10  C   UNL     1       4.044   4.670  18.066  0.00  0.00    +0.000 C 
BRANCH  10  11
ATOM     11  C   UNL     1       5.235   5.528  17.658  0.00  0.00    +0.000 C 
BRANCH  11  12
ATOM     12  C   UNL     1       6.113   4.800  16.650  0.00  0.00    +0.000 C 
BRANCH  12  13
ATOM     13  C   UNL     1       6.218   5.588  15.350  0.00  0.00    +0.000 C 
BRANCH  13  14
ATOM     14  O   UNL     1       7.580   5.560  14.919  0.00  0.00    +0.000 OA
BRANCH  14  15
ATOM     15  N   UNL     1       7.732   5.236  13.547  0.00  0.00    +0.000 N 
ATOM     16  O   UNL     1       6.974   4.383  13.068  0.00  0.00    +0.000 OA
ATOM     17  O   UNL     1       8.640   5.862  13.004  0.00  0.00    +0.000 OA
ENDBRANCH  14  15
ENDBRANCH  13  14
ENDBRANCH  12  13
ENDBRANCH  11  12
ENDBRANCH  10  11
ENDBRANCH   9  10
ENDBRANCH   8   9
ENDBRANCH   7   8
ENDBRANCH   6   7
ENDBRANCH   5   6
ENDBRANCH   4   5
ENDBRANCH   3   4
ENDBRANCH   2   3
ENDBRANCH   1   2
BRANCH   1  18
ATOM     18  C   UNL     1       1.996   7.262  20.327  0.00  0.00    +0.000 C 
BRANCH  18  19
ATOM     19  C   UNL     1       1.207   8.459  20.767  0.00  0.00    +0.000 C 
BRANCH  19  20
ATOM     20  C   UNL     1       1.082   9.404  19.610  0.00  0.00    +0.000 C 
ATOM     21  O   UNL     1       1.473   9.214  18.481  0.00  0.00    +0.000 OA
BRANCH  20  22
ATOM     22  O   UNL     1       0.612  10.593  20.107  0.00  0.00    +0.000 OA
BRANCH  22  23
ATOM     23  C   UNL     1       0.034  11.463  19.130  0.00  0.00    +0.000 C 
BRANCH  23  24
ATOM     24  C   UNL     1      -1.471  11.162  19.069  0.00  0.00    +0.000 C 
BRANCH  24  25
ATOM     25  C   UNL     1      -1.950  10.932  17.682  0.00  0.00    +0.000 C 
ATOM     26  O   UNL     1      -1.676   9.983  16.978  0.00  0.00    +0.000 OA
BRANCH  25  27
ATOM     27  O   UNL     1      -2.827  11.892  17.315  0.00  0.00    +0.000 OA
ATOM     28  H   UNL     1      -2.362  12.749  17.376  0.00  0.00    +0.000 HD
ENDBRANCH  25  27
ENDBRANCH  24  25
ENDBRANCH  23  24
BRANCH  23  29
ATOM     29  C   UNL     1       0.312  12.926  19.584  0.00  0.00    +0.000 C 
BRANCH  29  31
ATOM     30  C   UNL     1       1.670  15.045  18.849  0.00  0.00    +0.000 C 
ATOM     31  N   UNL     1       1.711  13.568  19.242  0.00  0.00    +0.000 N 
ATOM     32  C   UNL     1       2.464  12.759  18.183  0.00  0.00    +0.000 C 
ATOM     33  C   UNL     1       2.553  13.491  20.528  0.00  0.00    +0.000 C 
ENDBRANCH  29  31
ENDBRANCH  23  29
ENDBRANCH  22  23
ENDBRANCH  20  22
ENDBRANCH  19  20
ENDBRANCH  18  19
ENDBRANCH   1  18
TORSDOF 24
ENDMDL
MODEL 6
REMARK VINA RESULT:      -5.3      6.804      8.356
REMARK  Name = 
REMARK  27 active torsions:
REMARK  status: ('A' for Active; 'I' for Inactive)
REMARK    1  A    between atoms: C_1  and  N_2
REMARK    2  A    between atoms: N_2  and  C_3
REMARK    3  A    between atoms: N_2  and  C_4
REMARK    4  A    between atoms: N_2  and  C_5
REMARK    5  A    between atoms: C_5  and  C_6
REMARK    6  A    between atoms: C_6  and  C_7
REMARK    7  A    between atoms: C_6  and  O_11
REMARK    8  A    between atoms: C_7  and  C_8
REMARK    9  A    between atoms: C_8  and  O_10
REMARK   10  A    between atoms: O_11  and  C_12
REMARK   11  A    between atoms: C_12  and  C_14
REMARK   12  A    between atoms: C_14  and  C_15
REMARK   13  A    between atoms: C_15  and  C_16
REMARK   14  A    between atoms: C_16  and  C_17
REMARK   15  A    between atoms: C_17  and  C_18
REMARK   16  A    between atoms: C_18  and  C_19
REMARK   17  A    between atoms: C_19  and  C_20
REMARK   18  A    between atoms: C_20  and  C_21
REMARK   19  A    between atoms: C_21  and  C_22
REMARK   20  A    between atoms: C_22  and  C_23
REMARK   21  A    between atoms: C_23  and  C_24
REMARK   22  A    between atoms: C_24  and  C_25
REMARK   23  A    between atoms: C_25  and  C_26
REMARK   24  A    between atoms: C_26  and  C_27
REMARK   25  A    between atoms: C_27  and  C_28
REMARK   26  A    between atoms: C_28  and  O_29
REMARK   27  A    between atoms: O_29  and  N_30
REMARK                            x       y       z     vdW  Elec       q    Type
REMARK                         _______ _______ _______ _____ _____    ______ ____
ROOT
ATOM      1  C   UNL     1       8.641   8.677  18.545  0.00  0.00    +0.000 C 
ENDROOT
BRANCH   1   2
ATOM      2  C   UNL     1       7.773   7.578  17.947  0.00  0.00    +0.000 C 
BRANCH   2   3
ATOM      3  C   UNL     1       7.828   6.316  18.799  0.00  0.00    +0.000 C 
BRANCH   3   4
ATOM      4  C   UNL     1       7.598   5.083  17.952  0.00  0.00    +0.000 C 
BRANCH   4   5
ATOM      5  C   UNL     1       7.202   5.505  16.546  0.00  0.00    +0.000 C 
BRANCH   5   6
ATOM      6  C   UNL     1       7.051   4.278  15.668  0.00  0.00    +0.000 C 
BRANCH   6   7
ATOM      7  C   UNL     1       5.698   4.285  14.977  0.00  0.00    +0.000 C 
BRANCH   7   8
ATOM      8  C   UNL     1       4.620   4.728  15.953  0.00  0.00    +0.000 C 
BRANCH   8   9
ATOM      9  C   UNL     1       4.254   3.593  16.896  0.00  0.00    +0.000 C 
BRANCH   9  10
ATOM     10  C   UNL     1       4.187   4.094  18.334  0.00  0.00    +0.000 C 
BRANCH  10  11
ATOM     11  C   UNL     1       3.118   5.171  18.474  0.00  0.00    +0.000 C 
BRANCH  11  12
ATOM     12  C   UNL     1       2.989   5.627  19.921  0.00  0.00    +0.000 C 
BRANCH  12  13
ATOM     13  C   UNL     1       1.699   5.104  20.543  0.00  0.00    +0.000 C 
BRANCH  13  14
ATOM     14  O   UNL     1       1.052   4.262  19.588  0.00  0.00    +0.000 OA
BRANCH  14  15
ATOM     15  N   UNL     1       0.983   2.903  19.988  0.00  0.00    +0.000 N 
ATOM     16  O   UNL     1       1.250   2.634  21.166  0.00  0.00    +0.000 OA
ATOM     17  O   UNL     1       0.668   2.148  19.069  0.00  0.00    +0.000 OA
ENDBRANCH  14  15
ENDBRANCH  13  14
ENDBRANCH  12  13
ENDBRANCH  11  12
ENDBRANCH  10  11
ENDBRANCH   9  10
ENDBRANCH   8   9
ENDBRANCH   7   8
ENDBRANCH   6   7
ENDBRANCH   5   6
ENDBRANCH   4   5
ENDBRANCH   3   4
ENDBRANCH   2   3
ENDBRANCH   1   2
BRANCH   1  18
ATOM     18  C   UNL     1       8.308  10.019  17.913  0.00  0.00    +0.000 C 
BRANCH  18  19
ATOM     19  C   UNL     1       9.349  11.046  18.244  0.00  0.00    +0.000 C 
BRANCH  19  20
ATOM     20  C   UNL     1       8.911  12.369  17.692  0.00  0.00    +0.000 C 
ATOM     21  O   UNL     1       7.841  12.619  17.187  0.00  0.00    +0.000 OA
BRANCH  20  22
ATOM     22  O   UNL     1      10.009  13.192  17.695  0.00  0.00    +0.000 OA
BRANCH  22  23
ATOM     23  C   UNL     1       9.920  14.304  18.590  0.00  0.00    +0.000 C 
BRANCH  23  24
ATOM     24  C   UNL     1       9.559  15.544  17.759  0.00  0.00    +0.000 C 
BRANCH  24  25
ATOM     25  C   UNL     1      10.721  16.086  17.010  0.00  0.00    +0.000 C 
ATOM     26  O   UNL     1      11.371  17.067  17.308  0.00  0.00    +0.000 OA
BRANCH  25  27
ATOM     27  O   UNL     1      11.036  15.283  15.971  0.00  0.00    +0.000 OA
ATOM     28  H   UNL     1      11.592  14.559  16.321  0.00  0.00    +0.000 HD
ENDBRANCH  25  27
ENDBRANCH  24  25
ENDBRANCH  23  24
BRANCH  23  29
ATOM     29  C   UNL     1       8.820  13.973  19.641  0.00  0.00    +0.000 C 
BRANCH  29  31
ATOM     30  C   UNL     1      10.047  15.040  21.697  0.00  0.00    +0.000 C 
ATOM     31  N   UNL     1       9.235  13.863  21.158  0.00  0.00    +0.000 N 
ATOM     32  C   UNL     1       9.952  12.544  21.457  0.00  0.00    +0.000 C 
ATOM     33  C   UNL     1       7.926  13.840  21.968  0.00  0.00    +0.000 C 
ENDBRANCH  29  31
ENDBRANCH  23  29
ENDBRANCH  22  23
ENDBRANCH  20  22
ENDBRANCH  19  20
ENDBRANCH  18  19
ENDBRANCH   1  18
TORSDOF 24
ENDMDL
MODEL 7
REMARK VINA RESULT:      -5.3      3.875     11.184
REMARK  Name = 
REMARK  27 active torsions:
REMARK  status: ('A' for Active; 'I' for Inactive)
REMARK    1  A    between atoms: C_1  and  N_2
REMARK    2  A    between atoms: N_2  and  C_3
REMARK    3  A    between atoms: N_2  and  C_4
REMARK    4  A    between atoms: N_2  and  C_5
REMARK    5  A    between atoms: C_5  and  C_6
REMARK    6  A    between atoms: C_6  and  C_7
REMARK    7  A    between atoms: C_6  and  O_11
REMARK    8  A    between atoms: C_7  and  C_8
REMARK    9  A    between atoms: C_8  and  O_10
REMARK   10  A    between atoms: O_11  and  C_12
REMARK   11  A    between atoms: C_12  and  C_14
REMARK   12  A    between atoms: C_14  and  C_15
REMARK   13  A    between atoms: C_15  and  C_16
REMARK   14  A    between atoms: C_16  and  C_17
REMARK   15  A    between atoms: C_17  and  C_18
REMARK   16  A    between atoms: C_18  and  C_19
REMARK   17  A    between atoms: C_19  and  C_20
REMARK   18  A    between atoms: C_20  and  C_21
REMARK   19  A    between atoms: C_21  and  C_22
REMARK   20  A    between atoms: C_22  and  C_23
REMARK   21  A    between atoms: C_23  and  C_24
REMARK   22  A    between atoms: C_24  and  C_25
REMARK   23  A    between atoms: C_25  and  C_26
REMARK   24  A    between atoms: C_26  and  C_27
REMARK   25  A    between atoms: C_27  and  C_28
REMARK   26  A    between atoms: C_28  and  O_29
REMARK   27  A    between atoms: O_29  and  N_30
REMARK                            x       y       z     vdW  Elec       q    Type
REMARK                         _______ _______ _______ _____ _____    ______ ____
ROOT
ATOM      1  C   UNL     1       1.718  10.373  17.978  0.00  0.00    +0.000 C 
ENDROOT
BRANCH   1   2
ATOM      2  C   UNL     1       0.546  10.908  18.791  0.00  0.00    +0.000 C 
BRANCH   2   3
ATOM      3  C   UNL     1      -0.715  10.092  18.532  0.00  0.00    +0.000 C 
BRANCH   3   4
ATOM      4  C   UNL     1      -1.744  10.913  17.785  0.00  0.00    +0.000 C 
BRANCH   4   5
ATOM      5  C   UNL     1      -2.788   9.984  17.184  0.00  0.00    +0.000 C 
BRANCH   5   6
ATOM      6  C   UNL     1      -3.910  10.802  16.576  0.00  0.00    +0.000 C 
BRANCH   6   7
ATOM      7  C   UNL     1      -4.537  11.703  17.626  0.00  0.00    +0.000 C 
BRANCH   7   8
ATOM      8  C   UNL     1      -5.883  12.213  17.134  0.00  0.00    +0.000 C 
BRANCH   8   9
ATOM      9  C   UNL     1      -6.990  11.808  18.094  0.00  0.00    +0.000 C 
BRANCH   9  10
ATOM     10  C   UNL     1      -6.421  11.002  19.255  0.00  0.00    +0.000 C 
BRANCH  10  11
ATOM     11  C   UNL     1      -7.338  11.095  20.469  0.00  0.00    +0.000 C 
BRANCH  11  12
ATOM     12  C   UNL     1      -7.462  12.534  20.950  0.00  0.00    +0.000 C 
BRANCH  12  13
ATOM     13  C   UNL     1      -6.146  13.026  21.541  0.00  0.00    +0.000 C 
BRANCH  13  14
ATOM     14  O   UNL     1      -5.785  12.156  22.615  0.00  0.00    +0.000 OA
BRANCH  14  15
ATOM     15  N   UNL     1      -5.250  12.836  23.738  0.00  0.00    +0.000 N 
ATOM     16  O   UNL     1      -5.127  14.065  23.664  0.00  0.00    +0.000 OA
ATOM     17  O   UNL     1      -4.958  12.079  24.663  0.00  0.00    +0.000 OA
ENDBRANCH  14  15
ENDBRANCH  13  14
ENDBRANCH  12  13
ENDBRANCH  11  12
ENDBRANCH  10  11
ENDBRANCH   9  10
ENDBRANCH   8   9
ENDBRANCH   7   8
ENDBRANCH   6   7
ENDBRANCH   5   6
ENDBRANCH   4   5
ENDBRANCH   3   4
ENDBRANCH   2   3
ENDBRANCH   1   2
BRANCH   1  18
ATOM     18  C   UNL     1       1.584   8.872  17.781  0.00  0.00    +0.000 C 
BRANCH  18  19
ATOM     19  C   UNL     1       2.864   8.166  18.119  0.00  0.00    +0.000 C 
BRANCH  19  20
ATOM     20  C   UNL     1       2.533   6.855  18.766  0.00  0.00    +0.000 C 
ATOM     21  O   UNL     1       2.540   6.617  19.952  0.00  0.00    +0.000 OA
BRANCH  20  22
ATOM     22  O   UNL     1       2.400   5.930  17.762  0.00  0.00    +0.000 OA
BRANCH  22  23
ATOM     23  C   UNL     1       2.863   4.617  18.092  0.00  0.00    +0.000 C 
BRANCH  23  24
ATOM     24  C   UNL     1       1.638   3.694  18.157  0.00  0.00    +0.000 C 
BRANCH  24  25
ATOM     25  C   UNL     1       1.366   3.203  19.532  0.00  0.00    +0.000 C 
ATOM     26  O   UNL     1       1.612   2.095  19.959  0.00  0.00    +0.000 OA
BRANCH  25  27
ATOM     27  O   UNL     1       0.874   4.197  20.304  0.00  0.00    +0.000 OA
ATOM     28  H   UNL     1       0.707   4.963  19.721  0.00  0.00    +0.000 HD
ENDBRANCH  25  27
ENDBRANCH  24  25
ENDBRANCH  23  24
BRANCH  23  29
ATOM     29  C   UNL     1       3.860   4.179  16.980  0.00  0.00    +0.000 C 
BRANCH  29  31
ATOM     30  C   UNL     1       5.862   5.333  18.218  0.00  0.00    +0.000 C 
ATOM     31  N   UNL     1       5.250   4.916  16.881  0.00  0.00    +0.000 N 
ATOM     32  C   UNL     1       5.192   6.113  15.928  0.00  0.00    +0.000 C 
ATOM     33  C   UNL     1       6.233   3.910  16.256  0.00  0.00    +0.000 C 
ENDBRANCH  29  31
ENDBRANCH  23  29
ENDBRANCH  22  23
ENDBRANCH  20  22
ENDBRANCH  19  20
ENDBRANCH  18  19
ENDBRANCH   1  18
TORSDOF 24
ENDMDL
MODEL 8
REMARK VINA RESULT:      -5.3      1.367      1.898
REMARK  Name = 
REMARK  27 active torsions:
REMARK  status: ('A' for Active; 'I' for Inactive)
REMARK    1  A    between atoms: C_1  and  N_2
REMARK    2  A    between atoms: N_2  and  C_3
REMARK    3  A    between atoms: N_2  and  C_4
REMARK    4  A    between atoms: N_2  and  C_5
REMARK    5  A    between atoms: C_5  and  C_6
REMARK    6  A    between atoms: C_6  and  C_7
REMARK    7  A    between atoms: C_6  and  O_11
REMARK    8  A    between atoms: C_7  and  C_8
REMARK    9  A    between atoms: C_8  and  O_10
REMARK   10  A    between atoms: O_11  and  C_12
REMARK   11  A    between atoms: C_12  and  C_14
REMARK   12  A    between atoms: C_14  and  C_15
REMARK   13  A    between atoms: C_15  and  C_16
REMARK   14  A    between atoms: C_16  and  C_17
REMARK   15  A    between atoms: C_17  and  C_18
REMARK   16  A    between atoms: C_18  and  C_19
REMARK   17  A    between atoms: C_19  and  C_20
REMARK   18  A    between atoms: C_20  and  C_21
REMARK   19  A    between atoms: C_21  and  C_22
REMARK   20  A    between atoms: C_22  and  C_23
REMARK   21  A    between atoms: C_23  and  C_24
REMARK   22  A    between atoms: C_24  and  C_25
REMARK   23  A    between atoms: C_25  and  C_26
REMARK   24  A    between atoms: C_26  and  C_27
REMARK   25  A    between atoms: C_27  and  C_28
REMARK   26  A    between atoms: C_28  and  O_29
REMARK   27  A    between atoms: O_29  and  N_30
REMARK                            x       y       z     vdW  Elec       q    Type
REMARK                         _______ _______ _______ _____ _____    ______ ____
ROOT
ATOM      1  C   UNL     1       2.174   8.251  18.197  0.00  0.00    +0.000 C 
ENDROOT
BRANCH   1   2
ATOM      2  C   UNL     1       2.076   7.763  19.637  0.00  0.00    +0.000 C 
BRANCH   2   3
ATOM      3  C   UNL     1       2.370   6.271  19.728  0.00  0.00    +0.000 C 
BRANCH   3   4
ATOM      4  C   UNL     1       1.603   5.638  20.869  0.00  0.00    +0.000 C 
BRANCH   4   5
ATOM      5  C   UNL     1       1.202   4.223  20.482  0.00  0.00    +0.000 C 
BRANCH   5   6
ATOM      6  C   UNL     1       2.237   3.638  19.540  0.00  0.00    +0.000 C 
BRANCH   6   7
ATOM      7  C   UNL     1       1.558   2.860  18.426  0.00  0.00    +0.000 C 
BRANCH   7   8
ATOM      8  C   UNL     1       2.566   2.535  17.333  0.00  0.00    +0.000 C 
BRANCH   8   9
ATOM      9  C   UNL     1       3.953   3.020  17.726  0.00  0.00    +0.000 C 
BRANCH   9  10
ATOM     10  C   UNL     1       4.504   3.971  16.671  0.00  0.00    +0.000 C 
BRANCH  10  11
ATOM     11  C   UNL     1       4.277   5.419  17.087  0.00  0.00    +0.000 C 
BRANCH  11  12
ATOM     12  C   UNL     1       5.229   6.354  16.355  0.00  0.00    +0.000 C 
BRANCH  12  13
ATOM     13  C   UNL     1       6.375   6.784  17.262  0.00  0.00    +0.000 C 
BRANCH  13  14
ATOM     14  O   UNL     1       7.477   5.902  17.041  0.00  0.00    +0.000 OA
BRANCH  14  15
ATOM     15  N   UNL     1       7.674   4.969  18.090  0.00  0.00    +0.000 N 
ATOM     16  O   UNL     1       7.082   5.169  19.158  0.00  0.00    +0.000 OA
ATOM     17  O   UNL     1       8.447   4.061  17.787  0.00  0.00    +0.000 OA
ENDBRANCH  14  15
ENDBRANCH  13  14
ENDBRANCH  12  13
ENDBRANCH  11  12
ENDBRANCH  10  11
ENDBRANCH   9  10
ENDBRANCH   8   9
ENDBRANCH   7   8
ENDBRANCH   6   7
ENDBRANCH   5   6
ENDBRANCH   4   5
ENDBRANCH   3   4
ENDBRANCH   2   3
ENDBRANCH   1   2
BRANCH   1  18
ATOM     18  C   UNL     1       1.571   9.640  18.066  0.00  0.00    +0.000 C 
BRANCH  18  19
ATOM     19  C   UNL     1       0.866  10.045  19.327  0.00  0.00    +0.000 C 
BRANCH  19  20
ATOM     20  C   UNL     1      -0.415  10.733  18.961  0.00  0.00    +0.000 C 
ATOM     21  O   UNL     1      -1.518  10.238  18.949  0.00  0.00    +0.000 OA
BRANCH  20  22
ATOM     22  O   UNL     1      -0.084  11.969  18.467  0.00  0.00    +0.000 OA
BRANCH  22  23
ATOM     23  C   UNL     1       0.294  12.928  19.458  0.00  0.00    +0.000 C 
BRANCH  23  24
ATOM     24  C   UNL     1       1.344  13.857  18.833  0.00  0.00    +0.000 C 
BRANCH  24  25
ATOM     25  C   UNL     1       2.429  14.213  19.783  0.00  0.00    +0.000 C 
ATOM     26  O   UNL     1       2.804  13.547  20.724  0.00  0.00    +0.000 OA
BRANCH  25  27
ATOM     27  O   UNL     1       3.028  15.366  19.412  0.00  0.00    +0.000 OA
ATOM     28  H   UNL     1       3.946  15.148  19.157  0.00  0.00    +0.000 HD
ENDBRANCH  25  27
ENDBRANCH  24  25
ENDBRANCH  23  24
BRANCH  23  29
ATOM     29  C   UNL     1      -0.991  13.704  19.872  0.00  0.00    +0.000 C 
BRANCH  29  31
ATOM     30  C   UNL     1      -2.801  13.687  21.769  0.00  0.00    +0.000 C 
ATOM     31  N   UNL     1      -1.325  13.846  21.407  0.00  0.00    +0.000 N 
ATOM     32  C   UNL     1      -0.774  15.150  21.989  0.00  0.00    +0.000 C 
ATOM     33  C   UNL     1      -0.583  12.702  22.121  0.00  0.00    +0.000 C 
ENDBRANCH  29  31
ENDBRANCH  23  29
ENDBRANCH  22  23
ENDBRANCH  20  22
ENDBRANCH  19  20
ENDBRANCH  18  19
ENDBRANCH   1  18
TORSDOF 24
ENDMDL
MODEL 9
REMARK VINA RESULT:      -5.2      2.286      3.984
REMARK  Name = 
REMARK  27 active torsions:
REMARK  status: ('A' for Active; 'I' for Inactive)
REMARK    1  A    between atoms: C_1  and  N_2
REMARK    2  A    between atoms: N_2  and  C_3
REMARK    3  A    between atoms: N_2  and  C_4
REMARK    4  A    between atoms: N_2  and  C_5
REMARK    5  A    between atoms: C_5  and  C_6
REMARK    6  A    between atoms: C_6  and  C_7
REMARK    7  A    between atoms: C_6  and  O_11
REMARK    8  A    between atoms: C_7  and  C_8
REMARK    9  A    between atoms: C_8  and  O_10
REMARK   10  A    between atoms: O_11  and  C_12
REMARK   11  A    between atoms: C_12  and  C_14
REMARK   12  A    between atoms: C_14  and  C_15
REMARK   13  A    between atoms: C_15  and  C_16
REMARK   14  A    between atoms: C_16  and  C_17
REMARK   15  A    between atoms: C_17  and  C_18
REMARK   16  A    between atoms: C_18  and  C_19
REMARK   17  A    between atoms: C_19  and  C_20
REMARK   18  A    between atoms: C_20  and  C_21
REMARK   19  A    between atoms: C_21  and  C_22
REMARK   20  A    between atoms: C_22  and  C_23
REMARK   21  A    between atoms: C_23  and  C_24
REMARK   22  A    between atoms: C_24  and  C_25
REMARK   23  A    between atoms: C_25  and  C_26
REMARK   24  A    between atoms: C_26  and  C_27
REMARK   25  A    between atoms: C_27  and  C_28
REMARK   26  A    between atoms: C_28  and  O_29
REMARK   27  A    between atoms: O_29  and  N_30
REMARK                            x       y       z     vdW  Elec       q    Type
REMARK                         _______ _______ _______ _____ _____    ______ ____
ROOT
ATOM      1  C   UNL     1       4.923   6.793  16.925  0.00  0.00    +0.000 C 
ENDROOT
BRANCH   1   2
ATOM      2  C   UNL     1       5.117   5.724  15.857  0.00  0.00    +0.000 C 
BRANCH   2   3
ATOM      3  C   UNL     1       4.855   4.334  16.424  0.00  0.00    +0.000 C 
BRANCH   3   4
ATOM      4  C   UNL     1       3.530   3.793  15.935  0.00  0.00    +0.000 C 
BRANCH   4   5
ATOM      5  C   UNL     1       2.549   3.737  17.097  0.00  0.00    +0.000 C 
BRANCH   5   6
ATOM      6  C   UNL     1       2.659   2.396  17.794  0.00  0.00    +0.000 C 
BRANCH   6   7
ATOM      7  C   UNL     1       1.406   2.117  18.606  0.00  0.00    +0.000 C 
BRANCH   7   8
ATOM      8  C   UNL     1       1.654   2.444  20.071  0.00  0.00    +0.000 C 
BRANCH   8   9
ATOM      9  C   UNL     1       0.904   3.705  20.470  0.00  0.00    +0.000 C 
BRANCH   9  10
ATOM     10  C   UNL     1       1.866   4.881  20.593  0.00  0.00    +0.000 C 
BRANCH  10  11
ATOM     11  C   UNL     1       3.300   4.386  20.731  0.00  0.00    +0.000 C 
BRANCH  11  12
ATOM     12  C   UNL     1       4.248   5.212  19.874  0.00  0.00    +0.000 C 
BRANCH  12  13
ATOM     13  C   UNL     1       5.499   4.415  19.522  0.00  0.00    +0.000 C 
BRANCH  13  14
ATOM     14  O   UNL     1       6.640   5.174  19.925  0.00  0.00    +0.000 OA
BRANCH  14  15
ATOM     15  N   UNL     1       7.549   5.433  18.868  0.00  0.00    +0.000 N 
ATOM     16  O   UNL     1       7.991   6.584  18.756  0.00  0.00    +0.000 OA
ATOM     17  O   UNL     1       7.771   4.443  18.172  0.00  0.00    +0.000 OA
ENDBRANCH  14  15
ENDBRANCH  13  14
ENDBRANCH  12  13
ENDBRANCH  11  12
ENDBRANCH  10  11
ENDBRANCH   9  10
ENDBRANCH   8   9
ENDBRANCH   7   8
ENDBRANCH   6   7
ENDBRANCH   5   6
ENDBRANCH   4   5
ENDBRANCH   3   4
ENDBRANCH   2   3
ENDBRANCH   1   2
BRANCH   1  18
ATOM     18  C   UNL     1       3.571   7.468  16.759  0.00  0.00    +0.000 C 
BRANCH  18  19
ATOM     19  C   UNL     1       2.757   7.362  18.014  0.00  0.00    +0.000 C 
BRANCH  19  20
ATOM     20  C   UNL     1       2.064   8.671  18.248  0.00  0.00    +0.000 C 
ATOM     21  O   UNL     1       1.791   9.500  17.411  0.00  0.00    +0.000 OA
BRANCH  20  22
ATOM     22  O   UNL     1       1.964   8.838  19.606  0.00  0.00    +0.000 OA
BRANCH  22  23
ATOM     23  C   UNL     1       0.654   9.177  20.072  0.00  0.00    +0.000 C 
BRANCH  23  24
ATOM     24  C   UNL     1       0.448   8.484  21.427  0.00  0.00    +0.000 C 
BRANCH  24  25
ATOM     25  C   UNL     1       0.939   9.301  22.566  0.00  0.00    +0.000 C 
ATOM     26  O   UNL     1       0.253   9.928  23.346  0.00  0.00    +0.000 OA
BRANCH  25  27
ATOM     27  O   UNL     1       2.280   9.190  22.689  0.00  0.00    +0.000 OA
ATOM     28  H   UNL     1       2.660  10.077  22.532  0.00  0.00    +0.000 HD
ENDBRANCH  25  27
ENDBRANCH  24  25
ENDBRANCH  23  24
BRANCH  23  29
ATOM     29  C   UNL     1       0.590  10.727  20.200  0.00  0.00    +0.000 C 
BRANCH  29  31
ATOM     30  C   UNL     1      -1.423  10.634  18.522  0.00  0.00    +0.000 C 
ATOM     31  N   UNL     1      -0.544  11.501  19.423  0.00  0.00    +0.000 N 
ATOM     32  C   UNL     1       0.016  12.687  18.634  0.00  0.00    +0.000 C 
ATOM     33  C   UNL     1      -1.479  12.092  20.493  0.00  0.00    +0.000 C 
ENDBRANCH  29  31
ENDBRANCH  23  29
ENDBRANCH  22  23
ENDBRANCH  20  22
ENDBRANCH  19  20
ENDBRANCH  18  19
ENDBRANCH   1  18
TORSDOF 24
ENDMDL
