MODEL 1
REMARK VINA RESULT:      -6.4      0.000      0.000
REMARK  Name = 
REMARK  7 active torsions:
REMARK  status: ('A' for Active; 'I' for Inactive)
REMARK    1  A    between atoms: C_1  and  N_2
REMARK    2  A    between atoms: C_5  and  C_6
REMARK    3  A    between atoms: C_6  and  C_7
REMARK    4  A    between atoms: C_7  and  O_8
REMARK    5  A    between atoms: C_9  and  C_10
REMARK    6  A    between atoms: C_16  and  O_17
REMARK    7  A    between atoms: C_20  and  C_21
REMARK                            x       y       z     vdW  Elec       q    Type
REMARK                         _______ _______ _______ _____ _____    ______ ____
ROOT
ATOM      1  C   UNL     1      -7.135  12.249  18.390  0.00  0.00    +0.000 C 
ATOM      2  N   UNL     1      -5.718  12.163  18.717  0.00  0.00    +0.000 N 
ATOM      3  C   UNL     1      -4.829  11.837  17.705  0.00  0.00    +0.000 A 
ATOM      4  O   UNL     1      -5.192  11.631  16.546  0.00  0.00    +0.000 OA
ATOM      5  C   UNL     1      -3.370  11.737  18.038  0.00  0.00    +0.000 A 
ATOM      6  C   UNL     1      -2.930  12.025  19.288  0.00  0.00    +0.000 A 
ATOM      7  C   UNL     1      -3.915  12.376  20.342  0.00  0.00    +0.000 A 
ATOM      8  C   UNL     1      -3.493  12.637  21.661  0.00  0.00    +0.000 A 
ATOM      9  C   UNL     1      -4.407  12.921  22.691  0.00  0.00    +0.000 A 
ATOM     10  C   UNL     1      -5.768  12.946  22.383  0.00  0.00    +0.000 A 
ATOM     11  C   UNL     1      -6.202  12.699  21.079  0.00  0.00    +0.000 A 
ATOM     12  C   UNL     1      -5.286  12.415  20.046  0.00  0.00    +0.000 A 
ENDROOT
BRANCH   6  13
ATOM     13  C   UNL     1      -1.468  11.940  19.550  0.00  0.00    +0.000 A 
ATOM     14  C   UNL     1      -0.927  10.719  19.978  0.00  0.00    +0.000 A 
ATOM     15  C   UNL     1       0.434  10.620  20.260  0.00  0.00    +0.000 A 
ATOM     16 CL   UNL     1       1.089   9.122  20.793  0.00  0.00    +0.000 Cl
ATOM     17  C   UNL     1       1.269  11.728  20.117  0.00  0.00    +0.000 A 
ATOM     18  C   UNL     1       0.744  12.947  19.685  0.00  0.00    +0.000 A 
ATOM     19  C   UNL     1      -0.618  13.048  19.400  0.00  0.00    +0.000 A 
BRANCH  19  20
ATOM     20  O   UNL     1      -1.140  14.241  18.984  0.00  0.00    +0.000 OA
ATOM     21  H   UNL     1      -1.482  14.144  18.081  0.00  0.00    +0.000 HD
ENDBRANCH  19  20
ENDBRANCH   6  13
BRANCH   9  22
ATOM     22  C   UNL     1      -3.940  13.184  24.102  0.00  0.00    +0.000 C 
ATOM     23  F   UNL     1      -4.368  12.257  25.003  0.00  0.00    +0.000 F 
ATOM     24  F   UNL     1      -2.582  13.204  24.201  0.00  0.00    +0.000 F 
ATOM     25  F   UNL     1      -4.367  14.388  24.574  0.00  0.00    +0.000 F 
ENDBRANCH   9  22
BRANCH   5  26
ATOM     26  C   UNL     1      -2.500  11.213  16.898  0.00  0.00    +0.000 C 
BRANCH  26  27
ATOM     27  C   UNL     1      -2.697   9.746  16.501  0.00  0.00    +0.000 C 
BRANCH  27  28
ATOM     28  O   UNL     1      -3.268   9.636  15.202  0.00  0.00    +0.000 OA
ATOM     29  H   UNL     1      -3.202  10.516  14.797  0.00  0.00    +0.000 HD
ENDBRANCH  27  28
ENDBRANCH  26  27
ENDBRANCH   5  26
TORSDOF 6
ENDMDL
MODEL 2
REMARK VINA RESULT:      -6.3      1.269      1.423
REMARK  Name = 
REMARK  7 active torsions:
REMARK  status: ('A' for Active; 'I' for Inactive)
REMARK    1  A    between atoms: C_1  and  N_2
REMARK    2  A    between atoms: C_5  and  C_6
REMARK    3  A    between atoms: C_6  and  C_7
REMARK    4  A    between atoms: C_7  and  O_8
REMARK    5  A    between atoms: C_9  and  C_10
REMARK    6  A    between atoms: C_16  and  O_17
REMARK    7  A    between atoms: C_20  and  C_21
REMARK                            x       y       z     vdW  Elec       q    Type
REMARK                         _______ _______ _______ _____ _____    ______ ____
ROOT
ATOM      1  C   UNL     1      -6.950  12.742  19.411  0.00  0.00    +0.000 C 
ATOM      2  N   UNL     1      -5.524  12.447  19.410  0.00  0.00    +0.000 N 
ATOM      3  C   UNL     1      -5.013  11.682  18.373  0.00  0.00    +0.000 A 
ATOM      4  O   UNL     1      -5.716  11.256  17.456  0.00  0.00    +0.000 OA
ATOM      5  C   UNL     1      -3.546  11.367  18.372  0.00  0.00    +0.000 A 
ATOM      6  C   UNL     1      -2.733  11.877  19.329  0.00  0.00    +0.000 A 
ATOM      7  C   UNL     1      -3.320  12.697  20.419  0.00  0.00    +0.000 A 
ATOM      8  C   UNL     1      -2.508  13.205  21.453  0.00  0.00    +0.000 A 
ATOM      9  C   UNL     1      -3.043  13.942  22.524  0.00  0.00    +0.000 A 
ATOM     10  C   UNL     1      -4.420  14.173  22.550  0.00  0.00    +0.000 A 
ATOM     11  C   UNL     1      -5.237  13.684  21.528  0.00  0.00    +0.000 A 
ATOM     12  C   UNL     1      -4.700  12.947  20.454  0.00  0.00    +0.000 A 
ENDROOT
BRANCH   6  13
ATOM     13  C   UNL     1      -1.283  11.556  19.256  0.00  0.00    +0.000 A 
ATOM     14  C   UNL     1      -0.817  10.386  19.874  0.00  0.00    +0.000 A 
ATOM     15  C   UNL     1       0.542  10.077  19.846  0.00  0.00    +0.000 A 
ATOM     16 CL   UNL     1       1.107   8.645  20.612  0.00  0.00    +0.000 Cl
ATOM     17  C   UNL     1       1.448  10.923  19.207  0.00  0.00    +0.000 A 
ATOM     18  C   UNL     1       0.996  12.087  18.583  0.00  0.00    +0.000 A 
ATOM     19  C   UNL     1      -0.364  12.397  18.607  0.00  0.00    +0.000 A 
BRANCH  19  20
ATOM     20  O   UNL     1      -0.813  13.540  18.005  0.00  0.00    +0.000 OA
ATOM     21  H   UNL     1      -1.455  13.978  18.585  0.00  0.00    +0.000 HD
ENDBRANCH  19  20
ENDBRANCH   6  13
BRANCH   9  22
ATOM     22  C   UNL     1      -2.162  14.465  23.632  0.00  0.00    +0.000 C 
ATOM     23  F   UNL     1      -2.756  14.457  24.857  0.00  0.00    +0.000 F 
ATOM     24  F   UNL     1      -1.017  13.742  23.766  0.00  0.00    +0.000 F 
ATOM     25  F   UNL     1      -1.769  15.751  23.417  0.00  0.00    +0.000 F 
ENDBRANCH   9  22
BRANCH   5  26
ATOM     26  C   UNL     1      -3.116  10.384  17.284  0.00  0.00    +0.000 C 
BRANCH  26  27
ATOM     27  C   UNL     1      -2.554  10.988  15.994  0.00  0.00    +0.000 C 
BRANCH  27  28
ATOM     28  O   UNL     1      -3.580  11.602  15.222  0.00  0.00    +0.000 OA
ATOM     29  H   UNL     1      -4.062  12.192  15.824  0.00  0.00    +0.000 HD
ENDBRANCH  27  28
ENDBRANCH  26  27
ENDBRANCH   5  26
TORSDOF 6
ENDMDL
MODEL 3
REMARK VINA RESULT:      -6.2      3.698      5.305
REMARK  Name = 
REMARK  7 active torsions:
REMARK  status: ('A' for Active; 'I' for Inactive)
REMARK    1  A    between atoms: C_1  and  N_2
REMARK    2  A    between atoms: C_5  and  C_6
REMARK    3  A    between atoms: C_6  and  C_7
REMARK    4  A    between atoms: C_7  and  O_8
REMARK    5  A    between atoms: C_9  and  C_10
REMARK    6  A    between atoms: C_16  and  O_17
REMARK    7  A    between atoms: C_20  and  C_21
REMARK                            x       y       z     vdW  Elec       q    Type
REMARK                         _______ _______ _______ _____ _____    ______ ____
ROOT
ATOM      1  C   UNL     1      -7.375  13.339  20.359  0.00  0.00    +0.000 C 
ATOM      2  N   UNL     1      -5.934  13.131  20.355  0.00  0.00    +0.000 N 
ATOM      3  C   UNL     1      -5.204  13.578  21.445  0.00  0.00    +0.000 A 
ATOM      4  O   UNL     1      -5.729  14.131  22.413  0.00  0.00    +0.000 OA
ATOM      5  C   UNL     1      -3.717  13.376  21.443  0.00  0.00    +0.000 A 
ATOM      6  C   UNL     1      -3.116  12.710  20.426  0.00  0.00    +0.000 A 
ATOM      7  C   UNL     1      -3.936  12.242  19.280  0.00  0.00    +0.000 A 
ATOM      8  C   UNL     1      -3.334  11.586  18.187  0.00  0.00    +0.000 A 
ATOM      9  C   UNL     1      -4.077  11.177  17.065  0.00  0.00    +0.000 A 
ATOM     10  C   UNL     1      -5.450  11.430  17.049  0.00  0.00    +0.000 A 
ATOM     11  C   UNL     1      -6.063  12.070  18.128  0.00  0.00    +0.000 A 
ATOM     12  C   UNL     1      -5.318  12.480  19.253  0.00  0.00    +0.000 A 
ENDROOT
BRANCH   6  13
ATOM     13  C   UNL     1      -1.644  12.512  20.495  0.00  0.00    +0.000 A 
ATOM     14  C   UNL     1      -1.144  11.374  21.145  0.00  0.00    +0.000 A 
ATOM     15  C   UNL     1       0.232  11.179  21.250  0.00  0.00    +0.000 A 
ATOM     16 CL   UNL     1       0.838   9.786  22.056  0.00  0.00    +0.000 Cl
ATOM     17  C   UNL     1       1.122  12.108  20.712  0.00  0.00    +0.000 A 
ATOM     18  C   UNL     1       0.637  13.241  20.056  0.00  0.00    +0.000 A 
ATOM     19  C   UNL     1      -0.740  13.437  19.948  0.00  0.00    +0.000 A 
BRANCH  19  20
ATOM     20  O   UNL     1      -1.222  14.548  19.314  0.00  0.00    +0.000 OA
ATOM     21  H   UNL     1      -1.609  15.150  19.969  0.00  0.00    +0.000 HD
ENDBRANCH  19  20
ENDBRANCH   6  13
BRANCH   9  22
ATOM     22  C   UNL     1      -3.416  10.490  15.896  0.00  0.00    +0.000 C 
ATOM     23  F   UNL     1      -4.258  10.244  14.855  0.00  0.00    +0.000 F 
ATOM     24  F   UNL     1      -2.388  11.220  15.382  0.00  0.00    +0.000 F 
ATOM     25  F   UNL     1      -2.883   9.284  16.237  0.00  0.00    +0.000 F 
ENDBRANCH   9  22
BRANCH   5  26
ATOM     26  C   UNL     1      -2.989  14.049  22.604  0.00  0.00    +0.000 C 
BRANCH  26  27
ATOM     27  C   UNL     1      -2.938  13.276  23.926  0.00  0.00    +0.000 C 
BRANCH  27  28
ATOM     28  O   UNL     1      -3.985  13.680  24.801  0.00  0.00    +0.000 OA
ATOM     29  H   UNL     1      -3.737  14.556  25.140  0.00  0.00    +0.000 HD
ENDBRANCH  27  28
ENDBRANCH  26  27
ENDBRANCH   5  26
TORSDOF 6
ENDMDL
MODEL 4
REMARK VINA RESULT:      -6.2      0.847      1.120
REMARK  Name = 
REMARK  7 active torsions:
REMARK  status: ('A' for Active; 'I' for Inactive)
REMARK    1  A    between atoms: C_1  and  N_2
REMARK    2  A    between atoms: C_5  and  C_6
REMARK    3  A    between atoms: C_6  and  C_7
REMARK    4  A    between atoms: C_7  and  O_8
REMARK    5  A    between atoms: C_9  and  C_10
REMARK    6  A    between atoms: C_16  and  O_17
REMARK    7  A    between atoms: C_20  and  C_21
REMARK                            x       y       z     vdW  Elec       q    Type
REMARK                         _______ _______ _______ _____ _____    ______ ____
ROOT
ATOM      1  C   UNL     1      -6.967  12.056  18.350  0.00  0.00    +0.000 C 
ATOM      2  N   UNL     1      -5.571  12.085  18.762  0.00  0.00    +0.000 N 
ATOM      3  C   UNL     1      -4.601  11.797  17.814  0.00  0.00    +0.000 A 
ATOM      4  O   UNL     1      -4.877  11.529  16.644  0.00  0.00    +0.000 OA
ATOM      5  C   UNL     1      -3.161  11.816  18.234  0.00  0.00    +0.000 A 
ATOM      6  C   UNL     1      -2.819  12.174  19.496  0.00  0.00    +0.000 A 
ATOM      7  C   UNL     1      -3.888  12.482  20.479  0.00  0.00    +0.000 A 
ATOM      8  C   UNL     1      -3.567  12.813  21.811  0.00  0.00    +0.000 A 
ATOM      9  C   UNL     1      -4.559  13.060  22.776  0.00  0.00    +0.000 A 
ATOM     10  C   UNL     1      -5.898  12.974  22.390  0.00  0.00    +0.000 A 
ATOM     11  C   UNL     1      -6.233  12.656  21.072  0.00  0.00    +0.000 A 
ATOM     12  C   UNL     1      -5.238  12.409  20.104  0.00  0.00    +0.000 A 
ENDROOT
BRANCH   6  13
ATOM     13  C   UNL     1      -1.373  12.206  19.845  0.00  0.00    +0.000 A 
ATOM     14  C   UNL     1      -0.805  11.091  20.478  0.00  0.00    +0.000 A 
ATOM     15  C   UNL     1       0.540  11.108  20.843  0.00  0.00    +0.000 A 
ATOM     16 CL   UNL     1       1.229   9.739  21.625  0.00  0.00    +0.000 Cl
ATOM     17  C   UNL     1       1.332  12.226  20.582  0.00  0.00    +0.000 A 
ATOM     18  C   UNL     1       0.779  13.340  19.947  0.00  0.00    +0.000 A 
ATOM     19  C   UNL     1      -0.567  13.325  19.579  0.00  0.00    +0.000 A 
BRANCH  19  20
ATOM     20  O   UNL     1      -1.116  14.415  18.963  0.00  0.00    +0.000 OA
ATOM     21  H   UNL     1      -1.126  15.162  19.582  0.00  0.00    +0.000 HD
ENDBRANCH  19  20
ENDBRANCH   6  13
BRANCH   9  22
ATOM     22  C   UNL     1      -4.199  13.399  24.201  0.00  0.00    +0.000 C 
ATOM     23  F   UNL     1      -2.860  13.522  24.415  0.00  0.00    +0.000 F 
ATOM     24  F   UNL     1      -4.752  14.575  24.608  0.00  0.00    +0.000 F 
ATOM     25  F   UNL     1      -4.633  12.458  25.084  0.00  0.00    +0.000 F 
ENDBRANCH   9  22
BRANCH   5  26
ATOM     26  C   UNL     1      -2.188  11.324  17.165  0.00  0.00    +0.000 C 
BRANCH  26  27
ATOM     27  C   UNL     1      -1.765   9.854  17.245  0.00  0.00    +0.000 C 
BRANCH  27  28
ATOM     28  O   UNL     1      -0.359   9.730  17.427  0.00  0.00    +0.000 OA
ATOM     29  H   UNL     1      -0.056  10.572  17.805  0.00  0.00    +0.000 HD
ENDBRANCH  27  28
ENDBRANCH  26  27
ENDBRANCH   5  26
TORSDOF 6
ENDMDL
MODEL 5
REMARK VINA RESULT:      -6.2      8.442     11.183
REMARK  Name = 
REMARK  7 active torsions:
REMARK  status: ('A' for Active; 'I' for Inactive)
REMARK    1  A    between atoms: C_1  and  N_2
REMARK    2  A    between atoms: C_5  and  C_6
REMARK    3  A    between atoms: C_6  and  C_7
REMARK    4  A    between atoms: C_7  and  O_8
REMARK    5  A    between atoms: C_9  and  C_10
REMARK    6  A    between atoms: C_16  and  O_17
REMARK    7  A    between atoms: C_20  and  C_21
REMARK                            x       y       z     vdW  Elec       q    Type
REMARK                         _______ _______ _______ _____ _____    ______ ____
ROOT
ATOM      1  C   UNL     1       5.145   1.992  16.307  0.00  0.00    +0.000 C 
ATOM      2  N   UNL     1       4.542   3.165  16.925  0.00  0.00    +0.000 N 
ATOM      3  C   UNL     1       3.213   3.093  17.311  0.00  0.00    +0.000 A 
ATOM      4  O   UNL     1       2.533   2.077  17.160  0.00  0.00    +0.000 OA
ATOM      5  C   UNL     1       2.584   4.301  17.940  0.00  0.00    +0.000 A 
ATOM      6  C   UNL     1       3.323   5.412  18.183  0.00  0.00    +0.000 A 
ATOM      7  C   UNL     1       4.745   5.445  17.759  0.00  0.00    +0.000 A 
ATOM      8  C   UNL     1       5.527   6.601  17.957  0.00  0.00    +0.000 A 
ATOM      9  C   UNL     1       6.861   6.680  17.520  0.00  0.00    +0.000 A 
ATOM     10  C   UNL     1       7.416   5.573  16.876  0.00  0.00    +0.000 A 
ATOM     11  C   UNL     1       6.658   4.416  16.681  0.00  0.00    +0.000 A 
ATOM     12  C   UNL     1       5.321   4.337  17.119  0.00  0.00    +0.000 A 
ENDROOT
BRANCH   6  13
ATOM     13  C   UNL     1       2.652   6.567  18.838  0.00  0.00    +0.000 A 
ATOM     14  C   UNL     1       2.327   7.690  18.063  0.00  0.00    +0.000 A 
ATOM     15  C   UNL     1       1.726   8.797  18.658  0.00  0.00    +0.000 A 
ATOM     16 CL   UNL     1       1.338  10.174  17.703  0.00  0.00    +0.000 Cl
ATOM     17  C   UNL     1       1.440   8.800  20.023  0.00  0.00    +0.000 A 
ATOM     18  C   UNL     1       1.752   7.685  20.804  0.00  0.00    +0.000 A 
ATOM     19  C   UNL     1       2.352   6.575  20.210  0.00  0.00    +0.000 A 
BRANCH  19  20
ATOM     20  O   UNL     1       2.667   5.483  20.970  0.00  0.00    +0.000 OA
ATOM     21  H   UNL     1       2.338   4.682  20.533  0.00  0.00    +0.000 HD
ENDBRANCH  19  20
ENDBRANCH   6  13
BRANCH   9  22
ATOM     22  C   UNL     1       7.680   7.930  17.726  0.00  0.00    +0.000 C 
ATOM     23  F   UNL     1       8.465   7.896  18.838  0.00  0.00    +0.000 F 
ATOM     24  F   UNL     1       8.521   8.175  16.683  0.00  0.00    +0.000 F 
ATOM     25  F   UNL     1       6.905   9.043  17.850  0.00  0.00    +0.000 F 
ENDBRANCH   9  22
BRANCH   5  26
ATOM     26  C   UNL     1       1.080   4.176  18.174  0.00  0.00    +0.000 C 
BRANCH  26  27
ATOM     27  C   UNL     1       0.625   3.098  19.163  0.00  0.00    +0.000 C 
BRANCH  27  28
ATOM     28  O   UNL     1       0.416   3.643  20.461  0.00  0.00    +0.000 OA
ATOM     29  H   UNL     1       1.290   3.909  20.791  0.00  0.00    +0.000 HD
ENDBRANCH  27  28
ENDBRANCH  26  27
ENDBRANCH   5  26
TORSDOF 6
ENDMDL
MODEL 6
REMARK VINA RESULT:      -6.1      4.088      5.497
REMARK  Name = 
REMARK  7 active torsions:
REMARK  status: ('A' for Active; 'I' for Inactive)
REMARK    1  A    between atoms: C_1  and  N_2
REMARK    2  A    between atoms: C_5  and  C_6
REMARK    3  A    between atoms: C_6  and  C_7
REMARK    4  A    between atoms: C_7  and  O_8
REMARK    5  A    between atoms: C_9  and  C_10
REMARK    6  A    between atoms: C_16  and  O_17
REMARK    7  A    between atoms: C_20  and  C_21
REMARK                            x       y       z     vdW  Elec       q    Type
REMARK                         _______ _______ _______ _____ _____    ______ ____
ROOT
ATOM      1  C   UNL     1      -6.781  12.729  20.940  0.00  0.00    +0.000 C 
ATOM      2  N   UNL     1      -5.350  12.752  20.668  0.00  0.00    +0.000 N 
ATOM      3  C   UNL     1      -4.513  13.335  21.607  0.00  0.00    +0.000 A 
ATOM      4  O   UNL     1      -4.934  13.820  22.659  0.00  0.00    +0.000 OA
ATOM      5  C   UNL     1      -3.040  13.371  21.329  0.00  0.00    +0.000 A 
ATOM      6  C   UNL     1      -2.537  12.785  20.214  0.00  0.00    +0.000 A 
ATOM      7  C   UNL     1      -3.467  12.166  19.237  0.00  0.00    +0.000 A 
ATOM      8  C   UNL     1      -2.979  11.589  18.047  0.00  0.00    +0.000 A 
ATOM      9  C   UNL     1      -3.840  11.041  17.079  0.00  0.00    +0.000 A 
ATOM     10  C   UNL     1      -5.215  11.073  17.319  0.00  0.00    +0.000 A 
ATOM     11  C   UNL     1      -5.714  11.633  18.497  0.00  0.00    +0.000 A 
ATOM     12  C   UNL     1      -4.851  12.181  19.467  0.00  0.00    +0.000 A 
ENDROOT
BRANCH   6  13
ATOM     13  C   UNL     1      -1.064  12.825  20.009  0.00  0.00    +0.000 A 
ATOM     14  C   UNL     1      -0.494  13.961  19.417  0.00  0.00    +0.000 A 
ATOM     15  C   UNL     1       0.880  14.011  19.185  0.00  0.00    +0.000 A 
ATOM     16 CL   UNL     1       1.572  15.404  18.452  0.00  0.00    +0.000 Cl
ATOM     17  C   UNL     1       1.698  12.938  19.539  0.00  0.00    +0.000 A 
ATOM     18  C   UNL     1       1.143  11.804  20.136  0.00  0.00    +0.000 A 
ATOM     19  C   UNL     1      -0.232  11.753  20.370  0.00  0.00    +0.000 A 
BRANCH  19  20
ATOM     20  O   UNL     1      -0.783  10.642  20.947  0.00  0.00    +0.000 OA
ATOM     21  H   UNL     1      -0.321   9.851  20.627  0.00  0.00    +0.000 HD
ENDBRANCH  19  20
ENDBRANCH   6  13
BRANCH   9  22
ATOM     22  C   UNL     1      -3.303  10.441  15.804  0.00  0.00    +0.000 C 
ATOM     23  F   UNL     1      -2.691   9.237  15.978  0.00  0.00    +0.000 F 
ATOM     24  F   UNL     1      -4.281  10.232  14.879  0.00  0.00    +0.000 F 
ATOM     25  F   UNL     1      -2.384  11.243  15.200  0.00  0.00    +0.000 F 
ENDBRANCH   9  22
BRANCH   5  26
ATOM     26  C   UNL     1      -2.229  14.178  22.340  0.00  0.00    +0.000 C 
BRANCH  26  27
ATOM     27  C   UNL     1      -1.508  13.385  23.435  0.00  0.00    +0.000 C 
BRANCH  27  28
ATOM     28  O   UNL     1      -1.900  12.017  23.424  0.00  0.00    +0.000 OA
ATOM     29  H   UNL     1      -1.523  11.630  22.616  0.00  0.00    +0.000 HD
ENDBRANCH  27  28
ENDBRANCH  26  27
ENDBRANCH   5  26
TORSDOF 6
ENDMDL
MODEL 7
REMARK VINA RESULT:      -6.0      0.950      1.235
REMARK  Name = 
REMARK  7 active torsions:
REMARK  status: ('A' for Active; 'I' for Inactive)
REMARK    1  A    between atoms: C_1  and  N_2
REMARK    2  A    between atoms: C_5  and  C_6
REMARK    3  A    between atoms: C_6  and  C_7
REMARK    4  A    between atoms: C_7  and  O_8
REMARK    5  A    between atoms: C_9  and  C_10
REMARK    6  A    between atoms: C_16  and  O_17
REMARK    7  A    between atoms: C_20  and  C_21
REMARK                            x       y       z     vdW  Elec       q    Type
REMARK                         _______ _______ _______ _____ _____    ______ ____
ROOT
ATOM      1  C   UNL     1      -6.907  12.201  18.211  0.00  0.00    +0.000 C 
ATOM      2  N   UNL     1      -5.463  12.084  18.361  0.00  0.00    +0.000 N 
ATOM      3  C   UNL     1      -4.712  11.763  17.241  0.00  0.00    +0.000 A 
ATOM      4  O   UNL     1      -5.218  11.584  16.132  0.00  0.00    +0.000 OA
ATOM      5  C   UNL     1      -3.224  11.633  17.390  0.00  0.00    +0.000 A 
ATOM      6  C   UNL     1      -2.629  11.890  18.580  0.00  0.00    +0.000 A 
ATOM      7  C   UNL     1      -3.470  12.238  19.754  0.00  0.00    +0.000 A 
ATOM      8  C   UNL     1      -2.884  12.467  21.015  0.00  0.00    +0.000 A 
ATOM      9  C   UNL     1      -3.659  12.748  22.154  0.00  0.00    +0.000 A 
ATOM     10  C   UNL     1      -5.047  12.801  22.017  0.00  0.00    +0.000 A 
ATOM     11  C   UNL     1      -5.642  12.585  20.772  0.00  0.00    +0.000 A 
ATOM     12  C   UNL     1      -4.866  12.305  19.630  0.00  0.00    +0.000 A 
ENDROOT
BRANCH   6  13
ATOM     13  C   UNL     1      -1.147  11.776  18.659  0.00  0.00    +0.000 A 
ATOM     14  C   UNL     1      -0.576  10.508  18.844  0.00  0.00    +0.000 A 
ATOM     15  C   UNL     1       0.808  10.377  18.951  0.00  0.00    +0.000 A 
ATOM     16 CL   UNL     1       1.502   8.821  19.186  0.00  0.00    +0.000 Cl
ATOM     17  C   UNL     1       1.634  11.498  18.874  0.00  0.00    +0.000 A 
ATOM     18  C   UNL     1       1.077  12.764  18.683  0.00  0.00    +0.000 A 
ATOM     19  C   UNL     1      -0.307  12.898  18.573  0.00  0.00    +0.000 A 
BRANCH  19  20
ATOM     20  O   UNL     1      -0.860  14.135  18.394  0.00  0.00    +0.000 OA
ATOM     21  H   UNL     1      -1.069  14.261  17.455  0.00  0.00    +0.000 HD
ENDBRANCH  19  20
ENDBRANCH   6  13
BRANCH   9  22
ATOM     22  C   UNL     1      -3.017  12.976  23.501  0.00  0.00    +0.000 C 
ATOM     23  F   UNL     1      -1.742  13.448  23.429  0.00  0.00    +0.000 F 
ATOM     24  F   UNL     1      -3.707  13.876  24.255  0.00  0.00    +0.000 F 
ATOM     25  F   UNL     1      -2.952  11.837  24.244  0.00  0.00    +0.000 F 
ENDBRANCH   9  22
BRANCH   5  26
ATOM     26  C   UNL     1      -2.511  11.114  16.143  0.00  0.00    +0.000 C 
BRANCH  26  27
ATOM     27  C   UNL     1      -2.903   9.716  15.657  0.00  0.00    +0.000 C 
BRANCH  27  28
ATOM     28  O   UNL     1      -3.675   9.781  14.464  0.00  0.00    +0.000 OA
ATOM     29  H   UNL     1      -3.532   8.941  13.997  0.00  0.00    +0.000 HD
ENDBRANCH  27  28
ENDBRANCH  26  27
ENDBRANCH   5  26
TORSDOF 6
ENDMDL
MODEL 8
REMARK VINA RESULT:      -6.0      1.623      1.874
REMARK  Name = 
REMARK  7 active torsions:
REMARK  status: ('A' for Active; 'I' for Inactive)
REMARK    1  A    between atoms: C_1  and  N_2
REMARK    2  A    between atoms: C_5  and  C_6
REMARK    3  A    between atoms: C_6  and  C_7
REMARK    4  A    between atoms: C_7  and  O_8
REMARK    5  A    between atoms: C_9  and  C_10
REMARK    6  A    between atoms: C_16  and  O_17
REMARK    7  A    between atoms: C_20  and  C_21
REMARK                            x       y       z     vdW  Elec       q    Type
REMARK                         _______ _______ _______ _____ _____    ______ ____
ROOT
ATOM      1  C   UNL     1      -6.857  11.783  18.469  0.00  0.00    +0.000 C 
ATOM      2  N   UNL     1      -5.417  11.881  18.658  0.00  0.00    +0.000 N 
ATOM      3  C   UNL     1      -4.593  11.609  17.577  0.00  0.00    +0.000 A 
ATOM      4  O   UNL     1      -5.035  11.301  16.469  0.00  0.00    +0.000 OA
ATOM      5  C   UNL     1      -3.108  11.699  17.768  0.00  0.00    +0.000 A 
ATOM      6  C   UNL     1      -2.591  12.101  18.954  0.00  0.00    +0.000 A 
ATOM      7  C   UNL     1      -3.508  12.389  20.086  0.00  0.00    +0.000 A 
ATOM      8  C   UNL     1      -3.000  12.766  21.345  0.00  0.00    +0.000 A 
ATOM      9  C   UNL     1      -3.841  12.995  22.448  0.00  0.00    +0.000 A 
ATOM     10  C   UNL     1      -5.218  12.844  22.276  0.00  0.00    +0.000 A 
ATOM     11  C   UNL     1      -5.739  12.480  21.033  0.00  0.00    +0.000 A 
ATOM     12  C   UNL     1      -4.895  12.251  19.927  0.00  0.00    +0.000 A 
ENDROOT
BRANCH   6  13
ATOM     13  C   UNL     1      -1.112  12.202  19.074  0.00  0.00    +0.000 A 
ATOM     14  C   UNL     1      -0.494  13.436  18.819  0.00  0.00    +0.000 A 
ATOM     15  C   UNL     1       0.893  13.549  18.894  0.00  0.00    +0.000 A 
ATOM     16 CL   UNL     1       1.643  15.064  18.573  0.00  0.00    +0.000 Cl
ATOM     17  C   UNL     1       1.677  12.445  19.223  0.00  0.00    +0.000 A 
ATOM     18  C   UNL     1       1.075  11.213  19.486  0.00  0.00    +0.000 A 
ATOM     19  C   UNL     1      -0.314  11.097  19.413  0.00  0.00    +0.000 A 
BRANCH  19  20
ATOM     20  O   UNL     1      -0.910   9.892  19.661  0.00  0.00    +0.000 OA
ATOM     21  H   UNL     1      -0.631   9.251  18.988  0.00  0.00    +0.000 HD
ENDBRANCH  19  20
ENDBRANCH   6  13
BRANCH   9  22
ATOM     22  C   UNL     1      -3.280  13.384  23.794  0.00  0.00    +0.000 C 
ATOM     23  F   UNL     1      -3.889  12.765  24.843  0.00  0.00    +0.000 F 
ATOM     24  F   UNL     1      -1.955  13.092  23.905  0.00  0.00    +0.000 F 
ATOM     25  F   UNL     1      -3.389  14.720  24.035  0.00  0.00    +0.000 F 
ENDBRANCH   9  22
BRANCH   5  26
ATOM     26  C   UNL     1      -2.291  11.220  16.569  0.00  0.00    +0.000 C 
BRANCH  26  27
ATOM     27  C   UNL     1      -2.454   9.752  16.167  0.00  0.00    +0.000 C 
BRANCH  27  28
ATOM     28  O   UNL     1      -3.034   9.632  14.873  0.00  0.00    +0.000 OA
ATOM     29  H   UNL     1      -3.556   8.813  14.880  0.00  0.00    +0.000 HD
ENDBRANCH  27  28
ENDBRANCH  26  27
ENDBRANCH   5  26
TORSDOF 6
ENDMDL
MODEL 9
REMARK VINA RESULT:      -6.0      4.018      5.513
REMARK  Name = 
REMARK  7 active torsions:
REMARK  status: ('A' for Active; 'I' for Inactive)
REMARK    1  A    between atoms: C_1  and  N_2
REMARK    2  A    between atoms: C_5  and  C_6
REMARK    3  A    between atoms: C_6  and  C_7
REMARK    4  A    between atoms: C_7  and  O_8
REMARK    5  A    between atoms: C_9  and  C_10
REMARK    6  A    between atoms: C_16  and  O_17
REMARK    7  A    between atoms: C_20  and  C_21
REMARK                            x       y       z     vdW  Elec       q    Type
REMARK                         _______ _______ _______ _____ _____    ______ ____
ROOT
ATOM      1  C   UNL     1      -7.509  12.285  20.414  0.00  0.00    +0.000 C 
ATOM      2  N   UNL     1      -6.064  12.468  20.457  0.00  0.00    +0.000 N 
ATOM      3  C   UNL     1      -5.520  13.144  21.539  0.00  0.00    +0.000 A 
ATOM      4  O   UNL     1      -6.210  13.582  22.461  0.00  0.00    +0.000 OA
ATOM      5  C   UNL     1      -4.034  13.343  21.584  0.00  0.00    +0.000 A 
ATOM      6  C   UNL     1      -3.241  12.814  20.621  0.00  0.00    +0.000 A 
ATOM      7  C   UNL     1      -3.863  12.092  19.483  0.00  0.00    +0.000 A 
ATOM      8  C   UNL     1      -3.068  11.570  18.442  0.00  0.00    +0.000 A 
ATOM      9  C   UNL     1      -3.634  10.926  17.327  0.00  0.00    +0.000 A 
ATOM     10  C   UNL     1      -5.023  10.804  17.263  0.00  0.00    +0.000 A 
ATOM     11  C   UNL     1      -5.824  11.308  18.290  0.00  0.00    +0.000 A 
ATOM     12  C   UNL     1      -5.257  11.953  19.408  0.00  0.00    +0.000 A 
ENDROOT
BRANCH   6  13
ATOM     13  C   UNL     1      -1.771  13.017  20.737  0.00  0.00    +0.000 A 
ATOM     14  C   UNL     1      -1.178  14.080  20.039  0.00  0.00    +0.000 A 
ATOM     15  C   UNL     1       0.201  14.274  20.107  0.00  0.00    +0.000 A 
ATOM     16 CL   UNL     1       0.923  15.574  19.243  0.00  0.00    +0.000 Cl
ATOM     17  C   UNL     1       1.000  13.420  20.866  0.00  0.00    +0.000 A 
ATOM     18  C   UNL     1       0.420  12.363  21.571  0.00  0.00    +0.000 A 
ATOM     19  C   UNL     1      -0.960  12.168  21.506  0.00  0.00    +0.000 A 
BRANCH  19  20
ATOM     20  O   UNL     1      -1.533  11.130  22.187  0.00  0.00    +0.000 OA
ATOM     21  H   UNL     1      -1.132  10.295  21.898  0.00  0.00    +0.000 HD
ENDBRANCH  19  20
ENDBRANCH   6  13
BRANCH   9  22
ATOM     22  C   UNL     1      -2.770  10.385  16.214  0.00  0.00    +0.000 C 
ATOM     23  F   UNL     1      -1.553   9.939  16.631  0.00  0.00    +0.000 F 
ATOM     24  F   UNL     1      -3.353   9.335  15.572  0.00  0.00    +0.000 F 
ATOM     25  F   UNL     1      -2.518  11.317  15.254  0.00  0.00    +0.000 F 
ENDBRANCH   9  22
BRANCH   5  26
ATOM     26  C   UNL     1      -3.555  14.239  22.724  0.00  0.00    +0.000 C 
BRANCH  26  27
ATOM     27  C   UNL     1      -3.314  13.562  24.077  0.00  0.00    +0.000 C 
BRANCH  27  28
ATOM     28  O   UNL     1      -3.720  12.199  24.052  0.00  0.00    +0.000 OA
ATOM     29  H   UNL     1      -4.591  12.163  24.482  0.00  0.00    +0.000 HD
ENDBRANCH  27  28
ENDBRANCH  26  27
ENDBRANCH   5  26
TORSDOF 6
ENDMDL
