MODEL 1
REMARK VINA RESULT:      -7.6      0.000      0.000
REMARK  Name = 
REMARK  8 active torsions:
REMARK  status: ('A' for Active; 'I' for Inactive)
REMARK    1  A    between atoms: C_1  and  C_2
REMARK    2  A    between atoms: C_2  and  C_3
REMARK    3  A    between atoms: C_2  and  C_4
REMARK    4  A    between atoms: C_4  and  C_5
REMARK    5  A    between atoms: C_5  and  N_6
REMARK    6  A    between atoms: C_5  and  C_14
REMARK    7  A    between atoms: C_7  and  C_9
REMARK    8  A    between atoms: N_16  and  N_17
REMARK                            x       y       z     vdW  Elec       q    Type
REMARK                         _______ _______ _______ _____ _____    ______ ____
ROOT
ATOM      1  C   UNL     1       6.236   3.618  15.422  0.00  0.00    +0.000 C 
ENDROOT
BRANCH   1   2
ATOM      2  N   UNL     1       5.177   3.140  16.329  0.00  0.00    +0.000 N 
ATOM      3  C   UNL     1       4.309   3.958  17.016  0.00  0.00    +0.000 C 
ATOM      4  O   UNL     1       4.200   5.164  16.822  0.00  0.00    +0.000 OA
ATOM      5  H   UNL     1       5.226   2.179  16.658  0.00  0.00    +0.000 HD
BRANCH   3   6
ATOM      6  C   UNL     1       3.359   3.259  17.993  0.00  0.00    +0.000 C 
ATOM      7  C   UNL     1       1.978   3.881  17.953  0.00  0.00    +0.000 C 
ATOM      8  C   UNL     1       1.337   3.370  19.229  0.00  0.00    +0.000 C 
ATOM      9  C   UNL     1       2.506   3.052  20.156  0.00  0.00    +0.000 C 
ATOM     10  N   UNL     1       3.726   3.407  19.417  0.00  0.00    +0.000 NA
ATOM     11  H   UNL     1       4.484   2.775  19.676  0.00  0.00    +0.000 HD
ENDBRANCH   3   6
ENDBRANCH   1   2
BRANCH   1  12
ATOM     12  C   UNL     1       7.161   4.597  16.165  0.00  0.00    +0.000 C 
ATOM     13  O   UNL     1       7.982   4.252  17.019  0.00  0.00    +0.000 OA
ATOM     14  N   UNL     1       7.040   5.928  15.809  0.00  0.00    +0.000 N 
ATOM     15  H   UNL     1       6.445   6.294  15.066  0.00  0.00    +0.000 HD
BRANCH  14  16
ATOM     16  N   UNL     1       7.852   6.835  16.506  0.00  0.00    +0.000 N 
ATOM     17  C   UNL     1       7.318   7.667  17.448  0.00  0.00    +0.000 C 
ATOM     18  N   UNL     1       8.247   8.408  18.101  0.00  0.00    +0.000 N 
ATOM     19  O   UNL     1       6.113   7.786  17.663  0.00  0.00    +0.000 OA
ATOM     20  H   UNL     1       8.844   6.619  16.493  0.00  0.00    +0.000 HD
ATOM     21  H   UNL     1       9.190   8.068  18.189  0.00  0.00    +0.000 HD
ATOM     22  H   UNL     1       7.898   8.991  18.850  0.00  0.00    +0.000 HD
ENDBRANCH  14  16
ENDBRANCH   1  12
BRANCH   1  23
ATOM     23  C   UNL     1       5.698   4.245  14.118  0.00  0.00    +0.000 C 
BRANCH  23  25
ATOM     24  C   UNL     1       4.830   3.318  11.895  0.00  0.00    +0.000 C 
ATOM     25  C   UNL     1       6.035   3.493  12.813  0.00  0.00    +0.000 C 
ATOM     26  C   UNL     1       7.152   4.240  12.072  0.00  0.00    +0.000 C 
ENDBRANCH  23  25
ENDBRANCH   1  23
TORSDOF 6
ENDMDL
MODEL 2
REMARK VINA RESULT:      -7.5      3.021      6.883
REMARK  Name = 
REMARK  8 active torsions:
REMARK  status: ('A' for Active; 'I' for Inactive)
REMARK    1  A    between atoms: C_1  and  C_2
REMARK    2  A    between atoms: C_2  and  C_3
REMARK    3  A    between atoms: C_2  and  C_4
REMARK    4  A    between atoms: C_4  and  C_5
REMARK    5  A    between atoms: C_5  and  N_6
REMARK    6  A    between atoms: C_5  and  C_14
REMARK    7  A    between atoms: C_7  and  C_9
REMARK    8  A    between atoms: N_16  and  N_17
REMARK                            x       y       z     vdW  Elec       q    Type
REMARK                         _______ _______ _______ _____ _____    ______ ____
ROOT
ATOM      1  C   UNL     1       3.656   3.307  19.174  0.00  0.00    +0.000 C 
ENDROOT
BRANCH   1   2
ATOM      2  N   UNL     1       4.276   3.832  17.944  0.00  0.00    +0.000 N 
ATOM      3  C   UNL     1       5.536   4.382  17.877  0.00  0.00    +0.000 C 
ATOM      4  O   UNL     1       6.354   4.340  18.790  0.00  0.00    +0.000 OA
ATOM      5  H   UNL     1       3.673   4.022  17.147  0.00  0.00    +0.000 HD
BRANCH   3   6
ATOM      6  C   UNL     1       5.941   4.970  16.522  0.00  0.00    +0.000 C 
ATOM      7  C   UNL     1       5.199   4.293  15.388  0.00  0.00    +0.000 C 
ATOM      8  C   UNL     1       6.009   4.687  14.168  0.00  0.00    +0.000 C 
ATOM      9  C   UNL     1       7.405   4.990  14.705  0.00  0.00    +0.000 C 
ATOM     10  N   UNL     1       7.353   4.740  16.152  0.00  0.00    +0.000 NA
ATOM     11  H   UNL     1       7.978   5.385  16.638  0.00  0.00    +0.000 HD
ENDBRANCH   3   6
ENDBRANCH   1   2
BRANCH   1  12
ATOM     12  C   UNL     1       4.149   1.874  19.439  0.00  0.00    +0.000 C 
ATOM     13  O   UNL     1       3.716   0.879  18.852  0.00  0.00    +0.000 OA
ATOM     14  N   UNL     1       5.148   1.747  20.387  0.00  0.00    +0.000 N 
ATOM     15  H   UNL     1       5.615   2.516  20.867  0.00  0.00    +0.000 HD
BRANCH  14  16
ATOM     16  N   UNL     1       5.581   0.442  20.665  0.00  0.00    +0.000 N 
ATOM     17  C   UNL     1       6.225   0.155  21.834  0.00  0.00    +0.000 C 
ATOM     18  N   UNL     1       6.486  -1.166  21.996  0.00  0.00    +0.000 N 
ATOM     19  O   UNL     1       6.588   1.000  22.650  0.00  0.00    +0.000 OA
ATOM     20  H   UNL     1       5.126  -0.285  20.120  0.00  0.00    +0.000 HD
ATOM     21  H   UNL     1       5.901  -1.853  21.549  0.00  0.00    +0.000 HD
ATOM     22  H   UNL     1       6.906  -1.427  22.879  0.00  0.00    +0.000 HD
ENDBRANCH  14  16
ENDBRANCH   1  12
BRANCH   1  23
ATOM     23  C   UNL     1       2.114   3.368  19.163  0.00  0.00    +0.000 C 
BRANCH  23  25
ATOM     24  C   UNL     1       1.892   3.165  21.706  0.00  0.00    +0.000 C 
ATOM     25  C   UNL     1       1.447   3.905  20.448  0.00  0.00    +0.000 C 
ATOM     26  C   UNL     1       1.749   5.402  20.590  0.00  0.00    +0.000 C 
ENDBRANCH  23  25
ENDBRANCH   1  23
TORSDOF 6
ENDMDL
MODEL 3
REMARK VINA RESULT:      -7.2      1.432      1.706
REMARK  Name = 
REMARK  8 active torsions:
REMARK  status: ('A' for Active; 'I' for Inactive)
REMARK    1  A    between atoms: C_1  and  C_2
REMARK    2  A    between atoms: C_2  and  C_3
REMARK    3  A    between atoms: C_2  and  C_4
REMARK    4  A    between atoms: C_4  and  C_5
REMARK    5  A    between atoms: C_5  and  N_6
REMARK    6  A    between atoms: C_5  and  C_14
REMARK    7  A    between atoms: C_7  and  C_9
REMARK    8  A    between atoms: N_16  and  N_17
REMARK                            x       y       z     vdW  Elec       q    Type
REMARK                         _______ _______ _______ _____ _____    ______ ____
ROOT
ATOM      1  C   UNL     1       5.586   4.567  15.869  0.00  0.00    +0.000 C 
ENDROOT
BRANCH   1   2
ATOM      2  N   UNL     1       4.543   4.098  16.798  0.00  0.00    +0.000 N 
ATOM      3  C   UNL     1       4.749   3.824  18.131  0.00  0.00    +0.000 C 
ATOM      4  O   UNL     1       5.776   4.104  18.740  0.00  0.00    +0.000 OA
ATOM      5  H   UNL     1       3.682   3.727  16.403  0.00  0.00    +0.000 HD
BRANCH   3   6
ATOM      6  C   UNL     1       3.554   3.238  18.889  0.00  0.00    +0.000 C 
ATOM      7  C   UNL     1       2.866   2.161  18.076  0.00  0.00    +0.000 C 
ATOM      8  C   UNL     1       1.525   2.016  18.769  0.00  0.00    +0.000 C 
ATOM      9  C   UNL     1       1.295   3.354  19.465  0.00  0.00    +0.000 C 
ATOM     10  N   UNL     1       2.454   4.195  19.133  0.00  0.00    +0.000 NA
ATOM     11  H   UNL     1       2.665   4.817  19.913  0.00  0.00    +0.000 HD
ENDBRANCH   3   6
ENDBRANCH   1   2
BRANCH   1  12
ATOM     12  C   UNL     1       5.913   6.045  16.150  0.00  0.00    +0.000 C 
ATOM     13  O   UNL     1       5.125   6.972  15.948  0.00  0.00    +0.000 OA
ATOM     14  N   UNL     1       7.168   6.295  16.673  0.00  0.00    +0.000 N 
ATOM     15  H   UNL     1       7.854   5.588  16.939  0.00  0.00    +0.000 HD
BRANCH  14  16
ATOM     16  N   UNL     1       7.492   7.641  16.899  0.00  0.00    +0.000 N 
ATOM     17  C   UNL     1       8.156   8.018  18.030  0.00  0.00    +0.000 C 
ATOM     18  N   UNL     1       8.483   9.333  18.051  0.00  0.00    +0.000 N 
ATOM     19  O   UNL     1       8.400   7.266  18.973  0.00  0.00    +0.000 OA
ATOM     20  H   UNL     1       7.484   8.227  16.071  0.00  0.00    +0.000 HD
ATOM     21  H   UNL     1       8.613   9.833  17.186  0.00  0.00    +0.000 HD
ATOM     22  H   UNL     1       9.032   9.639  18.844  0.00  0.00    +0.000 HD
ENDBRANCH  14  16
ENDBRANCH   1  12
BRANCH   1  23
ATOM     23  C   UNL     1       5.233   4.352  14.382  0.00  0.00    +0.000 C 
BRANCH  23  25
ATOM     24  C   UNL     1       5.869   3.181  12.195  0.00  0.00    +0.000 C 
ATOM     25  C   UNL     1       6.372   3.827  13.482  0.00  0.00    +0.000 C 
ATOM     26  C   UNL     1       7.327   4.980  13.149  0.00  0.00    +0.000 C 
ENDBRANCH  23  25
ENDBRANCH   1  23
TORSDOF 6
ENDMDL
MODEL 4
REMARK VINA RESULT:      -7.2      2.325      4.379
REMARK  Name = 
REMARK  8 active torsions:
REMARK  status: ('A' for Active; 'I' for Inactive)
REMARK    1  A    between atoms: C_1  and  C_2
REMARK    2  A    between atoms: C_2  and  C_3
REMARK    3  A    between atoms: C_2  and  C_4
REMARK    4  A    between atoms: C_4  and  C_5
REMARK    5  A    between atoms: C_5  and  N_6
REMARK    6  A    between atoms: C_5  and  C_14
REMARK    7  A    between atoms: C_7  and  C_9
REMARK    8  A    between atoms: N_16  and  N_17
REMARK                            x       y       z     vdW  Elec       q    Type
REMARK                         _______ _______ _______ _____ _____    ______ ____
ROOT
ATOM      1  C   UNL     1       4.514   5.157  16.834  0.00  0.00    +0.000 C 
ENDROOT
BRANCH   1   2
ATOM      2  N   UNL     1       3.989   4.324  17.930  0.00  0.00    +0.000 N 
ATOM      3  C   UNL     1       2.801   3.632  17.886  0.00  0.00    +0.000 C 
ATOM      4  O   UNL     1       2.128   3.485  16.871  0.00  0.00    +0.000 OA
ATOM      5  H   UNL     1       4.391   4.444  18.857  0.00  0.00    +0.000 HD
BRANCH   3   6
ATOM      6  C   UNL     1       2.389   2.921  19.178  0.00  0.00    +0.000 C 
ATOM      7  C   UNL     1       1.200   3.604  19.823  0.00  0.00    +0.000 C 
ATOM      8  C   UNL     1       1.214   3.050  21.235  0.00  0.00    +0.000 C 
ATOM      9  C   UNL     1       2.660   2.629  21.478  0.00  0.00    +0.000 C 
ATOM     10  N   UNL     1       3.400   2.971  20.255  0.00  0.00    +0.000 NA
ATOM     11  H   UNL     1       4.146   2.293  20.100  0.00  0.00    +0.000 HD
ENDBRANCH   3   6
ENDBRANCH   1   2
BRANCH   1  12
ATOM     12  C   UNL     1       5.391   4.304  15.900  0.00  0.00    +0.000 C 
ATOM     13  O   UNL     1       5.901   3.230  16.230  0.00  0.00    +0.000 OA
ATOM     14  N   UNL     1       5.574   4.802  14.623  0.00  0.00    +0.000 N 
ATOM     15  H   UNL     1       5.133   5.639  14.242  0.00  0.00    +0.000 HD
BRANCH  14  16
ATOM     16  N   UNL     1       6.401   4.052  13.775  0.00  0.00    +0.000 N 
ATOM     17  C   UNL     1       5.905   3.494  12.632  0.00  0.00    +0.000 C 
ATOM     18  N   UNL     1       6.851   2.889  11.872  0.00  0.00    +0.000 N 
ATOM     19  O   UNL     1       4.714   3.485  12.326  0.00  0.00    +0.000 OA
ATOM     20  H   UNL     1       7.396   4.212  13.895  0.00  0.00    +0.000 HD
ATOM     21  H   UNL     1       7.808   3.196  11.921  0.00  0.00    +0.000 HD
ATOM     22  H   UNL     1       6.534   2.518  10.985  0.00  0.00    +0.000 HD
ENDBRANCH  14  16
ENDBRANCH   1  12
BRANCH   1  23
ATOM     23  C   UNL     1       5.277   6.409  17.318  0.00  0.00    +0.000 C 
BRANCH  23  25
ATOM     24  C   UNL     1       7.580   7.512  17.508  0.00  0.00    +0.000 C 
ATOM     25  C   UNL     1       6.780   6.217  17.610  0.00  0.00    +0.000 C 
ATOM     26  C   UNL     1       6.952   5.607  19.007  0.00  0.00    +0.000 C 
ENDBRANCH  23  25
ENDBRANCH   1  23
TORSDOF 6
ENDMDL
MODEL 5
REMARK VINA RESULT:      -7.1      1.388      1.512
REMARK  Name = 
REMARK  8 active torsions:
REMARK  status: ('A' for Active; 'I' for Inactive)
REMARK    1  A    between atoms: C_1  and  C_2
REMARK    2  A    between atoms: C_2  and  C_3
REMARK    3  A    between atoms: C_2  and  C_4
REMARK    4  A    between atoms: C_4  and  C_5
REMARK    5  A    between atoms: C_5  and  N_6
REMARK    6  A    between atoms: C_5  and  C_14
REMARK    7  A    between atoms: C_7  and  C_9
REMARK    8  A    between atoms: N_16  and  N_17
REMARK                            x       y       z     vdW  Elec       q    Type
REMARK                         _______ _______ _______ _____ _____    ______ ____
ROOT
ATOM      1  C   UNL     1       5.553   3.941  15.893  0.00  0.00    +0.000 C 
ENDROOT
BRANCH   1   2
ATOM      2  N   UNL     1       4.256   4.017  16.588  0.00  0.00    +0.000 N 
ATOM      3  C   UNL     1       3.948   3.343  17.747  0.00  0.00    +0.000 C 
ATOM      4  O   UNL     1       4.769   2.741  18.431  0.00  0.00    +0.000 OA
ATOM      5  H   UNL     1       3.461   4.392  16.076  0.00  0.00    +0.000 HD
BRANCH   3   6
ATOM      6  C   UNL     1       2.503   3.475  18.238  0.00  0.00    +0.000 C 
ATOM      7  C   UNL     1       2.456   3.967  19.670  0.00  0.00    +0.000 C 
ATOM      8  C   UNL     1       1.039   3.635  20.097  0.00  0.00    +0.000 C 
ATOM      9  C   UNL     1       0.612   2.488  19.185  0.00  0.00    +0.000 C 
ATOM     10  N   UNL     1       1.766   2.196  18.323  0.00  0.00    +0.000 NA
ATOM     11  H   UNL     1       1.443   1.889  17.405  0.00  0.00    +0.000 HD
ENDBRANCH   3   6
ENDBRANCH   1   2
BRANCH   1  12
ATOM     12  C   UNL     1       6.645   4.611  16.746  0.00  0.00    +0.000 C 
ATOM     13  O   UNL     1       7.839   4.304  16.698  0.00  0.00    +0.000 OA
ATOM     14  N   UNL     1       6.216   5.622  17.587  0.00  0.00    +0.000 N 
ATOM     15  H   UNL     1       5.266   5.990  17.639  0.00  0.00    +0.000 HD
BRANCH  14  16
ATOM     16  N   UNL     1       7.195   6.216  18.397  0.00  0.00    +0.000 N 
ATOM     17  C   UNL     1       7.785   7.391  18.029  0.00  0.00    +0.000 C 
ATOM     18  N   UNL     1       8.633   7.884  18.964  0.00  0.00    +0.000 N 
ATOM     19  O   UNL     1       7.617   7.939  16.941  0.00  0.00    +0.000 OA
ATOM     20  H   UNL     1       7.201   5.901  19.362  0.00  0.00    +0.000 HD
ATOM     21  H   UNL     1       8.498   7.658  19.936  0.00  0.00    +0.000 HD
ATOM     22  H   UNL     1       9.042   8.786  18.757  0.00  0.00    +0.000 HD
ENDBRANCH  14  16
ENDBRANCH   1  12
BRANCH   1  23
ATOM     23  C   UNL     1       5.527   4.527  14.466  0.00  0.00    +0.000 C 
BRANCH  23  25
ATOM     24  C   UNL     1       5.787   3.266  12.253  0.00  0.00    +0.000 C 
ATOM     25  C   UNL     1       6.498   3.887  13.451  0.00  0.00    +0.000 C 
ATOM     26  C   UNL     1       7.500   4.944  12.971  0.00  0.00    +0.000 C 
ENDBRANCH  23  25
ENDBRANCH   1  23
TORSDOF 6
ENDMDL
MODEL 6
REMARK VINA RESULT:      -7.1      3.101      6.622
REMARK  Name = 
REMARK  8 active torsions:
REMARK  status: ('A' for Active; 'I' for Inactive)
REMARK    1  A    between atoms: C_1  and  C_2
REMARK    2  A    between atoms: C_2  and  C_3
REMARK    3  A    between atoms: C_2  and  C_4
REMARK    4  A    between atoms: C_4  and  C_5
REMARK    5  A    between atoms: C_5  and  N_6
REMARK    6  A    between atoms: C_5  and  C_14
REMARK    7  A    between atoms: C_7  and  C_9
REMARK    8  A    between atoms: N_16  and  N_17
REMARK                            x       y       z     vdW  Elec       q    Type
REMARK                         _______ _______ _______ _____ _____    ______ ____
ROOT
ATOM      1  C   UNL     1       4.184   3.671  19.977  0.00  0.00    +0.000 C 
ENDROOT
BRANCH   1   2
ATOM      2  N   UNL     1       4.957   3.621  18.722  0.00  0.00    +0.000 N 
ATOM      3  C   UNL     1       6.010   4.452  18.419  0.00  0.00    +0.000 C 
ATOM      4  O   UNL     1       6.540   5.213  19.223  0.00  0.00    +0.000 OA
ATOM      5  H   UNL     1       4.558   3.114  17.935  0.00  0.00    +0.000 HD
BRANCH   3   6
ATOM      6  C   UNL     1       6.600   4.305  17.014  0.00  0.00    +0.000 C 
ATOM      7  C   UNL     1       6.655   5.641  16.301  0.00  0.00    +0.000 C 
ATOM      8  C   UNL     1       6.850   5.245  14.850  0.00  0.00    +0.000 C 
ATOM      9  C   UNL     1       6.287   3.830  14.750  0.00  0.00    +0.000 C 
ATOM     10  N   UNL     1       5.783   3.492  16.088  0.00  0.00    +0.000 NA
ATOM     11  H   UNL     1       5.903   2.493  16.262  0.00  0.00    +0.000 HD
ENDBRANCH   3   6
ENDBRANCH   1   2
BRANCH   1  12
ATOM     12  C   UNL     1       4.291   2.324  20.713  0.00  0.00    +0.000 C 
ATOM     13  O   UNL     1       3.483   1.941  21.563  0.00  0.00    +0.000 OA
ATOM     14  N   UNL     1       5.361   1.525  20.355  0.00  0.00    +0.000 N 
ATOM     15  H   UNL     1       6.033   1.727  19.615  0.00  0.00    +0.000 HD
BRANCH  14  16
ATOM     16  N   UNL     1       5.491   0.311  21.045  0.00  0.00    +0.000 N 
ATOM     17  C   UNL     1       6.205   0.243  22.207  0.00  0.00    +0.000 C 
ATOM     18  N   UNL     1       6.150  -0.974  22.803  0.00  0.00    +0.000 N 
ATOM     19  O   UNL     1       6.882   1.165  22.659  0.00  0.00    +0.000 OA
ATOM     20  H   UNL     1       4.796  -0.391  20.810  0.00  0.00    +0.000 HD
ATOM     21  H   UNL     1       5.354  -1.572  22.652  0.00  0.00    +0.000 HD
ATOM     22  H   UNL     1       6.615  -1.047  23.699  0.00  0.00    +0.000 HD
ENDBRANCH  14  16
ENDBRANCH   1  12
BRANCH   1  23
ATOM     23  C   UNL     1       2.708   4.078  19.778  0.00  0.00    +0.000 C 
BRANCH  23  25
ATOM     24  C   UNL     1       0.764   2.569  19.070  0.00  0.00    +0.000 C 
ATOM     25  C   UNL     1       1.965   3.391  18.613  0.00  0.00    +0.000 C 
ATOM     26  C   UNL     1       1.515   4.452  17.601  0.00  0.00    +0.000 C 
ENDBRANCH  23  25
ENDBRANCH   1  23
TORSDOF 6
ENDMDL
MODEL 7
REMARK VINA RESULT:      -7.0      1.550      1.790
REMARK  Name = 
REMARK  8 active torsions:
REMARK  status: ('A' for Active; 'I' for Inactive)
REMARK    1  A    between atoms: C_1  and  C_2
REMARK    2  A    between atoms: C_2  and  C_3
REMARK    3  A    between atoms: C_2  and  C_4
REMARK    4  A    between atoms: C_4  and  C_5
REMARK    5  A    between atoms: C_5  and  N_6
REMARK    6  A    between atoms: C_5  and  C_14
REMARK    7  A    between atoms: C_7  and  C_9
REMARK    8  A    between atoms: N_16  and  N_17
REMARK                            x       y       z     vdW  Elec       q    Type
REMARK                         _______ _______ _______ _____ _____    ______ ____
ROOT
ATOM      1  C   UNL     1       5.486   4.634  15.995  0.00  0.00    +0.000 C 
ENDROOT
BRANCH   1   2
ATOM      2  N   UNL     1       4.458   4.230  16.971  0.00  0.00    +0.000 N 
ATOM      3  C   UNL     1       4.710   3.916  18.287  0.00  0.00    +0.000 C 
ATOM      4  O   UNL     1       5.787   4.103  18.845  0.00  0.00    +0.000 OA
ATOM      5  H   UNL     1       3.551   3.935  16.617  0.00  0.00    +0.000 HD
BRANCH   3   6
ATOM      6  C   UNL     1       3.514   3.410  19.099  0.00  0.00    +0.000 C 
ATOM      7  C   UNL     1       2.716   4.564  19.672  0.00  0.00    +0.000 C 
ATOM      8  C   UNL     1       1.875   3.896  20.743  0.00  0.00    +0.000 C 
ATOM      9  C   UNL     1       2.651   2.639  21.125  0.00  0.00    +0.000 C 
ATOM     10  N   UNL     1       3.875   2.647  20.312  0.00  0.00    +0.000 NA
ATOM     11  H   UNL     1       4.146   1.690  20.085  0.00  0.00    +0.000 HD
ENDBRANCH   3   6
ENDBRANCH   1   2
BRANCH   1  12
ATOM     12  C   UNL     1       5.796   6.133  16.151  0.00  0.00    +0.000 C 
ATOM     13  O   UNL     1       5.088   7.032  15.688  0.00  0.00    +0.000 OA
ATOM     14  N   UNL     1       6.935   6.441  16.872  0.00  0.00    +0.000 N 
ATOM     15  H   UNL     1       7.536   5.770  17.350  0.00  0.00    +0.000 HD
BRANCH  14  16
ATOM     16  N   UNL     1       7.248   7.803  16.989  0.00  0.00    +0.000 N 
ATOM     17  C   UNL     1       8.095   8.242  17.967  0.00  0.00    +0.000 C 
ATOM     18  N   UNL     1       8.375   9.566  17.882  0.00  0.00    +0.000 N 
ATOM     19  O   UNL     1       8.531   7.535  18.873  0.00  0.00    +0.000 OA
ATOM     20  H   UNL     1       7.071   8.356  16.157  0.00  0.00    +0.000 HD
ATOM     21  H   UNL     1       8.330  10.035  16.992  0.00  0.00    +0.000 HD
ATOM     22  H   UNL     1       9.049   9.917  18.551  0.00  0.00    +0.000 HD
ENDBRANCH  14  16
ENDBRANCH   1  12
BRANCH   1  23
ATOM     23  C   UNL     1       5.120   4.293  14.535  0.00  0.00    +0.000 C 
BRANCH  23  25
ATOM     24  C   UNL     1       5.805   3.292  12.279  0.00  0.00    +0.000 C 
ATOM     25  C   UNL     1       6.271   3.768  13.652  0.00  0.00    +0.000 C 
ATOM     26  C   UNL     1       7.329   4.868  13.489  0.00  0.00    +0.000 C 
ENDBRANCH  23  25
ENDBRANCH   1  23
TORSDOF 6
ENDMDL
MODEL 8
REMARK VINA RESULT:      -7.0      1.294      1.294
REMARK  Name = 
REMARK  8 active torsions:
REMARK  status: ('A' for Active; 'I' for Inactive)
REMARK    1  A    between atoms: C_1  and  C_2
REMARK    2  A    between atoms: C_2  and  C_3
REMARK    3  A    between atoms: C_2  and  C_4
REMARK    4  A    between atoms: C_4  and  C_5
REMARK    5  A    between atoms: C_5  and  N_6
REMARK    6  A    between atoms: C_5  and  C_14
REMARK    7  A    between atoms: C_7  and  C_9
REMARK    8  A    between atoms: N_16  and  N_17
REMARK                            x       y       z     vdW  Elec       q    Type
REMARK                         _______ _______ _______ _____ _____    ______ ____
ROOT
ATOM      1  C   UNL     1       6.268   3.774  15.165  0.00  0.00    +0.000 C 
ENDROOT
BRANCH   1   2
ATOM      2  N   UNL     1       5.518   3.124  16.254  0.00  0.00    +0.000 N 
ATOM      3  C   UNL     1       4.475   3.703  16.940  0.00  0.00    +0.000 C 
ATOM      4  O   UNL     1       3.935   4.755  16.611  0.00  0.00    +0.000 OA
ATOM      5  H   UNL     1       5.927   2.302  16.692  0.00  0.00    +0.000 HD
BRANCH   3   6
ATOM      6  C   UNL     1       3.910   2.895  18.111  0.00  0.00    +0.000 C 
ATOM      7  C   UNL     1       2.524   2.371  17.795  0.00  0.00    +0.000 C 
ATOM      8  C   UNL     1       1.985   1.989  19.161  0.00  0.00    +0.000 C 
ATOM      9  C   UNL     1       2.770   2.849  20.148  0.00  0.00    +0.000 C 
ATOM     10  N   UNL     1       3.673   3.681  19.340  0.00  0.00    +0.000 NA
ATOM     11  H   UNL     1       4.541   3.847  19.852  0.00  0.00    +0.000 HD
ENDBRANCH   3   6
ENDBRANCH   1   2
BRANCH   1  12
ATOM     12  C   UNL     1       6.979   5.031  15.695  0.00  0.00    +0.000 C 
ATOM     13  O   UNL     1       7.730   5.735  15.014  0.00  0.00    +0.000 OA
ATOM     14  N   UNL     1       6.718   5.360  17.013  0.00  0.00    +0.000 N 
ATOM     15  H   UNL     1       6.059   4.882  17.626  0.00  0.00    +0.000 HD
BRANCH  14  16
ATOM     16  N   UNL     1       7.390   6.483  17.519  0.00  0.00    +0.000 N 
ATOM     17  C   UNL     1       7.927   6.466  18.775  0.00  0.00    +0.000 C 
ATOM     18  N   UNL     1       8.628   7.587  19.075  0.00  0.00    +0.000 N 
ATOM     19  O   UNL     1       7.760   5.558  19.587  0.00  0.00    +0.000 OA
ATOM     20  H   UNL     1       7.707   7.144  16.818  0.00  0.00    +0.000 HD
ATOM     21  H   UNL     1       9.055   8.126  18.340  0.00  0.00    +0.000 HD
ATOM     22  H   UNL     1       9.096   7.587  19.973  0.00  0.00    +0.000 HD
ENDBRANCH  14  16
ENDBRANCH   1  12
BRANCH   1  23
ATOM     23  C   UNL     1       5.403   4.107  13.930  0.00  0.00    +0.000 C 
BRANCH  23  25
ATOM     24  C   UNL     1       4.571   3.320  11.640  0.00  0.00    +0.000 C 
ATOM     25  C   UNL     1       5.718   3.310  12.647  0.00  0.00    +0.000 C 
ATOM     26  C   UNL     1       6.986   3.875  11.996  0.00  0.00    +0.000 C 
ENDBRANCH  23  25
ENDBRANCH   1  23
TORSDOF 6
ENDMDL
MODEL 9
REMARK VINA RESULT:      -7.0      3.640      6.829
REMARK  Name = 
REMARK  8 active torsions:
REMARK  status: ('A' for Active; 'I' for Inactive)
REMARK    1  A    between atoms: C_1  and  C_2
REMARK    2  A    between atoms: C_2  and  C_3
REMARK    3  A    between atoms: C_2  and  C_4
REMARK    4  A    between atoms: C_4  and  C_5
REMARK    5  A    between atoms: C_5  and  N_6
REMARK    6  A    between atoms: C_5  and  C_14
REMARK    7  A    between atoms: C_7  and  C_9
REMARK    8  A    between atoms: N_16  and  N_17
REMARK                            x       y       z     vdW  Elec       q    Type
REMARK                         _______ _______ _______ _____ _____    ______ ____
ROOT
ATOM      1  C   UNL     1       2.467   5.262  19.376  0.00  0.00    +0.000 C 
ENDROOT
BRANCH   1   2
ATOM      2  N   UNL     1       3.698   5.039  18.597  0.00  0.00    +0.000 N 
ATOM      3  C   UNL     1       3.800   4.184  17.524  0.00  0.00    +0.000 C 
ATOM      4  O   UNL     1       2.842   3.642  16.983  0.00  0.00    +0.000 OA
ATOM      5  H   UNL     1       4.581   5.342  19.002  0.00  0.00    +0.000 HD
BRANCH   3   6
ATOM      6  C   UNL     1       5.201   4.017  16.929  0.00  0.00    +0.000 C 
ATOM      7  C   UNL     1       6.261   4.562  17.864  0.00  0.00    +0.000 C 
ATOM      8  C   UNL     1       7.474   4.696  16.963  0.00  0.00    +0.000 C 
ATOM      9  C   UNL     1       6.903   4.828  15.554  0.00  0.00    +0.000 C 
ATOM     10  N   UNL     1       5.441   4.797  15.697  0.00  0.00    +0.000 NA
ATOM     11  H   UNL     1       5.023   4.347  14.882  0.00  0.00    +0.000 HD
ENDBRANCH   3   6
ENDBRANCH   1   2
BRANCH   1  12
ATOM     12  C   UNL     1       2.285   6.766  19.651  0.00  0.00    +0.000 C 
ATOM     13  O   UNL     1       2.515   7.648  18.820  0.00  0.00    +0.000 OA
ATOM     14  N   UNL     1       1.819   7.096  20.911  0.00  0.00    +0.000 N 
ATOM     15  H   UNL     1       1.535   6.434  21.632  0.00  0.00    +0.000 HD
BRANCH  14  16
ATOM     16  N   UNL     1       1.685   8.465  21.185  0.00  0.00    +0.000 N 
ATOM     17  C   UNL     1       0.491   8.977  21.608  0.00  0.00    +0.000 C 
ATOM     18  N   UNL     1       0.553  10.293  21.927  0.00  0.00    +0.000 N 
ATOM     19  O   UNL     1      -0.559   8.339  21.653  0.00  0.00    +0.000 OA
ATOM     20  H   UNL     1       2.558   8.956  21.347  0.00  0.00    +0.000 HD
ATOM     21  H   UNL     1       1.423  10.697  22.232  0.00  0.00    +0.000 HD
ATOM     22  H   UNL     1      -0.296  10.695  22.305  0.00  0.00    +0.000 HD
ENDBRANCH  14  16
ENDBRANCH   1  12
BRANCH   1  23
ATOM     23  C   UNL     1       2.408   4.449  20.687  0.00  0.00    +0.000 C 
BRANCH  23  25
ATOM     24  C   UNL     1       0.782   2.848  19.526  0.00  0.00    +0.000 C 
ATOM     25  C   UNL     1       1.204   3.496  20.841  0.00  0.00    +0.000 C 
ATOM     26  C   UNL     1       1.545   2.411  21.871  0.00  0.00    +0.000 C 
ENDBRANCH  23  25
ENDBRANCH   1  23
TORSDOF 6
ENDMDL
