MODEL 1
REMARK VINA RESULT:      -6.9      0.000      0.000
REMARK  Name = 
REMARK  10 active torsions:
REMARK  status: ('A' for Active; 'I' for Inactive)
REMARK    1  A    between atoms: C_1  and  C_2
REMARK    2  A    between atoms: C_2  and  C_3
REMARK    3  A    between atoms: C_3  and  C_4
REMARK    4  A    between atoms: C_4  and  C_5
REMARK    5  A    between atoms: C_5  and  C_6
REMARK    6  A    between atoms: N_8  and  N_9
REMARK    7  A    between atoms: C_10  and  C_11
REMARK    8  A    between atoms: C_15  and  O_16
REMARK    9  A    between atoms: C_17  and  O_18
REMARK   10  A    between atoms: O_18  and  C_19
REMARK                            x       y       z     vdW  Elec       q    Type
REMARK                         _______ _______ _______ _____ _____    ______ ____
ROOT
ATOM      1  N   UNL     1       6.165   5.089  15.764  0.00  0.00    +0.000 NA
ATOM      2  C   UNL     1       5.356   5.976  16.242  0.00  0.00    +0.000 C 
ENDROOT
BRANCH   2   3
ATOM      3  C   UNL     1       4.290   5.550  17.171  0.00  0.00    +0.000 A 
ATOM      4  C   UNL     1       3.726   6.478  18.049  0.00  0.00    +0.000 A 
ATOM      5  C   UNL     1       2.721   6.075  18.920  0.00  0.00    +0.000 A 
ATOM      6 BR   UNL     1       1.975   7.365  20.097  0.00  0.00    +0.000 Br
ATOM      7  C   UNL     1       2.271   4.747  18.928  0.00  0.00    +0.000 A 
ATOM      8  C   UNL     1       2.835   3.812  18.047  0.00  0.00    +0.000 A 
ATOM      9  C   UNL     1       3.847   4.227  17.166  0.00  0.00    +0.000 A 
BRANCH   7  10
ATOM     10  O   UNL     1       1.277   4.387  19.801  0.00  0.00    +0.000 OA
ATOM     11  H   UNL     1       0.458   4.834  19.520  0.00  0.00    +0.000 HD
ENDBRANCH   7  10
BRANCH   8  12
ATOM     12  O   UNL     1       2.529   2.484  17.908  0.00  0.00    +0.000 OA
ATOM     13  C   UNL     1       3.372   1.528  18.536  0.00  0.00    +0.000 C 
ENDBRANCH   8  12
ENDBRANCH   2   3
BRANCH   1  16
ATOM     14  C   UNL     1       7.205   5.077  13.626  0.00  0.00    +0.000 C 
ATOM     15  O   UNL     1       8.107   5.458  12.882  0.00  0.00    +0.000 OA
ATOM     16  N   UNL     1       7.141   5.516  14.932  0.00  0.00    +0.000 N 
ATOM     17  H   UNL     1       7.881   6.131  15.256  0.00  0.00    +0.000 HD
BRANCH  14  18
ATOM     18  C   UNL     1       6.083   4.148  13.176  0.00  0.00    +0.000 C 
BRANCH  18  19
ATOM     19  C   UNL     1       6.552   3.155  12.118  0.00  0.00    +0.000 C 
BRANCH  19  20
ATOM     20  C   UNL     1       5.370   2.509  11.390  0.00  0.00    +0.000 C 
BRANCH  20  22
ATOM     21  C   UNL     1       3.365   3.567  10.276  0.00  0.00    +0.000 C 
ATOM     22  C   UNL     1       4.096   3.330  11.587  0.00  0.00    +0.000 C 
ENDBRANCH  20  22
ENDBRANCH  19  20
ENDBRANCH  18  19
ENDBRANCH  14  18
ENDBRANCH   1  16
TORSDOF 8
ENDMDL
MODEL 2
REMARK VINA RESULT:      -6.7      1.049      1.238
REMARK  Name = 
REMARK  10 active torsions:
REMARK  status: ('A' for Active; 'I' for Inactive)
REMARK    1  A    between atoms: C_1  and  C_2
REMARK    2  A    between atoms: C_2  and  C_3
REMARK    3  A    between atoms: C_3  and  C_4
REMARK    4  A    between atoms: C_4  and  C_5
REMARK    5  A    between atoms: C_5  and  C_6
REMARK    6  A    between atoms: N_8  and  N_9
REMARK    7  A    between atoms: C_10  and  C_11
REMARK    8  A    between atoms: C_15  and  O_16
REMARK    9  A    between atoms: C_17  and  O_18
REMARK   10  A    between atoms: O_18  and  C_19
REMARK                            x       y       z     vdW  Elec       q    Type
REMARK                         _______ _______ _______ _____ _____    ______ ____
ROOT
ATOM      1  N   UNL     1       6.300   4.874  15.176  0.00  0.00    +0.000 NA
ATOM      2  C   UNL     1       5.496   5.778  15.629  0.00  0.00    +0.000 C 
ENDROOT
BRANCH   2   3
ATOM      3  C   UNL     1       4.750   5.516  16.876  0.00  0.00    +0.000 A 
ATOM      4  C   UNL     1       3.967   6.526  17.440  0.00  0.00    +0.000 A 
ATOM      5  C   UNL     1       3.265   6.277  18.612  0.00  0.00    +0.000 A 
ATOM      6 BR   UNL     1       2.209   7.674  19.347  0.00  0.00    +0.000 Br
ATOM      7  C   UNL     1       3.336   5.023  19.236  0.00  0.00    +0.000 A 
ATOM      8  C   UNL     1       4.121   4.005  18.673  0.00  0.00    +0.000 A 
ATOM      9  C   UNL     1       4.825   4.263  17.485  0.00  0.00    +0.000 A 
BRANCH   7  10
ATOM     10  O   UNL     1       2.628   4.814  20.390  0.00  0.00    +0.000 OA
ATOM     11  H   UNL     1       2.312   3.893  20.382  0.00  0.00    +0.000 HD
ENDBRANCH   7  10
BRANCH   8  12
ATOM     12  O   UNL     1       4.312   2.729  19.130  0.00  0.00    +0.000 OA
ATOM     13  C   UNL     1       3.436   1.709  18.669  0.00  0.00    +0.000 C 
ENDBRANCH   8  12
ENDBRANCH   2   3
BRANCH   1  16
ATOM     14  C   UNL     1       6.820   4.387  12.908  0.00  0.00    +0.000 C 
ATOM     15  O   UNL     1       7.458   4.640  11.886  0.00  0.00    +0.000 OA
ATOM     16  N   UNL     1       6.982   5.155  14.042  0.00  0.00    +0.000 N 
ATOM     17  H   UNL     1       7.665   5.904  14.007  0.00  0.00    +0.000 HD
BRANCH  14  18
ATOM     18  C   UNL     1       5.791   3.266  12.998  0.00  0.00    +0.000 C 
BRANCH  18  19
ATOM     19  C   UNL     1       5.181   2.939  11.639  0.00  0.00    +0.000 C 
BRANCH  19  20
ATOM     20  C   UNL     1       3.961   3.815  11.344  0.00  0.00    +0.000 C 
BRANCH  20  22
ATOM     21  C   UNL     1       2.624   4.529   9.322  0.00  0.00    +0.000 C 
ATOM     22  C   UNL     1       3.266   3.365  10.059  0.00  0.00    +0.000 C 
ENDBRANCH  20  22
ENDBRANCH  19  20
ENDBRANCH  18  19
ENDBRANCH  14  18
ENDBRANCH   1  16
TORSDOF 8
ENDMDL
MODEL 3
REMARK VINA RESULT:      -6.7      0.869      1.183
REMARK  Name = 
REMARK  10 active torsions:
REMARK  status: ('A' for Active; 'I' for Inactive)
REMARK    1  A    between atoms: C_1  and  C_2
REMARK    2  A    between atoms: C_2  and  C_3
REMARK    3  A    between atoms: C_3  and  C_4
REMARK    4  A    between atoms: C_4  and  C_5
REMARK    5  A    between atoms: C_5  and  C_6
REMARK    6  A    between atoms: N_8  and  N_9
REMARK    7  A    between atoms: C_10  and  C_11
REMARK    8  A    between atoms: C_15  and  O_16
REMARK    9  A    between atoms: C_17  and  O_18
REMARK   10  A    between atoms: O_18  and  C_19
REMARK                            x       y       z     vdW  Elec       q    Type
REMARK                         _______ _______ _______ _____ _____    ______ ____
ROOT
ATOM      1  N   UNL     1       5.834   5.321  16.339  0.00  0.00    +0.000 NA
ATOM      2  C   UNL     1       5.034   6.182  16.876  0.00  0.00    +0.000 C 
ENDROOT
BRANCH   2   3
ATOM      3  C   UNL     1       3.966   5.705  17.778  0.00  0.00    +0.000 A 
ATOM      4  C   UNL     1       3.352   6.599  18.658  0.00  0.00    +0.000 A 
ATOM      5  C   UNL     1       2.346   6.148  19.503  0.00  0.00    +0.000 A 
ATOM      6 BR   UNL     1       1.533   7.394  20.684  0.00  0.00    +0.000 Br
ATOM      7  C   UNL     1       1.942   4.805  19.483  0.00  0.00    +0.000 A 
ATOM      8  C   UNL     1       2.556   3.904  18.600  0.00  0.00    +0.000 A 
ATOM      9  C   UNL     1       3.570   4.367  17.745  0.00  0.00    +0.000 A 
BRANCH   7  10
ATOM     10  O   UNL     1       0.946   4.398  20.331  0.00  0.00    +0.000 OA
ATOM     11  H   UNL     1       1.184   4.686  21.230  0.00  0.00    +0.000 HD
ENDBRANCH   7  10
BRANCH   8  12
ATOM     12  O   UNL     1       2.300   2.569  18.435  0.00  0.00    +0.000 OA
ATOM     13  C   UNL     1       3.401   1.673  18.372  0.00  0.00    +0.000 C 
ENDBRANCH   8  12
ENDBRANCH   2   3
BRANCH   1  16
ATOM     14  C   UNL     1       7.138   5.151  14.359  0.00  0.00    +0.000 C 
ATOM     15  O   UNL     1       8.042   5.580  13.642  0.00  0.00    +0.000 OA
ATOM     16  N   UNL     1       6.813   5.794  15.535  0.00  0.00    +0.000 N 
ATOM     17  H   UNL     1       7.367   6.603  15.796  0.00  0.00    +0.000 HD
BRANCH  14  18
ATOM     18  C   UNL     1       6.290   3.936  14.002  0.00  0.00    +0.000 C 
BRANCH  18  19
ATOM     19  C   UNL     1       6.401   3.574  12.525  0.00  0.00    +0.000 C 
BRANCH  19  20
ATOM     20  C   UNL     1       5.039   3.200  11.934  0.00  0.00    +0.000 C 
BRANCH  20  22
ATOM     21  C   UNL     1       6.519   1.302  11.165  0.00  0.00    +0.000 C 
ATOM     22  C   UNL     1       5.153   1.958  11.050  0.00  0.00    +0.000 C 
ENDBRANCH  20  22
ENDBRANCH  19  20
ENDBRANCH  18  19
ENDBRANCH  14  18
ENDBRANCH   1  16
TORSDOF 8
ENDMDL
MODEL 4
REMARK VINA RESULT:      -6.6      3.772      7.272
REMARK  Name = 
REMARK  10 active torsions:
REMARK  status: ('A' for Active; 'I' for Inactive)
REMARK    1  A    between atoms: C_1  and  C_2
REMARK    2  A    between atoms: C_2  and  C_3
REMARK    3  A    between atoms: C_3  and  C_4
REMARK    4  A    between atoms: C_4  and  C_5
REMARK    5  A    between atoms: C_5  and  C_6
REMARK    6  A    between atoms: N_8  and  N_9
REMARK    7  A    between atoms: C_10  and  C_11
REMARK    8  A    between atoms: C_15  and  O_16
REMARK    9  A    between atoms: C_17  and  O_18
REMARK   10  A    between atoms: O_18  and  C_19
REMARK                            x       y       z     vdW  Elec       q    Type
REMARK                         _______ _______ _______ _____ _____    ______ ____
ROOT
ATOM      1  N   UNL     1       4.063   3.051  19.775  0.00  0.00    +0.000 NA
ATOM      2  C   UNL     1       3.905   3.104  18.493  0.00  0.00    +0.000 C 
ENDROOT
BRANCH   2   3
ATOM      3  C   UNL     1       4.902   3.824  17.676  0.00  0.00    +0.000 A 
ATOM      4  C   UNL     1       4.965   3.594  16.300  0.00  0.00    +0.000 A 
ATOM      5  C   UNL     1       5.902   4.275  15.532  0.00  0.00    +0.000 A 
ATOM      6 BR   UNL     1       5.955   3.938  13.664  0.00  0.00    +0.000 Br
ATOM      7  C   UNL     1       6.786   5.188  16.125  0.00  0.00    +0.000 A 
ATOM      8  C   UNL     1       6.725   5.422  17.508  0.00  0.00    +0.000 A 
ATOM      9  C   UNL     1       5.773   4.733  18.277  0.00  0.00    +0.000 A 
BRANCH   7  10
ATOM     10  O   UNL     1       7.695   5.841  15.336  0.00  0.00    +0.000 OA
ATOM     11  H   UNL     1       8.487   6.015  15.876  0.00  0.00    +0.000 HD
ENDBRANCH   7  10
BRANCH   8  12
ATOM     12  O   UNL     1       7.495   6.268  18.260  0.00  0.00    +0.000 OA
ATOM     13  C   UNL     1       7.971   5.809  19.518  0.00  0.00    +0.000 C 
ENDBRANCH   8  12
ENDBRANCH   2   3
BRANCH   1  16
ATOM     14  C   UNL     1       2.310   3.013  21.380  0.00  0.00    +0.000 C 
ATOM     15  O   UNL     1       1.487   2.379  22.040  0.00  0.00    +0.000 OA
ATOM     16  N   UNL     1       3.143   2.366  20.491  0.00  0.00    +0.000 N 
ATOM     17  H   UNL     1       3.071   1.356  20.432  0.00  0.00    +0.000 HD
BRANCH  14  18
ATOM     18  C   UNL     1       2.449   4.530  21.448  0.00  0.00    +0.000 C 
BRANCH  18  19
ATOM     19  C   UNL     1       1.508   5.235  20.477  0.00  0.00    +0.000 C 
BRANCH  19  20
ATOM     20  C   UNL     1       1.853   6.720  20.338  0.00  0.00    +0.000 C 
BRANCH  20  22
ATOM     21  C   UNL     1       2.298   6.349  17.878  0.00  0.00    +0.000 C 
ATOM     22  C   UNL     1       2.819   6.946  19.175  0.00  0.00    +0.000 C 
ENDBRANCH  20  22
ENDBRANCH  19  20
ENDBRANCH  18  19
ENDBRANCH  14  18
ENDBRANCH   1  16
TORSDOF 8
ENDMDL
MODEL 5
REMARK VINA RESULT:      -6.6      3.412      7.195
REMARK  Name = 
REMARK  10 active torsions:
REMARK  status: ('A' for Active; 'I' for Inactive)
REMARK    1  A    between atoms: C_1  and  C_2
REMARK    2  A    between atoms: C_2  and  C_3
REMARK    3  A    between atoms: C_3  and  C_4
REMARK    4  A    between atoms: C_4  and  C_5
REMARK    5  A    between atoms: C_5  and  C_6
REMARK    6  A    between atoms: N_8  and  N_9
REMARK    7  A    between atoms: C_10  and  C_11
REMARK    8  A    between atoms: C_15  and  O_16
REMARK    9  A    between atoms: C_17  and  O_18
REMARK   10  A    between atoms: O_18  and  C_19
REMARK                            x       y       z     vdW  Elec       q    Type
REMARK                         _______ _______ _______ _____ _____    ______ ____
ROOT
ATOM      1  N   UNL     1       4.214   3.208  18.984  0.00  0.00    +0.000 NA
ATOM      2  C   UNL     1       4.045   3.230  17.703  0.00  0.00    +0.000 C 
ENDROOT
BRANCH   2   3
ATOM      3  C   UNL     1       5.076   3.858  16.853  0.00  0.00    +0.000 A 
ATOM      4  C   UNL     1       5.130   3.552  15.491  0.00  0.00    +0.000 A 
ATOM      5  C   UNL     1       6.100   4.146  14.693  0.00  0.00    +0.000 A 
ATOM      6 BR   UNL     1       6.141   3.709  12.846  0.00  0.00    +0.000 Br
ATOM      7  C   UNL     1       7.025   5.046  15.241  0.00  0.00    +0.000 A 
ATOM      8  C   UNL     1       6.973   5.356  16.608  0.00  0.00    +0.000 A 
ATOM      9  C   UNL     1       5.988   4.755  17.409  0.00  0.00    +0.000 A 
BRANCH   7  10
ATOM     10  O   UNL     1       7.966   5.613  14.422  0.00  0.00    +0.000 OA
ATOM     11  H   UNL     1       7.932   6.578  14.553  0.00  0.00    +0.000 HD
ENDBRANCH   7  10
BRANCH   8  12
ATOM     12  O   UNL     1       7.781   6.204  17.318  0.00  0.00    +0.000 OA
ATOM     13  C   UNL     1       7.368   7.554  17.479  0.00  0.00    +0.000 C 
ENDBRANCH   8  12
ENDBRANCH   2   3
BRANCH   1  16
ATOM     14  C   UNL     1       2.086   3.261  20.043  0.00  0.00    +0.000 C 
ATOM     15  O   UNL     1       1.230   2.713  20.737  0.00  0.00    +0.000 OA
ATOM     16  N   UNL     1       3.260   2.607  19.730  0.00  0.00    +0.000 N 
ATOM     17  H   UNL     1       3.398   1.682  20.122  0.00  0.00    +0.000 HD
BRANCH  14  18
ATOM     18  C   UNL     1       1.913   4.653  19.443  0.00  0.00    +0.000 C 
BRANCH  18  19
ATOM     19  C   UNL     1       1.875   5.737  20.515  0.00  0.00    +0.000 C 
BRANCH  19  20
ATOM     20  C   UNL     1       2.220   7.111  19.938  0.00  0.00    +0.000 C 
BRANCH  20  22
ATOM     21  C   UNL     1       2.523   8.331  17.745  0.00  0.00    +0.000 C 
ATOM     22  C   UNL     1       2.622   6.997  18.468  0.00  0.00    +0.000 C 
ENDBRANCH  20  22
ENDBRANCH  19  20
ENDBRANCH  18  19
ENDBRANCH  14  18
ENDBRANCH   1  16
TORSDOF 8
ENDMDL
MODEL 6
REMARK VINA RESULT:      -6.5      1.581      2.540
REMARK  Name = 
REMARK  10 active torsions:
REMARK  status: ('A' for Active; 'I' for Inactive)
REMARK    1  A    between atoms: C_1  and  C_2
REMARK    2  A    between atoms: C_2  and  C_3
REMARK    3  A    between atoms: C_3  and  C_4
REMARK    4  A    between atoms: C_4  and  C_5
REMARK    5  A    between atoms: C_5  and  C_6
REMARK    6  A    between atoms: N_8  and  N_9
REMARK    7  A    between atoms: C_10  and  C_11
REMARK    8  A    between atoms: C_15  and  O_16
REMARK    9  A    between atoms: C_17  and  O_18
REMARK   10  A    between atoms: O_18  and  C_19
REMARK                            x       y       z     vdW  Elec       q    Type
REMARK                         _______ _______ _______ _____ _____    ______ ____
ROOT
ATOM      1  N   UNL     1       6.009   5.254  16.035  0.00  0.00    +0.000 NA
ATOM      2  C   UNL     1       5.499   6.121  16.846  0.00  0.00    +0.000 C 
ENDROOT
BRANCH   2   3
ATOM      3  C   UNL     1       4.358   5.727  17.696  0.00  0.00    +0.000 A 
ATOM      4  C   UNL     1       4.131   4.375  17.966  0.00  0.00    +0.000 A 
ATOM      5  C   UNL     1       3.058   4.007  18.768  0.00  0.00    +0.000 A 
ATOM      6 BR   UNL     1       2.783   2.160  19.116  0.00  0.00    +0.000 Br
ATOM      7  C   UNL     1       2.200   4.977  19.306  0.00  0.00    +0.000 A 
ATOM      8  C   UNL     1       2.426   6.335  19.038  0.00  0.00    +0.000 A 
ATOM      9  C   UNL     1       3.515   6.702  18.230  0.00  0.00    +0.000 A 
BRANCH   7  10
ATOM     10  O   UNL     1       1.154   4.575  20.094  0.00  0.00    +0.000 OA
ATOM     11  H   UNL     1       0.381   5.121  19.863  0.00  0.00    +0.000 HD
ENDBRANCH   7  10
BRANCH   8  12
ATOM     12  O   UNL     1       1.706   7.417  19.471  0.00  0.00    +0.000 OA
ATOM     13  C   UNL     1       1.746   7.745  20.853  0.00  0.00    +0.000 C 
ENDBRANCH   8  12
ENDBRANCH   2   3
BRANCH   1  16
ATOM     14  C   UNL     1       7.296   5.093  14.043  0.00  0.00    +0.000 C 
ATOM     15  O   UNL     1       8.269   5.441  13.376  0.00  0.00    +0.000 OA
ATOM     16  N   UNL     1       7.065   5.644  15.287  0.00  0.00    +0.000 N 
ATOM     17  H   UNL     1       7.744   6.311  15.636  0.00  0.00    +0.000 HD
BRANCH  14  18
ATOM     18  C   UNL     1       6.260   4.087  13.552  0.00  0.00    +0.000 C 
BRANCH  18  19
ATOM     19  C   UNL     1       6.600   3.545  12.168  0.00  0.00    +0.000 C 
BRANCH  19  20
ATOM     20  C   UNL     1       5.492   2.634  11.633  0.00  0.00    +0.000 C 
BRANCH  20  22
ATOM     21  C   UNL     1       3.417   3.267  10.337  0.00  0.00    +0.000 C 
ATOM     22  C   UNL     1       4.139   3.344  11.672  0.00  0.00    +0.000 C 
ENDBRANCH  20  22
ENDBRANCH  19  20
ENDBRANCH  18  19
ENDBRANCH  14  18
ENDBRANCH   1  16
TORSDOF 8
ENDMDL
MODEL 7
REMARK VINA RESULT:      -6.4      1.938      2.955
REMARK  Name = 
REMARK  10 active torsions:
REMARK  status: ('A' for Active; 'I' for Inactive)
REMARK    1  A    between atoms: C_1  and  C_2
REMARK    2  A    between atoms: C_2  and  C_3
REMARK    3  A    between atoms: C_3  and  C_4
REMARK    4  A    between atoms: C_4  and  C_5
REMARK    5  A    between atoms: C_5  and  C_6
REMARK    6  A    between atoms: N_8  and  N_9
REMARK    7  A    between atoms: C_10  and  C_11
REMARK    8  A    between atoms: C_15  and  O_16
REMARK    9  A    between atoms: C_17  and  O_18
REMARK   10  A    between atoms: O_18  and  C_19
REMARK                            x       y       z     vdW  Elec       q    Type
REMARK                         _______ _______ _______ _____ _____    ______ ____
ROOT
ATOM      1  N   UNL     1       5.483   5.494  16.464  0.00  0.00    +0.000 NA
ATOM      2  C   UNL     1       5.372   5.751  17.726  0.00  0.00    +0.000 C 
ENDROOT
BRANCH   2   3
ATOM      3  C   UNL     1       4.127   5.381  18.428  0.00  0.00    +0.000 A 
ATOM      4  C   UNL     1       3.516   4.155  18.155  0.00  0.00    +0.000 A 
ATOM      5  C   UNL     1       2.345   3.809  18.819  0.00  0.00    +0.000 A 
ATOM      6 BR   UNL     1       1.545   2.133  18.423  0.00  0.00    +0.000 Br
ATOM      7  C   UNL     1       1.771   4.678  19.757  0.00  0.00    +0.000 A 
ATOM      8  C   UNL     1       2.382   5.910  20.035  0.00  0.00    +0.000 A 
ATOM      9  C   UNL     1       3.567   6.252  19.363  0.00  0.00    +0.000 A 
BRANCH   7  10
ATOM     10  O   UNL     1       0.617   4.301  20.393  0.00  0.00    +0.000 OA
ATOM     11  H   UNL     1       0.268   5.080  20.863  0.00  0.00    +0.000 HD
ENDBRANCH   7  10
BRANCH   8  12
ATOM     12  O   UNL     1       1.976   6.881  20.911  0.00  0.00    +0.000 OA
ATOM     13  C   UNL     1       1.377   8.058  20.384  0.00  0.00    +0.000 C 
ENDBRANCH   8  12
ENDBRANCH   2   3
BRANCH   1  16
ATOM     14  C   UNL     1       7.061   5.176  14.715  0.00  0.00    +0.000 C 
ATOM     15  O   UNL     1       8.128   5.475  14.179  0.00  0.00    +0.000 OA
ATOM     16  N   UNL     1       6.644   5.827  15.857  0.00  0.00    +0.000 N 
ATOM     17  H   UNL     1       7.264   6.528  16.250  0.00  0.00    +0.000 HD
BRANCH  14  18
ATOM     18  C   UNL     1       6.108   4.124  14.157  0.00  0.00    +0.000 C 
BRANCH  18  19
ATOM     19  C   UNL     1       6.461   3.734  12.726  0.00  0.00    +0.000 C 
BRANCH  19  20
ATOM     20  C   UNL     1       5.297   3.020  12.034  0.00  0.00    +0.000 C 
BRANCH  20  22
ATOM     21  C   UNL     1       7.253   1.805  10.993  0.00  0.00    +0.000 C 
ATOM     22  C   UNL     1       5.776   1.743  11.345  0.00  0.00    +0.000 C 
ENDBRANCH  20  22
ENDBRANCH  19  20
ENDBRANCH  18  19
ENDBRANCH  14  18
ENDBRANCH   1  16
TORSDOF 8
ENDMDL
MODEL 8
REMARK VINA RESULT:      -6.4      3.723      7.115
REMARK  Name = 
REMARK  10 active torsions:
REMARK  status: ('A' for Active; 'I' for Inactive)
REMARK    1  A    between atoms: C_1  and  C_2
REMARK    2  A    between atoms: C_2  and  C_3
REMARK    3  A    between atoms: C_3  and  C_4
REMARK    4  A    between atoms: C_4  and  C_5
REMARK    5  A    between atoms: C_5  and  C_6
REMARK    6  A    between atoms: N_8  and  N_9
REMARK    7  A    between atoms: C_10  and  C_11
REMARK    8  A    between atoms: C_15  and  O_16
REMARK    9  A    between atoms: C_17  and  O_18
REMARK   10  A    between atoms: O_18  and  C_19
REMARK                            x       y       z     vdW  Elec       q    Type
REMARK                         _______ _______ _______ _____ _____    ______ ____
ROOT
ATOM      1  N   UNL     1       4.378   3.211  19.789  0.00  0.00    +0.000 NA
ATOM      2  C   UNL     1       4.384   2.897  18.536  0.00  0.00    +0.000 C 
ENDROOT
BRANCH   2   3
ATOM      3  C   UNL     1       5.263   3.641  17.613  0.00  0.00    +0.000 A 
ATOM      4  C   UNL     1       5.153   3.435  16.236  0.00  0.00    +0.000 A 
ATOM      5  C   UNL     1       5.980   4.139  15.369  0.00  0.00    +0.000 A 
ATOM      6 BR   UNL     1       5.800   3.835  13.503  0.00  0.00    +0.000 Br
ATOM      7  C   UNL     1       6.925   5.050  15.862  0.00  0.00    +0.000 A 
ATOM      8  C   UNL     1       7.038   5.260  17.245  0.00  0.00    +0.000 A 
ATOM      9  C   UNL     1       6.196   4.549  18.116  0.00  0.00    +0.000 A 
BRANCH   7  10
ATOM     10  O   UNL     1       7.722   5.726  14.976  0.00  0.00    +0.000 OA
ATOM     11  H   UNL     1       8.005   5.096  14.290  0.00  0.00    +0.000 HD
ENDBRANCH   7  10
BRANCH   8  12
ATOM     12  O   UNL     1       7.890   6.101  17.909  0.00  0.00    +0.000 OA
ATOM     13  C   UNL     1       7.649   7.500  17.838  0.00  0.00    +0.000 C 
ENDBRANCH   8  12
ENDBRANCH   2   3
BRANCH   1  16
ATOM     14  C   UNL     1       2.602   3.113  21.366  0.00  0.00    +0.000 C 
ATOM     15  O   UNL     1       1.888   2.456  22.123  0.00  0.00    +0.000 OA
ATOM     16  N   UNL     1       3.576   2.495  20.610  0.00  0.00    +0.000 N 
ATOM     17  H   UNL     1       3.699   1.496  20.731  0.00  0.00    +0.000 HD
BRANCH  14  18
ATOM     18  C   UNL     1       2.450   4.617  21.165  0.00  0.00    +0.000 C 
BRANCH  18  19
ATOM     19  C   UNL     1       1.335   4.952  20.179  0.00  0.00    +0.000 C 
BRANCH  19  20
ATOM     20  C   UNL     1       1.896   5.456  18.847  0.00  0.00    +0.000 C 
BRANCH  20  22
ATOM     21  C   UNL     1       0.879   3.229  18.224  0.00  0.00    +0.000 C 
ATOM     22  C   UNL     1       1.551   4.492  17.713  0.00  0.00    +0.000 C 
ENDBRANCH  20  22
ENDBRANCH  19  20
ENDBRANCH  18  19
ENDBRANCH  14  18
ENDBRANCH   1  16
TORSDOF 8
ENDMDL
MODEL 9
REMARK VINA RESULT:      -6.4      3.346      7.793
REMARK  Name = 
REMARK  10 active torsions:
REMARK  status: ('A' for Active; 'I' for Inactive)
REMARK    1  A    between atoms: C_1  and  C_2
REMARK    2  A    between atoms: C_2  and  C_3
REMARK    3  A    between atoms: C_3  and  C_4
REMARK    4  A    between atoms: C_4  and  C_5
REMARK    5  A    between atoms: C_5  and  C_6
REMARK    6  A    between atoms: N_8  and  N_9
REMARK    7  A    between atoms: C_10  and  C_11
REMARK    8  A    between atoms: C_15  and  O_16
REMARK    9  A    between atoms: C_17  and  O_18
REMARK   10  A    between atoms: O_18  and  C_19
REMARK                            x       y       z     vdW  Elec       q    Type
REMARK                         _______ _______ _______ _____ _____    ______ ____
ROOT
ATOM      1  N   UNL     1       4.315   3.534  18.617  0.00  0.00    +0.000 NA
ATOM      2  C   UNL     1       4.103   3.457  17.344  0.00  0.00    +0.000 C 
ENDROOT
BRANCH   2   3
ATOM      3  C   UNL     1       5.106   4.015  16.415  0.00  0.00    +0.000 A 
ATOM      4  C   UNL     1       5.163   3.551  15.099  0.00  0.00    +0.000 A 
ATOM      5  C   UNL     1       6.105   4.080  14.225  0.00  0.00    +0.000 A 
ATOM      6 BR   UNL     1       6.150   3.427  12.443  0.00  0.00    +0.000 Br
ATOM      7  C   UNL     1       7.000   5.072  14.652  0.00  0.00    +0.000 A 
ATOM      8  C   UNL     1       6.945   5.541  15.973  0.00  0.00    +0.000 A 
ATOM      9  C   UNL     1       5.987   5.005  16.850  0.00  0.00    +0.000 A 
BRANCH   7  10
ATOM     10  O   UNL     1       7.914   5.570  13.761  0.00  0.00    +0.000 OA
ATOM     11  H   UNL     1       7.762   5.134  12.904  0.00  0.00    +0.000 HD
ENDBRANCH   7  10
BRANCH   8  12
ATOM     12  O   UNL     1       7.726   6.496  16.568  0.00  0.00    +0.000 OA
ATOM     13  C   UNL     1       7.414   6.889  17.898  0.00  0.00    +0.000 C 
ENDBRANCH   8  12
ENDBRANCH   2   3
BRANCH   1  16
ATOM     14  C   UNL     1       2.628   3.790  20.273  0.00  0.00    +0.000 C 
ATOM     15  O   UNL     1       1.797   3.289  21.030  0.00  0.00    +0.000 OA
ATOM     16  N   UNL     1       3.386   2.995  19.439  0.00  0.00    +0.000 N 
ATOM     17  H   UNL     1       3.254   1.991  19.502  0.00  0.00    +0.000 HD
BRANCH  14  18
ATOM     18  C   UNL     1       2.858   5.293  20.157  0.00  0.00    +0.000 C 
BRANCH  18  19
ATOM     19  C   UNL     1       1.663   6.095  20.663  0.00  0.00    +0.000 C 
BRANCH  19  20
ATOM     20  C   UNL     1       1.774   7.572  20.279  0.00  0.00    +0.000 C 
BRANCH  20  22
ATOM     21  C   UNL     1      -0.167   8.663  21.474  0.00  0.00    +0.000 C 
ATOM     22  C   UNL     1       1.340   8.469  21.439  0.00  0.00    +0.000 C 
ENDBRANCH  20  22
ENDBRANCH  19  20
ENDBRANCH  18  19
ENDBRANCH  14  18
ENDBRANCH   1  16
TORSDOF 8
ENDMDL
