MODEL 1
REMARK VINA RESULT:      -7.6      0.000      0.000
REMARK  Name = 
REMARK  6 active torsions:
REMARK  status: ('A' for Active; 'I' for Inactive)
REMARK    1  A    between atoms: C_1  and  C_2
REMARK    2  A    between atoms: C_2  and  C_3
REMARK    3  A    between atoms: C_3  and  N_4
REMARK    4  A    between atoms: C_8  and  C_9
REMARK    5  A    between atoms: C_11  and  C_12
REMARK    6  A    between atoms: N_14  and  C_15
REMARK                            x       y       z     vdW  Elec       q    Type
REMARK                         _______ _______ _______ _____ _____    ______ ____
ROOT
ATOM      1  N   UNL     1      -0.375  11.373  18.858  0.00  0.00    +0.000 N 
ATOM      2  C   UNL     1      -0.841  12.291  19.783  0.00  0.00    +0.000 A 
ATOM      3  N   UNL     1      -0.059  13.021  20.694  0.00  0.00    +0.000 N 
ATOM      4  N   UNL     1       1.195  13.438  20.334  0.00  0.00    +0.000 NA
ATOM      5  C   UNL     1       1.530  14.241  21.354  0.00  0.00    +0.000 A 
ATOM      6  C   UNL     1       2.755  15.064  21.428  0.00  0.00    +0.000 C 
ATOM      7  N   UNL     1       0.617  14.311  22.361  0.00  0.00    +0.000 NA
ATOM      8  C   UNL     1      -0.370  13.555  21.938  0.00  0.00    +0.000 A 
ATOM      9  N   UNL     1      -2.159  12.405  19.703  0.00  0.00    +0.000 NA
ATOM     10  C   UNL     1      -2.538  11.651  18.614  0.00  0.00    +0.000 A 
ATOM     11  C   UNL     1      -3.797  11.511  17.994  0.00  0.00    +0.000 A 
ATOM     12  C   UNL     1      -3.930  10.655  16.891  0.00  0.00    +0.000 A 
ATOM     13  C   UNL     1      -2.843   9.912  16.437  0.00  0.00    +0.000 A 
ATOM     14  C   UNL     1      -1.589  10.024  17.047  0.00  0.00    +0.000 A 
ATOM     15  C   UNL     1      -1.453  10.942  18.105  0.00  0.00    +0.000 A 
ENDROOT
BRANCH   8  16
ATOM     16  C   UNL     1      -1.548  13.188  22.614  0.00  0.00    +0.000 A 
ATOM     17  C   UNL     1      -2.511  14.088  22.864  0.00  0.00    +0.000 A 
ATOM     18  N   UNL     1      -3.637  13.760  23.591  0.00  0.00    +0.000 N 
ATOM     19  C   UNL     1      -4.611  14.777  23.935  0.00  0.00    +0.000 C 
ATOM     20  C   UNL     1      -3.860  12.464  24.055  0.00  0.00    +0.000 A 
ATOM     21  O   UNL     1      -4.812  12.147  24.763  0.00  0.00    +0.000 OA
ATOM     22  N   UNL     1      -2.921  11.537  23.700  0.00  0.00    +0.000 N 
ATOM     23  C   UNL     1      -1.683  11.833  23.200  0.00  0.00    +0.000 A 
ATOM     24  O   UNL     1      -0.760  11.034  23.254  0.00  0.00    +0.000 OA
ATOM     25  H   UNL     1      -3.033  10.625  24.111  0.00  0.00    +0.000 HD
ENDBRANCH   8  16
BRANCH   1  26
ATOM     26  C   UNL     1       0.972  10.849  18.733  0.00  0.00    +0.000 C 
BRANCH  26  28
ATOM     27  C   UNL     1       1.878   8.546  18.123  0.00  0.00    +0.000 C 
ATOM     28  C   UNL     1       1.127   9.383  19.148  0.00  0.00    +0.000 C 
ENDBRANCH  26  28
ENDBRANCH   1  26
TORSDOF 3
ENDMDL
MODEL 2
REMARK VINA RESULT:      -7.1      8.468     11.230
REMARK  Name = 
REMARK  6 active torsions:
REMARK  status: ('A' for Active; 'I' for Inactive)
REMARK    1  A    between atoms: C_1  and  C_2
REMARK    2  A    between atoms: C_2  and  C_3
REMARK    3  A    between atoms: C_3  and  N_4
REMARK    4  A    between atoms: C_8  and  C_9
REMARK    5  A    between atoms: C_11  and  C_12
REMARK    6  A    between atoms: N_14  and  C_15
REMARK                            x       y       z     vdW  Elec       q    Type
REMARK                         _______ _______ _______ _____ _____    ______ ____
ROOT
ATOM      1  N   UNL     1       3.518   3.893  17.899  0.00  0.00    +0.000 N 
ATOM      2  C   UNL     1       4.338   4.882  17.384  0.00  0.00    +0.000 A 
ATOM      3  N   UNL     1       5.242   4.737  16.317  0.00  0.00    +0.000 N 
ATOM      4  N   UNL     1       4.935   3.906  15.273  0.00  0.00    +0.000 NA
ATOM      5  C   UNL     1       5.911   4.180  14.396  0.00  0.00    +0.000 A 
ATOM      6  C   UNL     1       6.004   3.643  13.022  0.00  0.00    +0.000 C 
ATOM      7  N   UNL     1       6.848   5.067  14.830  0.00  0.00    +0.000 NA
ATOM      8  C   UNL     1       6.419   5.412  16.023  0.00  0.00    +0.000 A 
ATOM      9  N   UNL     1       4.164   6.021  18.038  0.00  0.00    +0.000 NA
ATOM     10  C   UNL     1       3.112   5.803  18.900  0.00  0.00    +0.000 A 
ATOM     11  C   UNL     1       2.423   6.698  19.744  0.00  0.00    +0.000 A 
ATOM     12  C   UNL     1       1.381   6.221  20.552  0.00  0.00    +0.000 A 
ATOM     13  C   UNL     1       1.056   4.867  20.560  0.00  0.00    +0.000 A 
ATOM     14  C   UNL     1       1.737   3.958  19.742  0.00  0.00    +0.000 A 
ATOM     15  C   UNL     1       2.730   4.464  18.883  0.00  0.00    +0.000 A 
ENDROOT
BRANCH   8  16
ATOM     16  C   UNL     1       7.042   6.239  16.975  0.00  0.00    +0.000 A 
ATOM     17  C   UNL     1       7.119   7.567  16.793  0.00  0.00    +0.000 A 
ATOM     18  N   UNL     1       7.792   8.381  17.683  0.00  0.00    +0.000 N 
ATOM     19  C   UNL     1       7.949   9.795  17.407  0.00  0.00    +0.000 C 
ATOM     20  C   UNL     1       8.377   7.875  18.842  0.00  0.00    +0.000 A 
ATOM     21  O   UNL     1       9.043   8.552  19.621  0.00  0.00    +0.000 OA
ATOM     22  N   UNL     1       8.197   6.538  19.064  0.00  0.00    +0.000 N 
ATOM     23  C   UNL     1       7.761   5.644  18.127  0.00  0.00    +0.000 A 
ATOM     24  O   UNL     1       7.971   4.445  18.235  0.00  0.00    +0.000 OA
ATOM     25  H   UNL     1       8.696   6.157  19.851  0.00  0.00    +0.000 HD
ENDBRANCH   8  16
BRANCH   1  26
ATOM     26  C   UNL     1       3.521   2.480  17.571  0.00  0.00    +0.000 C 
BRANCH  26  28
ATOM     27  C   UNL     1       4.638   2.043  19.821  0.00  0.00    +0.000 C 
ATOM     28  C   UNL     1       3.646   1.546  18.778  0.00  0.00    +0.000 C 
ENDBRANCH  26  28
ENDBRANCH   1  26
TORSDOF 3
ENDMDL
MODEL 3
REMARK VINA RESULT:      -7.0      2.931      6.485
REMARK  Name = 
REMARK  6 active torsions:
REMARK  status: ('A' for Active; 'I' for Inactive)
REMARK    1  A    between atoms: C_1  and  C_2
REMARK    2  A    between atoms: C_2  and  C_3
REMARK    3  A    between atoms: C_3  and  N_4
REMARK    4  A    between atoms: C_8  and  C_9
REMARK    5  A    between atoms: C_11  and  C_12
REMARK    6  A    between atoms: N_14  and  C_15
REMARK                            x       y       z     vdW  Elec       q    Type
REMARK                         _______ _______ _______ _____ _____    ______ ____
ROOT
ATOM      1  N   UNL     1      -5.614  11.515  19.219  0.00  0.00    +0.000 N 
ATOM      2  C   UNL     1      -4.317  11.745  18.794  0.00  0.00    +0.000 A 
ATOM      3  N   UNL     1      -3.693  11.158  17.680  0.00  0.00    +0.000 N 
ATOM      4  N   UNL     1      -4.425  10.884  16.555  0.00  0.00    +0.000 NA
ATOM      5  C   UNL     1      -3.475  10.531  15.678  0.00  0.00    +0.000 A 
ATOM      6  C   UNL     1      -3.698  10.242  14.246  0.00  0.00    +0.000 C 
ATOM      7  N   UNL     1      -2.210  10.494  16.177  0.00  0.00    +0.000 NA
ATOM      8  C   UNL     1      -2.355  10.893  17.420  0.00  0.00    +0.000 A 
ATOM      9  N   UNL     1      -3.712  12.615  19.590  0.00  0.00    +0.000 NA
ATOM     10  C   UNL     1      -4.679  13.062  20.464  0.00  0.00    +0.000 A 
ATOM     11  C   UNL     1      -4.628  14.077  21.440  0.00  0.00    +0.000 A 
ATOM     12  C   UNL     1      -5.760  14.335  22.228  0.00  0.00    +0.000 A 
ATOM     13  C   UNL     1      -6.912  13.565  22.083  0.00  0.00    +0.000 A 
ATOM     14  C   UNL     1      -6.979  12.542  21.131  0.00  0.00    +0.000 A 
ATOM     15  C   UNL     1      -5.862  12.344  20.299  0.00  0.00    +0.000 A 
ENDROOT
BRANCH   8  16
ATOM     16  C   UNL     1      -1.388  10.962  18.440  0.00  0.00    +0.000 A 
ATOM     17  C   UNL     1      -1.284   9.992  19.361  0.00  0.00    +0.000 A 
ATOM     18  N   UNL     1      -0.390  10.083  20.410  0.00  0.00    +0.000 N 
ATOM     19  C   UNL     1      -0.371   9.071  21.448  0.00  0.00    +0.000 C 
ATOM     20  C   UNL     1       0.488  11.158  20.534  0.00  0.00    +0.000 A 
ATOM     21  O   UNL     1       1.248  11.312  21.487  0.00  0.00    +0.000 OA
ATOM     22  N   UNL     1       0.441  12.083  19.529  0.00  0.00    +0.000 N 
ATOM     23  C   UNL     1      -0.564  12.183  18.608  0.00  0.00    +0.000 A 
ATOM     24  O   UNL     1      -0.768  13.216  17.987  0.00  0.00    +0.000 OA
ATOM     25  H   UNL     1       1.008  12.904  19.665  0.00  0.00    +0.000 HD
ENDBRANCH   8  16
BRANCH   1  26
ATOM     26  C   UNL     1      -6.546  10.522  18.720  0.00  0.00    +0.000 C 
BRANCH  26  28
ATOM     27  C   UNL     1      -7.618   8.977  20.441  0.00  0.00    +0.000 C 
ATOM     28  C   UNL     1      -6.487   9.173  19.442  0.00  0.00    +0.000 C 
ENDBRANCH  26  28
ENDBRANCH   1  26
TORSDOF 3
ENDMDL
MODEL 4
REMARK VINA RESULT:      -6.8      0.819      1.062
REMARK  Name = 
REMARK  6 active torsions:
REMARK  status: ('A' for Active; 'I' for Inactive)
REMARK    1  A    between atoms: C_1  and  C_2
REMARK    2  A    between atoms: C_2  and  C_3
REMARK    3  A    between atoms: C_3  and  N_4
REMARK    4  A    between atoms: C_8  and  C_9
REMARK    5  A    between atoms: C_11  and  C_12
REMARK    6  A    between atoms: N_14  and  C_15
REMARK                            x       y       z     vdW  Elec       q    Type
REMARK                         _______ _______ _______ _____ _____    ______ ____
ROOT
ATOM      1  N   UNL     1      -0.274  11.515  19.307  0.00  0.00    +0.000 N 
ATOM      2  C   UNL     1      -0.893  12.451  20.117  0.00  0.00    +0.000 A 
ATOM      3  N   UNL     1      -0.263  13.271  21.068  0.00  0.00    +0.000 N 
ATOM      4  N   UNL     1       1.001  13.742  20.831  0.00  0.00    +0.000 NA
ATOM      5  C   UNL     1       1.171  14.615  21.834  0.00  0.00    +0.000 A 
ATOM      6  C   UNL     1       2.334  15.511  22.000  0.00  0.00    +0.000 C 
ATOM      7  N   UNL     1       0.143  14.683  22.724  0.00  0.00    +0.000 NA
ATOM      8  C   UNL     1      -0.746  13.849  22.235  0.00  0.00    +0.000 A 
ATOM      9  N   UNL     1      -2.197  12.483  19.880  0.00  0.00    +0.000 NA
ATOM     10  C   UNL     1      -2.405  11.653  18.800  0.00  0.00    +0.000 A 
ATOM     11  C   UNL     1      -3.572  11.407  18.049  0.00  0.00    +0.000 A 
ATOM     12  C   UNL     1      -3.530  10.489  16.989  0.00  0.00    +0.000 A 
ATOM     13  C   UNL     1      -2.359   9.789  16.707  0.00  0.00    +0.000 A 
ATOM     14  C   UNL     1      -1.194  10.006  17.449  0.00  0.00    +0.000 A 
ATOM     15  C   UNL     1      -1.232  10.983  18.461  0.00  0.00    +0.000 A 
ENDROOT
BRANCH   8  16
ATOM     16  C   UNL     1      -1.975  13.448  22.791  0.00  0.00    +0.000 A 
ATOM     17  C   UNL     1      -2.979  14.324  22.952  0.00  0.00    +0.000 A 
ATOM     18  N   UNL     1      -4.162  13.963  23.565  0.00  0.00    +0.000 N 
ATOM     19  C   UNL     1      -5.189  14.954  23.818  0.00  0.00    +0.000 C 
ATOM     20  C   UNL     1      -4.397  12.659  23.997  0.00  0.00    +0.000 A 
ATOM     21  O   UNL     1      -5.405  12.314  24.608  0.00  0.00    +0.000 OA
ATOM     22  N   UNL     1      -3.405  11.757  23.730  0.00  0.00    +0.000 N 
ATOM     23  C   UNL     1      -2.133  12.086  23.354  0.00  0.00    +0.000 A 
ATOM     24  O   UNL     1      -1.200  11.310  23.493  0.00  0.00    +0.000 OA
ATOM     25  H   UNL     1      -3.534  10.839  24.123  0.00  0.00    +0.000 HD
ENDBRANCH   8  16
BRANCH   1  26
ATOM     26  C   UNL     1       1.104  11.066  19.367  0.00  0.00    +0.000 C 
BRANCH  26  28
ATOM     27  C   UNL     1       2.655  12.647  18.104  0.00  0.00    +0.000 C 
ATOM     28  C   UNL     1       1.914  11.317  18.092  0.00  0.00    +0.000 C 
ENDBRANCH  26  28
ENDBRANCH   1  26
TORSDOF 3
ENDMDL
MODEL 5
REMARK VINA RESULT:      -6.7      1.051      1.110
REMARK  Name = 
REMARK  6 active torsions:
REMARK  status: ('A' for Active; 'I' for Inactive)
REMARK    1  A    between atoms: C_1  and  C_2
REMARK    2  A    between atoms: C_2  and  C_3
REMARK    3  A    between atoms: C_3  and  N_4
REMARK    4  A    between atoms: C_8  and  C_9
REMARK    5  A    between atoms: C_11  and  C_12
REMARK    6  A    between atoms: N_14  and  C_15
REMARK                            x       y       z     vdW  Elec       q    Type
REMARK                         _______ _______ _______ _____ _____    ______ ____
ROOT
ATOM      1  N   UNL     1      -0.081  10.995  19.044  0.00  0.00    +0.000 N 
ATOM      2  C   UNL     1      -0.321  12.179  19.720  0.00  0.00    +0.000 A 
ATOM      3  N   UNL     1       0.592  12.867  20.537  0.00  0.00    +0.000 N 
ATOM      4  N   UNL     1       1.924  12.866  20.221  0.00  0.00    +0.000 NA
ATOM      5  C   UNL     1       2.422  13.759  21.087  0.00  0.00    +0.000 A 
ATOM      6  C   UNL     1       3.818  14.243  21.110  0.00  0.00    +0.000 C 
ATOM      7  N   UNL     1       1.523  14.273  21.971  0.00  0.00    +0.000 NA
ATOM      8  C   UNL     1       0.387  13.717  21.615  0.00  0.00    +0.000 A 
ATOM      9  N   UNL     1      -1.558  12.601  19.497  0.00  0.00    +0.000 NA
ATOM     10  C   UNL     1      -2.082  11.750  18.548  0.00  0.00    +0.000 A 
ATOM     11  C   UNL     1      -3.308  11.801  17.854  0.00  0.00    +0.000 A 
ATOM     12  C   UNL     1      -3.622  10.789  16.935  0.00  0.00    +0.000 A 
ATOM     13  C   UNL     1      -2.756   9.716  16.741  0.00  0.00    +0.000 A 
ATOM     14  C   UNL     1      -1.541   9.638  17.431  0.00  0.00    +0.000 A 
ATOM     15  C   UNL     1      -1.206  10.698  18.294  0.00  0.00    +0.000 A 
ENDROOT
BRANCH   8  16
ATOM     16  C   UNL     1      -0.871  13.814  22.238  0.00  0.00    +0.000 A 
ATOM     17  C   UNL     1      -1.552  14.970  22.244  0.00  0.00    +0.000 A 
ATOM     18  N   UNL     1      -2.752  15.099  22.915  0.00  0.00    +0.000 N 
ATOM     19  C   UNL     1      -3.414  16.387  22.992  0.00  0.00    +0.000 C 
ATOM     20  C   UNL     1      -3.345  14.023  23.572  0.00  0.00    +0.000 A 
ATOM     21  O   UNL     1      -4.373  14.113  24.238  0.00  0.00    +0.000 OA
ATOM     22  N   UNL     1      -2.690  12.828  23.466  0.00  0.00    +0.000 N 
ATOM     23  C   UNL     1      -1.401  12.681  23.034  0.00  0.00    +0.000 A 
ATOM     24  O   UNL     1      -0.741  11.690  23.306  0.00  0.00    +0.000 OA
ATOM     25  H   UNL     1      -3.068  12.074  24.016  0.00  0.00    +0.000 HD
ENDBRANCH   8  16
BRANCH   1  26
ATOM     26  C   UNL     1       1.081  10.134  19.151  0.00  0.00    +0.000 C 
BRANCH  26  28
ATOM     27  C   UNL     1       2.435   8.502  17.737  0.00  0.00    +0.000 C 
ATOM     28  C   UNL     1       1.818   9.890  17.831  0.00  0.00    +0.000 C 
ENDBRANCH  26  28
ENDBRANCH   1  26
TORSDOF 3
ENDMDL
MODEL 6
REMARK VINA RESULT:      -6.7      2.233      5.069
REMARK  Name = 
REMARK  6 active torsions:
REMARK  status: ('A' for Active; 'I' for Inactive)
REMARK    1  A    between atoms: C_1  and  C_2
REMARK    2  A    between atoms: C_2  and  C_3
REMARK    3  A    between atoms: C_3  and  N_4
REMARK    4  A    between atoms: C_8  and  C_9
REMARK    5  A    between atoms: C_11  and  C_12
REMARK    6  A    between atoms: N_14  and  C_15
REMARK                            x       y       z     vdW  Elec       q    Type
REMARK                         _______ _______ _______ _____ _____    ______ ____
ROOT
ATOM      1  N   UNL     1      -4.267  12.126  19.162  0.00  0.00    +0.000 N 
ATOM      2  C   UNL     1      -3.132  12.214  19.948  0.00  0.00    +0.000 A 
ATOM      3  N   UNL     1      -3.080  12.646  21.285  0.00  0.00    +0.000 N 
ATOM      4  N   UNL     1      -4.117  12.361  22.133  0.00  0.00    +0.000 NA
ATOM      5  C   UNL     1      -3.627  12.747  23.320  0.00  0.00    +0.000 A 
ATOM      6  C   UNL     1      -4.293  12.555  24.624  0.00  0.00    +0.000 C 
ATOM      7  N   UNL     1      -2.391  13.316  23.279  0.00  0.00    +0.000 NA
ATOM      8  C   UNL     1      -2.058  13.241  22.011  0.00  0.00    +0.000 A 
ATOM      9  N   UNL     1      -2.062  11.829  19.268  0.00  0.00    +0.000 NA
ATOM     10  C   UNL     1      -2.532  11.351  18.065  0.00  0.00    +0.000 A 
ATOM     11  C   UNL     1      -1.853  10.705  17.011  0.00  0.00    +0.000 A 
ATOM     12  C   UNL     1      -2.564  10.324  15.864  0.00  0.00    +0.000 A 
ATOM     13  C   UNL     1      -3.920  10.620  15.741  0.00  0.00    +0.000 A 
ATOM     14  C   UNL     1      -4.609  11.274  16.768  0.00  0.00    +0.000 A 
ATOM     15  C   UNL     1      -3.899  11.584  17.943  0.00  0.00    +0.000 A 
ENDROOT
BRANCH   8  16
ATOM     16  C   UNL     1      -0.916  13.759  21.371  0.00  0.00    +0.000 A 
ATOM     17  C   UNL     1      -0.987  14.873  20.626  0.00  0.00    +0.000 A 
ATOM     18  N   UNL     1       0.108  15.349  19.932  0.00  0.00    +0.000 N 
ATOM     19  C   UNL     1      -0.023  16.494  19.053  0.00  0.00    +0.000 C 
ATOM     20  C   UNL     1       1.355  14.732  20.014  0.00  0.00    +0.000 A 
ATOM     21  O   UNL     1       2.334  15.082  19.360  0.00  0.00    +0.000 OA
ATOM     22  N   UNL     1       1.433  13.662  20.861  0.00  0.00    +0.000 N 
ATOM     23  C   UNL     1       0.357  12.999  21.381  0.00  0.00    +0.000 A 
ATOM     24  O   UNL     1       0.448  11.857  21.805  0.00  0.00    +0.000 OA
ATOM     25  H   UNL     1       2.307  13.161  20.851  0.00  0.00    +0.000 HD
ENDBRANCH   8  16
BRANCH   1  26
ATOM     26  C   UNL     1      -5.602  12.600  19.477  0.00  0.00    +0.000 C 
BRANCH  26  28
ATOM     27  C   UNL     1      -7.537  11.817  20.940  0.00  0.00    +0.000 C 
ATOM     28  C   UNL     1      -6.619  11.494  19.770  0.00  0.00    +0.000 C 
ENDBRANCH  26  28
ENDBRANCH   1  26
TORSDOF 3
ENDMDL
MODEL 7
REMARK VINA RESULT:      -6.5      1.873      2.442
REMARK  Name = 
REMARK  6 active torsions:
REMARK  status: ('A' for Active; 'I' for Inactive)
REMARK    1  A    between atoms: C_1  and  C_2
REMARK    2  A    between atoms: C_2  and  C_3
REMARK    3  A    between atoms: C_3  and  N_4
REMARK    4  A    between atoms: C_8  and  C_9
REMARK    5  A    between atoms: C_11  and  C_12
REMARK    6  A    between atoms: N_14  and  C_15
REMARK                            x       y       z     vdW  Elec       q    Type
REMARK                         _______ _______ _______ _____ _____    ______ ____
ROOT
ATOM      1  N   UNL     1      -1.702  11.904  19.903  0.00  0.00    +0.000 N 
ATOM      2  C   UNL     1      -2.517  12.827  20.536  0.00  0.00    +0.000 A 
ATOM      3  N   UNL     1      -2.140  13.686  21.583  0.00  0.00    +0.000 N 
ATOM      4  N   UNL     1      -0.872  14.202  21.617  0.00  0.00    +0.000 NA
ATOM      5  C   UNL     1      -0.957  15.096  22.612  0.00  0.00    +0.000 A 
ATOM      6  C   UNL     1       0.109  16.039  23.008  0.00  0.00    +0.000 C 
ATOM      7  N   UNL     1      -2.156  15.136  23.254  0.00  0.00    +0.000 NA
ATOM      8  C   UNL     1      -2.886  14.261  22.601  0.00  0.00    +0.000 A 
ATOM      9  N   UNL     1      -3.737  12.804  20.019  0.00  0.00    +0.000 NA
ATOM     10  C   UNL     1      -3.673  11.951  18.939  0.00  0.00    +0.000 A 
ATOM     11  C   UNL     1      -4.638  11.648  17.957  0.00  0.00    +0.000 A 
ATOM     12  C   UNL     1      -4.332  10.717  16.954  0.00  0.00    +0.000 A 
ATOM     13  C   UNL     1      -3.104  10.059  16.950  0.00  0.00    +0.000 A 
ATOM     14  C   UNL     1      -2.139  10.332  17.925  0.00  0.00    +0.000 A 
ATOM     15  C   UNL     1      -2.432  11.322  18.881  0.00  0.00    +0.000 A 
ENDROOT
BRANCH   8  16
ATOM     16  C   UNL     1      -4.193  13.822  22.885  0.00  0.00    +0.000 A 
ATOM     17  C   UNL     1      -5.260  14.558  22.540  0.00  0.00    +0.000 A 
ATOM     18  N   UNL     1      -6.543  14.175  22.878  0.00  0.00    +0.000 N 
ATOM     19  C   UNL     1      -7.668  15.040  22.583  0.00  0.00    +0.000 C 
ATOM     20  C   UNL     1      -6.800  12.978  23.545  0.00  0.00    +0.000 A 
ATOM     21  O   UNL     1      -7.916  12.635  23.925  0.00  0.00    +0.000 OA
ATOM     22  N   UNL     1      -5.710  12.191  23.794  0.00  0.00    +0.000 N 
ATOM     23  C   UNL     1      -4.412  12.608  23.708  0.00  0.00    +0.000 A 
ATOM     24  O   UNL     1      -3.509  12.023  24.287  0.00  0.00    +0.000 OA
ATOM     25  H   UNL     1      -5.884  11.374  24.355  0.00  0.00    +0.000 HD
ENDBRANCH   8  16
BRANCH   1  26
ATOM     26  C   UNL     1      -0.356  11.510  20.274  0.00  0.00    +0.000 C 
BRANCH  26  28
ATOM     27  C   UNL     1       0.763   9.219  20.302  0.00  0.00    +0.000 C 
ATOM     28  C   UNL     1      -0.258  10.141  20.954  0.00  0.00    +0.000 C 
ENDBRANCH  26  28
ENDBRANCH   1  26
TORSDOF 3
ENDMDL
MODEL 8
REMARK VINA RESULT:      -6.3      2.024      4.577
REMARK  Name = 
REMARK  6 active torsions:
REMARK  status: ('A' for Active; 'I' for Inactive)
REMARK    1  A    between atoms: C_1  and  C_2
REMARK    2  A    between atoms: C_2  and  C_3
REMARK    3  A    between atoms: C_3  and  N_4
REMARK    4  A    between atoms: C_8  and  C_9
REMARK    5  A    between atoms: C_11  and  C_12
REMARK    6  A    between atoms: N_14  and  C_15
REMARK                            x       y       z     vdW  Elec       q    Type
REMARK                         _______ _______ _______ _____ _____    ______ ____
ROOT
ATOM      1  N   UNL     1      -1.659  11.033  18.343  0.00  0.00    +0.000 N 
ATOM      2  C   UNL     1      -2.251  11.487  19.509  0.00  0.00    +0.000 A 
ATOM      3  N   UNL     1      -3.475  12.171  19.606  0.00  0.00    +0.000 N 
ATOM      4  N   UNL     1      -4.497  11.863  18.748  0.00  0.00    +0.000 NA
ATOM      5  C   UNL     1      -5.520  12.558  19.265  0.00  0.00    +0.000 A 
ATOM      6  C   UNL     1      -6.919  12.498  18.794  0.00  0.00    +0.000 C 
ATOM      7  N   UNL     1      -5.209  13.333  20.340  0.00  0.00    +0.000 NA
ATOM      8  C   UNL     1      -3.938  13.079  20.547  0.00  0.00    +0.000 A 
ATOM      9  N   UNL     1      -1.501  11.188  20.560  0.00  0.00    +0.000 NA
ATOM     10  C   UNL     1      -0.474  10.405  20.080  0.00  0.00    +0.000 A 
ATOM     11  C   UNL     1       0.541   9.709  20.767  0.00  0.00    +0.000 A 
ATOM     12  C   UNL     1       1.496   8.984  20.039  0.00  0.00    +0.000 A 
ATOM     13  C   UNL     1       1.474   8.987  18.646  0.00  0.00    +0.000 A 
ATOM     14  C   UNL     1       0.485   9.684  17.943  0.00  0.00    +0.000 A 
ATOM     15  C   UNL     1      -0.509  10.345  18.689  0.00  0.00    +0.000 A 
ENDROOT
BRANCH   8  16
ATOM     16  C   UNL     1      -3.065  13.671  21.479  0.00  0.00    +0.000 A 
ATOM     17  C   UNL     1      -2.188  14.615  21.102  0.00  0.00    +0.000 A 
ATOM     18  N   UNL     1      -1.276  15.150  21.990  0.00  0.00    +0.000 N 
ATOM     19  C   UNL     1      -0.273  16.091  21.532  0.00  0.00    +0.000 C 
ATOM     20  C   UNL     1      -1.254  14.780  23.334  0.00  0.00    +0.000 A 
ATOM     21  O   UNL     1      -0.416  15.179  24.138  0.00  0.00    +0.000 OA
ATOM     22  N   UNL     1      -2.223  13.897  23.722  0.00  0.00    +0.000 N 
ATOM     23  C   UNL     1      -2.990  13.156  22.867  0.00  0.00    +0.000 A 
ATOM     24  O   UNL     1      -3.553  12.134  23.230  0.00  0.00    +0.000 OA
ATOM     25  H   UNL     1      -2.151  13.560  24.668  0.00  0.00    +0.000 HD
ENDBRANCH   8  16
BRANCH   1  26
ATOM     26  C   UNL     1      -2.075  11.295  16.978  0.00  0.00    +0.000 C 
BRANCH  26  28
ATOM     27  C   UNL     1      -3.052  10.386  14.806  0.00  0.00    +0.000 C 
ATOM     28  C   UNL     1      -2.650  10.081  16.242  0.00  0.00    +0.000 C 
ENDBRANCH  26  28
ENDBRANCH   1  26
TORSDOF 3
ENDMDL
MODEL 9
REMARK VINA RESULT:      -6.3      2.483      5.313
REMARK  Name = 
REMARK  6 active torsions:
REMARK  status: ('A' for Active; 'I' for Inactive)
REMARK    1  A    between atoms: C_1  and  C_2
REMARK    2  A    between atoms: C_2  and  C_3
REMARK    3  A    between atoms: C_3  and  N_4
REMARK    4  A    between atoms: C_8  and  C_9
REMARK    5  A    between atoms: C_11  and  C_12
REMARK    6  A    between atoms: N_14  and  C_15
REMARK                            x       y       z     vdW  Elec       q    Type
REMARK                         _______ _______ _______ _____ _____    ______ ____
ROOT
ATOM      1  N   UNL     1      -4.360  12.088  19.148  0.00  0.00    +0.000 N 
ATOM      2  C   UNL     1      -3.212  12.281  19.897  0.00  0.00    +0.000 A 
ATOM      3  N   UNL     1      -3.156  12.726  21.229  0.00  0.00    +0.000 N 
ATOM      4  N   UNL     1      -4.136  12.357  22.112  0.00  0.00    +0.000 NA
ATOM      5  C   UNL     1      -3.645  12.794  23.280  0.00  0.00    +0.000 A 
ATOM      6  C   UNL     1      -4.250  12.553  24.606  0.00  0.00    +0.000 C 
ATOM      7  N   UNL     1      -2.466  13.469  23.196  0.00  0.00    +0.000 NA
ATOM      8  C   UNL     1      -2.168  13.414  21.918  0.00  0.00    +0.000 A 
ATOM      9  N   UNL     1      -2.135  11.986  19.184  0.00  0.00    +0.000 NA
ATOM     10  C   UNL     1      -2.599  11.460  17.999  0.00  0.00    +0.000 A 
ATOM     11  C   UNL     1      -1.900  10.869  16.927  0.00  0.00    +0.000 A 
ATOM     12  C   UNL     1      -2.611  10.418  15.805  0.00  0.00    +0.000 A 
ATOM     13  C   UNL     1      -3.990  10.593  15.725  0.00  0.00    +0.000 A 
ATOM     14  C   UNL     1      -4.702  11.191  16.770  0.00  0.00    +0.000 A 
ATOM     15  C   UNL     1      -3.985  11.571  17.920  0.00  0.00    +0.000 A 
ENDROOT
BRANCH   8  16
ATOM     16  C   UNL     1      -1.097  14.026  21.239  0.00  0.00    +0.000 A 
ATOM     17  C   UNL     1       0.150  13.541  21.337  0.00  0.00    +0.000 A 
ATOM     18  N   UNL     1       1.221  14.174  20.737  0.00  0.00    +0.000 N 
ATOM     19  C   UNL     1       2.571  13.688  20.946  0.00  0.00    +0.000 C 
ATOM     20  C   UNL     1       1.055  15.315  19.954  0.00  0.00    +0.000 A 
ATOM     21  O   UNL     1       1.986  15.946  19.462  0.00  0.00    +0.000 OA
ATOM     22  N   UNL     1      -0.236  15.732  19.778  0.00  0.00    +0.000 N 
ATOM     23  C   UNL     1      -1.300  15.308  20.524  0.00  0.00    +0.000 A 
ATOM     24  O   UNL     1      -2.332  15.958  20.599  0.00  0.00    +0.000 OA
ATOM     25  H   UNL     1      -0.348  16.605  19.290  0.00  0.00    +0.000 HD
ENDBRANCH   8  16
BRANCH   1  26
ATOM     26  C   UNL     1      -5.720  12.445  19.504  0.00  0.00    +0.000 C 
BRANCH  26  28
ATOM     27  C   UNL     1      -7.585  11.526  20.980  0.00  0.00    +0.000 C 
ATOM     28  C   UNL     1      -6.628  11.255  19.828  0.00  0.00    +0.000 C 
ENDBRANCH  26  28
ENDBRANCH   1  26
TORSDOF 3
ENDMDL
