MODEL 1
REMARK VINA RESULT:      -8.1      0.000      0.000
REMARK  Name = 
REMARK  6 active torsions:
REMARK  status: ('A' for Active; 'I' for Inactive)
REMARK    1  A    between atoms: C_1  and  C_2
REMARK    2  A    between atoms: N_6  and  C_7
REMARK    3  A    between atoms: C_7  and  C_8
REMARK    4  A    between atoms: C_8  and  C_9
REMARK    5  A    between atoms: C_9  and  C_10
REMARK    6  A    between atoms: C_9  and  C_13
REMARK                            x       y       z     vdW  Elec       q    Type
REMARK                         _______ _______ _______ _____ _____    ______ ____
ROOT
ATOM      1  C   UNL     1       4.730   4.666  18.557  0.00  0.00    +0.000 C 
ATOM      2  C   UNL     1       3.558   5.263  19.327  0.00  0.00    +0.000 A 
ATOM      3  C   UNL     1       3.117   4.555  20.472  0.00  0.00    +0.000 A 
ATOM      4  C   UNL     1       1.990   4.950  21.191  0.00  0.00    +0.000 A 
ATOM      5  C   UNL     1       1.290   6.076  20.795  0.00  0.00    +0.000 A 
ATOM      6  C   UNL     1       1.744   6.821  19.708  0.00  0.00    +0.000 A 
ATOM      7  C   UNL     1       2.883   6.443  18.959  0.00  0.00    +0.000 A 
ATOM      8  C   UNL     1       3.290   7.436  17.886  0.00  0.00    +0.000 C 
ATOM      9  C   UNL     1       4.429   7.174  16.900  0.00  0.00    +0.000 C 
ATOM     10  C   UNL     1       5.731   6.830  17.569  0.00  0.00    +0.000 A 
ATOM     11  C   UNL     1       6.830   7.684  17.377  0.00  0.00    +0.000 A 
ATOM     12  C   UNL     1       8.044   7.442  18.014  0.00  0.00    +0.000 A 
ATOM     13  C   UNL     1       8.173   6.345  18.855  0.00  0.00    +0.000 A 
ATOM     14  C   UNL     1       7.096   5.473  19.039  0.00  0.00    +0.000 A 
ATOM     15  C   UNL     1       5.866   5.691  18.382  0.00  0.00    +0.000 A 
ENDROOT
BRANCH   1  16
ATOM     16  C   UNL     1       4.295   3.945  17.233  0.00  0.00    +0.000 C 
BRANCH  16  17
ATOM     17  C   UNL     1       3.466   2.674  17.440  0.00  0.00    +0.000 C 
ATOM     18  N   UNL     1       4.072   1.559  17.931  0.00  0.00    +0.000 N 
ATOM     19  O   UNL     1       2.296   2.601  17.085  0.00  0.00    +0.000 OA
ATOM     20  H   UNL     1       4.965   1.572  18.396  0.00  0.00    +0.000 HD
ATOM     21  H   UNL     1       3.472   0.754  18.067  0.00  0.00    +0.000 HD
ENDBRANCH  16  17
BRANCH  16  22
ATOM     22  C   UNL     1       5.521   3.675  16.333  0.00  0.00    +0.000 C 
BRANCH  22  23
ATOM     23  C   UNL     1       5.199   3.329  14.879  0.00  0.00    +0.000 C 
BRANCH  23  29
ATOM     24  C   UNL     1       5.621   2.728  11.776  0.00  0.00    +0.000 C 
ATOM     25  C   UNL     1       6.369   3.695  12.621  0.00  0.00    +0.000 A 
ATOM     26  N   UNL     1       7.342   4.460  12.163  0.00  0.00    +0.000 NA
ATOM     27  C   UNL     1       7.789   5.191  13.228  0.00  0.00    +0.000 A 
ATOM     28  C   UNL     1       7.077   4.878  14.355  0.00  0.00    +0.000 A 
ATOM     29  N   UNL     1       6.170   3.926  13.968  0.00  0.00    +0.000 N 
ENDBRANCH  23  29
ENDBRANCH  22  23
ENDBRANCH  16  22
ENDBRANCH   1  16
TORSDOF 5
ENDMDL
MODEL 2
REMARK VINA RESULT:      -7.6      0.543      1.211
REMARK  Name = 
REMARK  6 active torsions:
REMARK  status: ('A' for Active; 'I' for Inactive)
REMARK    1  A    between atoms: C_1  and  C_2
REMARK    2  A    between atoms: N_6  and  C_7
REMARK    3  A    between atoms: C_7  and  C_8
REMARK    4  A    between atoms: C_8  and  C_9
REMARK    5  A    between atoms: C_9  and  C_10
REMARK    6  A    between atoms: C_9  and  C_13
REMARK                            x       y       z     vdW  Elec       q    Type
REMARK                         _______ _______ _______ _____ _____    ______ ____
ROOT
ATOM      1  C   UNL     1       4.877   4.713  18.392  0.00  0.00    +0.000 C 
ATOM      2  C   UNL     1       3.704   5.159  19.255  0.00  0.00    +0.000 A 
ATOM      3  C   UNL     1       3.364   4.329  20.352  0.00  0.00    +0.000 A 
ATOM      4  C   UNL     1       2.247   4.582  21.146  0.00  0.00    +0.000 A 
ATOM      5  C   UNL     1       1.454   5.684  20.877  0.00  0.00    +0.000 A 
ATOM      6  C   UNL     1       1.807   6.547  19.840  0.00  0.00    +0.000 A 
ATOM      7  C   UNL     1       2.934   6.314  19.018  0.00  0.00    +0.000 A 
ATOM      8  C   UNL     1       3.224   7.419  18.018  0.00  0.00    +0.000 C 
ATOM      9  C   UNL     1       4.331   7.322  16.969  0.00  0.00    +0.000 C 
ATOM     10  C   UNL     1       5.683   7.017  17.553  0.00  0.00    +0.000 A 
ATOM     11  C   UNL     1       6.711   7.961  17.392  0.00  0.00    +0.000 A 
ATOM     12  C   UNL     1       7.967   7.754  17.957  0.00  0.00    +0.000 A 
ATOM     13  C   UNL     1       8.208   6.603  18.696  0.00  0.00    +0.000 A 
ATOM     14  C   UNL     1       7.202   5.645  18.847  0.00  0.00    +0.000 A 
ATOM     15  C   UNL     1       5.932   5.828  18.260  0.00  0.00    +0.000 A 
ENDROOT
BRANCH   1  16
ATOM     16  C   UNL     1       4.433   4.075  17.029  0.00  0.00    +0.000 C 
BRANCH  16  17
ATOM     17  C   UNL     1       3.434   2.920  17.160  0.00  0.00    +0.000 C 
ATOM     18  N   UNL     1       3.850   1.740  17.692  0.00  0.00    +0.000 N 
ATOM     19  O   UNL     1       2.297   2.996  16.709  0.00  0.00    +0.000 OA
ATOM     20  H   UNL     1       4.697   1.641  18.229  0.00  0.00    +0.000 HD
ATOM     21  H   UNL     1       3.144   1.018  17.774  0.00  0.00    +0.000 HD
ENDBRANCH  16  17
BRANCH  16  22
ATOM     22  C   UNL     1       5.665   3.659  16.196  0.00  0.00    +0.000 C 
BRANCH  22  23
ATOM     23  C   UNL     1       6.215   4.738  15.262  0.00  0.00    +0.000 C 
BRANCH  23  29
ATOM     24  C   UNL     1       8.297   5.579  12.999  0.00  0.00    +0.000 C 
ATOM     25  C   UNL     1       7.196   4.588  12.892  0.00  0.00    +0.000 A 
ATOM     26  N   UNL     1       6.939   3.901  11.794  0.00  0.00    +0.000 NA
ATOM     27  C   UNL     1       5.857   3.116  12.076  0.00  0.00    +0.000 A 
ATOM     28  C   UNL     1       5.446   3.315  13.368  0.00  0.00    +0.000 A 
ATOM     29  N   UNL     1       6.301   4.251  13.889  0.00  0.00    +0.000 N 
ENDBRANCH  23  29
ENDBRANCH  22  23
ENDBRANCH  16  22
ENDBRANCH   1  16
TORSDOF 5
ENDMDL
MODEL 3
REMARK VINA RESULT:      -6.9      2.288      4.719
REMARK  Name = 
REMARK  6 active torsions:
REMARK  status: ('A' for Active; 'I' for Inactive)
REMARK    1  A    between atoms: C_1  and  C_2
REMARK    2  A    between atoms: N_6  and  C_7
REMARK    3  A    between atoms: C_7  and  C_8
REMARK    4  A    between atoms: C_8  and  C_9
REMARK    5  A    between atoms: C_9  and  C_10
REMARK    6  A    between atoms: C_9  and  C_13
REMARK                            x       y       z     vdW  Elec       q    Type
REMARK                         _______ _______ _______ _____ _____    ______ ____
ROOT
ATOM      1  C   UNL     1       2.727   6.097  18.085  0.00  0.00    +0.000 C 
ATOM      2  C   UNL     1       2.046   7.386  18.528  0.00  0.00    +0.000 A 
ATOM      3  C   UNL     1       1.671   8.295  17.509  0.00  0.00    +0.000 A 
ATOM      4  C   UNL     1       1.137   9.549  17.803  0.00  0.00    +0.000 A 
ATOM      5  C   UNL     1       0.945   9.915  19.124  0.00  0.00    +0.000 A 
ATOM      6  C   UNL     1       1.252   9.010  20.139  0.00  0.00    +0.000 A 
ATOM      7  C   UNL     1       1.795   7.733  19.870  0.00  0.00    +0.000 A 
ATOM      8  C   UNL     1       1.956   6.846  21.091  0.00  0.00    +0.000 C 
ATOM      9  C   UNL     1       2.617   5.468  21.037  0.00  0.00    +0.000 C 
ATOM     10  C   UNL     1       2.001   4.549  20.019  0.00  0.00    +0.000 A 
ATOM     11  C   UNL     1       1.400   3.361  20.464  0.00  0.00    +0.000 A 
ATOM     12  C   UNL     1       0.769   2.500  19.570  0.00  0.00    +0.000 A 
ATOM     13  C   UNL     1       0.727   2.819  18.220  0.00  0.00    +0.000 A 
ATOM     14  C   UNL     1       1.339   3.987  17.758  0.00  0.00    +0.000 A 
ATOM     15  C   UNL     1       2.004   4.858  18.647  0.00  0.00    +0.000 A 
ENDROOT
BRANCH   1  16
ATOM     16  C   UNL     1       4.278   6.106  18.320  0.00  0.00    +0.000 C 
BRANCH  16  17
ATOM     17  C   UNL     1       5.069   6.967  17.329  0.00  0.00    +0.000 C 
ATOM     18  N   UNL     1       6.256   7.506  17.719  0.00  0.00    +0.000 N 
ATOM     19  O   UNL     1       4.619   7.264  16.229  0.00  0.00    +0.000 OA
ATOM     20  H   UNL     1       6.772   7.187  18.523  0.00  0.00    +0.000 HD
ATOM     21  H   UNL     1       6.746   8.048  17.018  0.00  0.00    +0.000 HD
ENDBRANCH  16  17
BRANCH  16  22
ATOM     22  C   UNL     1       4.829   4.664  18.374  0.00  0.00    +0.000 C 
BRANCH  22  23
ATOM     23  C   UNL     1       4.698   3.866  17.076  0.00  0.00    +0.000 C 
BRANCH  23  29
ATOM     24  C   UNL     1       7.775   4.425  17.695  0.00  0.00    +0.000 C 
ATOM     25  C   UNL     1       7.100   4.448  16.373  0.00  0.00    +0.000 A 
ATOM     26  N   UNL     1       7.725   4.712  15.241  0.00  0.00    +0.000 NA
ATOM     27  C   UNL     1       6.779   4.657  14.256  0.00  0.00    +0.000 A 
ATOM     28  C   UNL     1       5.555   4.347  14.787  0.00  0.00    +0.000 A 
ATOM     29  N   UNL     1       5.760   4.211  16.136  0.00  0.00    +0.000 N 
ENDBRANCH  23  29
ENDBRANCH  22  23
ENDBRANCH  16  22
ENDBRANCH   1  16
TORSDOF 5
ENDMDL
MODEL 4
REMARK VINA RESULT:      -6.8      7.691     11.167
REMARK  Name = 
REMARK  6 active torsions:
REMARK  status: ('A' for Active; 'I' for Inactive)
REMARK    1  A    between atoms: C_1  and  C_2
REMARK    2  A    between atoms: N_6  and  C_7
REMARK    3  A    between atoms: C_7  and  C_8
REMARK    4  A    between atoms: C_8  and  C_9
REMARK    5  A    between atoms: C_9  and  C_10
REMARK    6  A    between atoms: C_9  and  C_13
REMARK                            x       y       z     vdW  Elec       q    Type
REMARK                         _______ _______ _______ _____ _____    ______ ____
ROOT
ATOM      1  C   UNL     1      -0.397  11.374  18.906  0.00  0.00    +0.000 C 
ATOM      2  C   UNL     1       0.496  10.161  19.139  0.00  0.00    +0.000 A 
ATOM      3  C   UNL     1       1.183   9.646  18.013  0.00  0.00    +0.000 A 
ATOM      4  C   UNL     1       1.944   8.480  18.086  0.00  0.00    +0.000 A 
ATOM      5  C   UNL     1       2.054   7.813  19.294  0.00  0.00    +0.000 A 
ATOM      6  C   UNL     1       1.435   8.338  20.428  0.00  0.00    +0.000 A 
ATOM      7  C   UNL     1       0.656   9.518  20.382  0.00  0.00    +0.000 A 
ATOM      8  C   UNL     1       0.157   9.997  21.733  0.00  0.00    +0.000 C 
ATOM      9  C   UNL     1      -0.782  11.192  21.897  0.00  0.00    +0.000 C 
ATOM     10  C   UNL     1      -0.270  12.448  21.249  0.00  0.00    +0.000 A 
ATOM     11  C   UNL     1      -0.006  13.563  22.063  0.00  0.00    +0.000 A 
ATOM     12  C   UNL     1       0.519  14.734  21.523  0.00  0.00    +0.000 A 
ATOM     13  C   UNL     1       0.791  14.804  20.163  0.00  0.00    +0.000 A 
ATOM     14  C   UNL     1       0.514  13.711  19.337  0.00  0.00    +0.000 A 
ATOM     15  C   UNL     1      -0.041  12.526  19.864  0.00  0.00    +0.000 A 
ENDROOT
BRANCH   1  16
ATOM     16  C   UNL     1      -1.924  11.015  18.860  0.00  0.00    +0.000 C 
BRANCH  16  17
ATOM     17  C   UNL     1      -2.371  10.282  17.591  0.00  0.00    +0.000 C 
ATOM     18  N   UNL     1      -2.014  10.780  16.376  0.00  0.00    +0.000 N 
ATOM     19  O   UNL     1      -3.121   9.315  17.635  0.00  0.00    +0.000 OA
ATOM     20  H   UNL     1      -1.278  11.456  16.248  0.00  0.00    +0.000 HD
ATOM     21  H   UNL     1      -2.319  10.244  15.573  0.00  0.00    +0.000 HD
ENDBRANCH  16  17
BRANCH  16  22
ATOM     22  C   UNL     1      -2.785  12.272  19.115  0.00  0.00    +0.000 C 
BRANCH  22  23
ATOM     23  C   UNL     1      -4.297  12.053  19.036  0.00  0.00    +0.000 C 
BRANCH  23  29
ATOM     24  C   UNL     1      -7.261  11.303  19.939  0.00  0.00    +0.000 C 
ATOM     25  C   UNL     1      -6.204  11.955  20.754  0.00  0.00    +0.000 A 
ATOM     26  N   UNL     1      -6.375  12.317  22.012  0.00  0.00    +0.000 NA
ATOM     27  C   UNL     1      -5.200  12.892  22.410  0.00  0.00    +0.000 A 
ATOM     28  C   UNL     1      -4.291  12.878  21.386  0.00  0.00    +0.000 A 
ATOM     29  N   UNL     1      -4.930  12.278  20.331  0.00  0.00    +0.000 N 
ENDBRANCH  23  29
ENDBRANCH  22  23
ENDBRANCH  16  22
ENDBRANCH   1  16
TORSDOF 5
ENDMDL
MODEL 5
REMARK VINA RESULT:      -6.7      3.704      7.211
REMARK  Name = 
REMARK  6 active torsions:
REMARK  status: ('A' for Active; 'I' for Inactive)
REMARK    1  A    between atoms: C_1  and  C_2
REMARK    2  A    between atoms: N_6  and  C_7
REMARK    3  A    between atoms: C_7  and  C_8
REMARK    4  A    between atoms: C_8  and  C_9
REMARK    5  A    between atoms: C_9  and  C_10
REMARK    6  A    between atoms: C_9  and  C_13
REMARK                            x       y       z     vdW  Elec       q    Type
REMARK                         _______ _______ _______ _____ _____    ______ ____
ROOT
ATOM      1  C   UNL     1       3.749   5.783  19.075  0.00  0.00    +0.000 C 
ATOM      2  C   UNL     1       5.094   5.259  18.586  0.00  0.00    +0.000 A 
ATOM      3  C   UNL     1       6.251   5.776  19.220  0.00  0.00    +0.000 A 
ATOM      4  C   UNL     1       7.534   5.448  18.785  0.00  0.00    +0.000 A 
ATOM      5  C   UNL     1       7.692   4.577  17.721  0.00  0.00    +0.000 A 
ATOM      6  C   UNL     1       6.567   4.011  17.123  0.00  0.00    +0.000 A 
ATOM      7  C   UNL     1       5.253   4.327  17.543  0.00  0.00    +0.000 A 
ATOM      8  C   UNL     1       4.162   3.528  16.854  0.00  0.00    +0.000 C 
ATOM      9  C   UNL     1       2.673   3.782  17.085  0.00  0.00    +0.000 C 
ATOM     10  C   UNL     1       2.276   3.734  18.534  0.00  0.00    +0.000 A 
ATOM     11  C   UNL     1       1.356   2.756  18.946  0.00  0.00    +0.000 A 
ATOM     12  C   UNL     1       0.994   2.633  20.285  0.00  0.00    +0.000 A 
ATOM     13  C   UNL     1       1.551   3.484  21.229  0.00  0.00    +0.000 A 
ATOM     14  C   UNL     1       2.451   4.477  20.833  0.00  0.00    +0.000 A 
ATOM     15  C   UNL     1       2.810   4.631  19.477  0.00  0.00    +0.000 A 
ENDROOT
BRANCH   1  16
ATOM     16  C   UNL     1       3.108   6.836  18.105  0.00  0.00    +0.000 C 
BRANCH  16  17
ATOM     17  C   UNL     1       4.106   7.557  17.193  0.00  0.00    +0.000 C 
ATOM     18  N   UNL     1       4.299   7.099  15.926  0.00  0.00    +0.000 N 
ATOM     19  O   UNL     1       4.808   8.474  17.602  0.00  0.00    +0.000 OA
ATOM     20  H   UNL     1       3.663   6.473  15.460  0.00  0.00    +0.000 HD
ATOM     21  H   UNL     1       4.955   7.625  15.362  0.00  0.00    +0.000 HD
ENDBRANCH  16  17
BRANCH  16  22
ATOM     22  C   UNL     1       2.239   7.842  18.891  0.00  0.00    +0.000 C 
BRANCH  22  23
ATOM     23  C   UNL     1       1.472   8.850  18.034  0.00  0.00    +0.000 C 
BRANCH  23  29
ATOM     24  C   UNL     1      -1.416  10.007  17.336  0.00  0.00    +0.000 C 
ATOM     25  C   UNL     1      -0.641  10.203  18.588  0.00  0.00    +0.000 A 
ATOM     26  N   UNL     1      -1.079  10.912  19.611  0.00  0.00    +0.000 NA
ATOM     27  C   UNL     1      -0.092  10.876  20.555  0.00  0.00    +0.000 A 
ATOM     28  C   UNL     1       0.966  10.128  20.111  0.00  0.00    +0.000 A 
ATOM     29  N   UNL     1       0.615   9.697  18.857  0.00  0.00    +0.000 N 
ENDBRANCH  23  29
ENDBRANCH  22  23
ENDBRANCH  16  22
ENDBRANCH   1  16
TORSDOF 5
ENDMDL
MODEL 6
REMARK VINA RESULT:      -6.6      3.678      7.077
REMARK  Name = 
REMARK  6 active torsions:
REMARK  status: ('A' for Active; 'I' for Inactive)
REMARK    1  A    between atoms: C_1  and  C_2
REMARK    2  A    between atoms: N_6  and  C_7
REMARK    3  A    between atoms: C_7  and  C_8
REMARK    4  A    between atoms: C_8  and  C_9
REMARK    5  A    between atoms: C_9  and  C_10
REMARK    6  A    between atoms: C_9  and  C_13
REMARK                            x       y       z     vdW  Elec       q    Type
REMARK                         _______ _______ _______ _____ _____    ______ ____
ROOT
ATOM      1  C   UNL     1       3.793   5.759  19.036  0.00  0.00    +0.000 C 
ATOM      2  C   UNL     1       5.153   5.236  18.592  0.00  0.00    +0.000 A 
ATOM      3  C   UNL     1       6.289   5.760  19.257  0.00  0.00    +0.000 A 
ATOM      4  C   UNL     1       7.586   5.433  18.864  0.00  0.00    +0.000 A 
ATOM      5  C   UNL     1       7.778   4.556  17.811  0.00  0.00    +0.000 A 
ATOM      6  C   UNL     1       6.673   3.982  17.184  0.00  0.00    +0.000 A 
ATOM      7  C   UNL     1       5.347   4.296  17.561  0.00  0.00    +0.000 A 
ATOM      8  C   UNL     1       4.279   3.490  16.844  0.00  0.00    +0.000 C 
ATOM      9  C   UNL     1       2.783   3.741  17.028  0.00  0.00    +0.000 C 
ATOM     10  C   UNL     1       2.342   3.702  18.465  0.00  0.00    +0.000 A 
ATOM     11  C   UNL     1       1.413   2.724  18.855  0.00  0.00    +0.000 A 
ATOM     12  C   UNL     1       1.011   2.609  20.183  0.00  0.00    +0.000 A 
ATOM     13  C   UNL     1       1.536   3.468  21.138  0.00  0.00    +0.000 A 
ATOM     14  C   UNL     1       2.446   4.461  20.763  0.00  0.00    +0.000 A 
ATOM     15  C   UNL     1       2.845   4.606  19.417  0.00  0.00    +0.000 A 
ENDROOT
BRANCH   1  16
ATOM     16  C   UNL     1       3.178   6.803  18.039  0.00  0.00    +0.000 C 
BRANCH  16  17
ATOM     17  C   UNL     1       4.200   7.509  17.142  0.00  0.00    +0.000 C 
ATOM     18  N   UNL     1       4.394   7.058  15.873  0.00  0.00    +0.000 N 
ATOM     19  O   UNL     1       4.919   8.406  17.565  0.00  0.00    +0.000 OA
ATOM     20  H   UNL     1       3.747   6.451  15.396  0.00  0.00    +0.000 HD
ATOM     21  H   UNL     1       5.066   7.575  15.319  0.00  0.00    +0.000 HD
ENDBRANCH  16  17
BRANCH  16  22
ATOM     22  C   UNL     1       2.296   7.821  18.793  0.00  0.00    +0.000 C 
BRANCH  22  23
ATOM     23  C   UNL     1       1.523   8.798  17.906  0.00  0.00    +0.000 C 
BRANCH  23  29
ATOM     24  C   UNL     1      -0.247   9.765  20.374  0.00  0.00    +0.000 C 
ATOM     25  C   UNL     1       0.719  10.570  19.583  0.00  0.00    +0.000 A 
ATOM     26  N   UNL     1       0.973  11.843  19.823  0.00  0.00    +0.000 NA
ATOM     27  C   UNL     1       1.889  12.235  18.887  0.00  0.00    +0.000 A 
ATOM     28  C   UNL     1       2.210  11.188  18.064  0.00  0.00    +0.000 A 
ATOM     29  N   UNL     1       1.465  10.125  18.510  0.00  0.00    +0.000 N 
ENDBRANCH  23  29
ENDBRANCH  22  23
ENDBRANCH  16  22
ENDBRANCH   1  16
TORSDOF 5
ENDMDL
MODEL 7
REMARK VINA RESULT:      -6.6      3.731      7.174
REMARK  Name = 
REMARK  6 active torsions:
REMARK  status: ('A' for Active; 'I' for Inactive)
REMARK    1  A    between atoms: C_1  and  C_2
REMARK    2  A    between atoms: N_6  and  C_7
REMARK    3  A    between atoms: C_7  and  C_8
REMARK    4  A    between atoms: C_8  and  C_9
REMARK    5  A    between atoms: C_9  and  C_10
REMARK    6  A    between atoms: C_9  and  C_13
REMARK                            x       y       z     vdW  Elec       q    Type
REMARK                         _______ _______ _______ _____ _____    ______ ____
ROOT
ATOM      1  C   UNL     1       3.789   5.768  19.042  0.00  0.00    +0.000 C 
ATOM      2  C   UNL     1       5.148   5.247  18.591  0.00  0.00    +0.000 A 
ATOM      3  C   UNL     1       6.286   5.769  19.254  0.00  0.00    +0.000 A 
ATOM      4  C   UNL     1       7.582   5.443  18.856  0.00  0.00    +0.000 A 
ATOM      5  C   UNL     1       7.771   4.571  17.798  0.00  0.00    +0.000 A 
ATOM      6  C   UNL     1       6.664   3.999  17.172  0.00  0.00    +0.000 A 
ATOM      7  C   UNL     1       5.338   4.312  17.555  0.00  0.00    +0.000 A 
ATOM      8  C   UNL     1       4.269   3.508  16.839  0.00  0.00    +0.000 C 
ATOM      9  C   UNL     1       2.773   3.759  17.029  0.00  0.00    +0.000 C 
ATOM     10  C   UNL     1       2.337   3.714  18.467  0.00  0.00    +0.000 A 
ATOM     11  C   UNL     1       1.409   2.733  18.856  0.00  0.00    +0.000 A 
ATOM     12  C   UNL     1       1.011   2.613  20.185  0.00  0.00    +0.000 A 
ATOM     13  C   UNL     1       1.541   3.468  21.143  0.00  0.00    +0.000 A 
ATOM     14  C   UNL     1       2.448   4.462  20.768  0.00  0.00    +0.000 A 
ATOM     15  C   UNL     1       2.843   4.614  19.421  0.00  0.00    +0.000 A 
ENDROOT
BRANCH   1  16
ATOM     16  C   UNL     1       3.171   6.816  18.052  0.00  0.00    +0.000 C 
BRANCH  16  17
ATOM     17  C   UNL     1       4.190   7.525  17.153  0.00  0.00    +0.000 C 
ATOM     18  N   UNL     1       4.330   7.121  15.862  0.00  0.00    +0.000 N 
ATOM     19  O   UNL     1       4.951   8.380  17.590  0.00  0.00    +0.000 OA
ATOM     20  H   UNL     1       3.650   6.555  15.381  0.00  0.00    +0.000 HD
ATOM     21  H   UNL     1       5.003   7.638  15.308  0.00  0.00    +0.000 HD
ENDBRANCH  16  17
BRANCH  16  22
ATOM     22  C   UNL     1       2.293   7.833  18.814  0.00  0.00    +0.000 C 
BRANCH  22  23
ATOM     23  C   UNL     1       1.768   8.999  17.975  0.00  0.00    +0.000 C 
BRANCH  23  29
ATOM     24  C   UNL     1       2.454  12.112  18.037  0.00  0.00    +0.000 C 
ATOM     25  C   UNL     1       1.452  11.389  18.863  0.00  0.00    +0.000 A 
ATOM     26  N   UNL     1       0.688  11.980  19.763  0.00  0.00    +0.000 NA
ATOM     27  C   UNL     1      -0.080  10.997  20.321  0.00  0.00    +0.000 A 
ATOM     28  C   UNL     1       0.209   9.785  19.752  0.00  0.00    +0.000 A 
ATOM     29  N   UNL     1       1.185  10.035  18.821  0.00  0.00    +0.000 N 
ENDBRANCH  23  29
ENDBRANCH  22  23
ENDBRANCH  16  22
ENDBRANCH   1  16
TORSDOF 5
ENDMDL
MODEL 8
REMARK VINA RESULT:      -6.6      3.821      7.767
REMARK  Name = 
REMARK  6 active torsions:
REMARK  status: ('A' for Active; 'I' for Inactive)
REMARK    1  A    between atoms: C_1  and  C_2
REMARK    2  A    between atoms: N_6  and  C_7
REMARK    3  A    between atoms: C_7  and  C_8
REMARK    4  A    between atoms: C_8  and  C_9
REMARK    5  A    between atoms: C_9  and  C_10
REMARK    6  A    between atoms: C_9  and  C_13
REMARK                            x       y       z     vdW  Elec       q    Type
REMARK                         _______ _______ _______ _____ _____    ______ ____
ROOT
ATOM      1  C   UNL     1       3.439   5.652  19.348  0.00  0.00    +0.000 C 
ATOM      2  C   UNL     1       4.409   5.124  18.299  0.00  0.00    +0.000 A 
ATOM      3  C   UNL     1       5.773   5.474  18.455  0.00  0.00    +0.000 A 
ATOM      4  C   UNL     1       6.732   5.136  17.501  0.00  0.00    +0.000 A 
ATOM      5  C   UNL     1       6.354   4.420  16.378  0.00  0.00    +0.000 A 
ATOM      6  C   UNL     1       5.028   4.014  16.237  0.00  0.00    +0.000 A 
ATOM      7  C   UNL     1       4.034   4.344  17.188  0.00  0.00    +0.000 A 
ATOM      8  C   UNL     1       2.676   3.720  16.923  0.00  0.00    +0.000 C 
ATOM      9  C   UNL     1       1.441   4.027  17.769  0.00  0.00    +0.000 C 
ATOM     10  C   UNL     1       1.650   3.794  19.240  0.00  0.00    +0.000 A 
ATOM     11  C   UNL     1       0.865   2.824  19.884  0.00  0.00    +0.000 A 
ATOM     12  C   UNL     1       1.054   2.531  21.232  0.00  0.00    +0.000 A 
ATOM     13  C   UNL     1       2.033   3.201  21.952  0.00  0.00    +0.000 A 
ATOM     14  C   UNL     1       2.808   4.186  21.331  0.00  0.00    +0.000 A 
ATOM     15  C   UNL     1       2.612   4.512  19.972  0.00  0.00    +0.000 A 
ENDROOT
BRANCH   1  16
ATOM     16  C   UNL     1       2.588   6.870  18.844  0.00  0.00    +0.000 C 
BRANCH  16  17
ATOM     17  C   UNL     1       3.269   7.725  17.770  0.00  0.00    +0.000 C 
ATOM     18  N   UNL     1       4.580   8.055  17.918  0.00  0.00    +0.000 N 
ATOM     19  O   UNL     1       2.642   8.201  16.831  0.00  0.00    +0.000 OA
ATOM     20  H   UNL     1       5.203   7.583  18.553  0.00  0.00    +0.000 HD
ATOM     21  H   UNL     1       4.984   8.604  17.168  0.00  0.00    +0.000 HD
ENDBRANCH  16  17
BRANCH  16  22
ATOM     22  C   UNL     1       2.118   7.734  20.034  0.00  0.00    +0.000 C 
BRANCH  22  23
ATOM     23  C   UNL     1       1.182   8.889  19.672  0.00  0.00    +0.000 C 
BRANCH  23  29
ATOM     24  C   UNL     1       1.212  11.948  20.570  0.00  0.00    +0.000 C 
ATOM     25  C   UNL     1       0.581  10.804  21.276  0.00  0.00    +0.000 A 
ATOM     26  N   UNL     1      -0.078  10.924  22.414  0.00  0.00    +0.000 NA
ATOM     27  C   UNL     1      -0.490   9.667  22.755  0.00  0.00    +0.000 A 
ATOM     28  C   UNL     1      -0.087   8.760  21.811  0.00  0.00    +0.000 A 
ATOM     29  N   UNL     1       0.594   9.485  20.867  0.00  0.00    +0.000 N 
ENDBRANCH  23  29
ENDBRANCH  22  23
ENDBRANCH  16  22
ENDBRANCH   1  16
TORSDOF 5
ENDMDL
MODEL 9
REMARK VINA RESULT:      -6.5      7.549     11.027
REMARK  Name = 
REMARK  6 active torsions:
REMARK  status: ('A' for Active; 'I' for Inactive)
REMARK    1  A    between atoms: C_1  and  C_2
REMARK    2  A    between atoms: N_6  and  C_7
REMARK    3  A    between atoms: C_7  and  C_8
REMARK    4  A    between atoms: C_8  and  C_9
REMARK    5  A    between atoms: C_9  and  C_10
REMARK    6  A    between atoms: C_9  and  C_13
REMARK                            x       y       z     vdW  Elec       q    Type
REMARK                         _______ _______ _______ _____ _____    ______ ____
ROOT
ATOM      1  C   UNL     1      -0.474  11.242  18.868  0.00  0.00    +0.000 C 
ATOM      2  C   UNL     1       0.472  10.067  19.079  0.00  0.00    +0.000 A 
ATOM      3  C   UNL     1       1.152   9.579  17.937  0.00  0.00    +0.000 A 
ATOM      4  C   UNL     1       1.961   8.445  17.991  0.00  0.00    +0.000 A 
ATOM      5  C   UNL     1       2.126   7.783  19.196  0.00  0.00    +0.000 A 
ATOM      6  C   UNL     1       1.514   8.283  20.344  0.00  0.00    +0.000 A 
ATOM      7  C   UNL     1       0.687   9.430  20.318  0.00  0.00    +0.000 A 
ATOM      8  C   UNL     1       0.202   9.890  21.680  0.00  0.00    +0.000 C 
ATOM      9  C   UNL     1      -0.780  11.046  21.867  0.00  0.00    +0.000 C 
ATOM     10  C   UNL     1      -0.335  12.322  21.208  0.00  0.00    +0.000 A 
ATOM     11  C   UNL     1      -0.096  13.446  22.016  0.00  0.00    +0.000 A 
ATOM     12  C   UNL     1       0.368  14.637  21.465  0.00  0.00    +0.000 A 
ATOM     13  C   UNL     1       0.605  14.717  20.099  0.00  0.00    +0.000 A 
ATOM     14  C   UNL     1       0.352  13.614  19.279  0.00  0.00    +0.000 A 
ATOM     15  C   UNL     1      -0.142  12.408  19.818  0.00  0.00    +0.000 A 
ENDROOT
BRANCH   1  16
ATOM     16  C   UNL     1      -1.986  10.823  18.859  0.00  0.00    +0.000 C 
BRANCH  16  17
ATOM     17  C   UNL     1      -2.451  10.137  17.570  0.00  0.00    +0.000 C 
ATOM     18  N   UNL     1      -2.008  10.604  16.372  0.00  0.00    +0.000 N 
ATOM     19  O   UNL     1      -3.287   9.241  17.581  0.00  0.00    +0.000 OA
ATOM     20  H   UNL     1      -1.210  11.211  16.274  0.00  0.00    +0.000 HD
ATOM     21  H   UNL     1      -2.331  10.101  15.555  0.00  0.00    +0.000 HD
ENDBRANCH  16  17
BRANCH  16  22
ATOM     22  C   UNL     1      -2.887  12.027  19.209  0.00  0.00    +0.000 C 
BRANCH  22  23
ATOM     23  C   UNL     1      -4.219  12.085  18.461  0.00  0.00    +0.000 C 
BRANCH  23  29
ATOM     24  C   UNL     1      -4.949  13.123  21.385  0.00  0.00    +0.000 C 
ATOM     25  C   UNL     1      -5.671  12.104  20.581  0.00  0.00    +0.000 A 
ATOM     26  N   UNL     1      -6.755  11.479  21.001  0.00  0.00    +0.000 NA
ATOM     27  C   UNL     1      -7.113  10.616  20.003  0.00  0.00    +0.000 A 
ATOM     28  C   UNL     1      -6.242  10.716  18.951  0.00  0.00    +0.000 A 
ATOM     29  N   UNL     1      -5.324  11.666  19.318  0.00  0.00    +0.000 N 
ENDBRANCH  23  29
ENDBRANCH  22  23
ENDBRANCH  16  22
ENDBRANCH   1  16
TORSDOF 5
ENDMDL
