MODEL 1
REMARK VINA RESULT:      -7.7      0.000      0.000
REMARK  Name = 
REMARK  4 active torsions:
REMARK  status: ('A' for Active; 'I' for Inactive)
REMARK    1  A    between atoms: C_1  and  C_2
REMARK    2  A    between atoms: C_5  and  S_6
REMARK    3  A    between atoms: S_6  and  C_7
REMARK    4  A    between atoms: C_15  and  O_16
REMARK                            x       y       z     vdW  Elec       q    Type
REMARK                         _______ _______ _______ _____ _____    ______ ____
ROOT
ATOM      1  C   UNL     1       5.570   5.349  18.096  0.00  0.00    +0.000 A 
ATOM      2  C   UNL     1       4.451   6.156  18.168  0.00  0.00    +0.000 A 
ATOM      3  N   UNL     1       3.331   5.813  18.855  0.00  0.00    +0.000 NA
ATOM      4  C   UNL     1       3.321   4.634  19.486  0.00  0.00    +0.000 A 
ATOM      5  N   UNL     1       2.225   4.318  20.174  0.00  0.00    +0.000 NA
ATOM      6  C   UNL     1       2.202   3.158  20.823  0.00  0.00    +0.000 A 
ATOM      7  N   UNL     1       1.087   2.867  21.574  0.00  0.00    +0.000 N 
ATOM      8  N   UNL     1       3.175   2.257  20.791  0.00  0.00    +0.000 NA
ATOM      9  C   UNL     1       4.258   2.618  20.086  0.00  0.00    +0.000 A 
ATOM     10  C   UNL     1       4.444   3.804  19.400  0.00  0.00    +0.000 A 
ATOM     11  N   UNL     1       5.577   4.148  18.707  0.00  0.00    +0.000 NA
ATOM     12  H   UNL     1       0.287   3.405  21.270  0.00  0.00    +0.000 HD
ATOM     13  H   UNL     1       0.966   1.875  21.708  0.00  0.00    +0.000 HD
ENDROOT
BRANCH   9  14
ATOM     14  O   UNL     1       5.232   1.661  20.103  0.00  0.00    +0.000 OA
ATOM     15  H   UNL     1       5.651   1.832  20.965  0.00  0.00    +0.000 HD
ENDBRANCH   9  14
BRANCH   1  16
ATOM     16  S   UNL     1       6.986   5.811  17.136  0.00  0.00    +0.000 S 
BRANCH  16  21
ATOM     17  C   UNL     1       5.795   3.037  11.832  0.00  0.00    +0.000 C 
ATOM     18  C   UNL     1       6.082   3.762  13.114  0.00  0.00    +0.000 A 
ATOM     19  C   UNL     1       7.236   4.538  13.262  0.00  0.00    +0.000 A 
ATOM     20  C   UNL     1       7.509   5.187  14.473  0.00  0.00    +0.000 A 
ATOM     21  C   UNL     1       6.628   5.074  15.551  0.00  0.00    +0.000 A 
ATOM     22  C   UNL     1       5.473   4.295  15.406  0.00  0.00    +0.000 A 
ATOM     23  C   UNL     1       5.204   3.647  14.195  0.00  0.00    +0.000 A 
ENDBRANCH  16  21
ENDBRANCH   1  16
TORSDOF 3
ENDMDL
MODEL 2
REMARK VINA RESULT:      -7.6      0.257      1.107
REMARK  Name = 
REMARK  4 active torsions:
REMARK  status: ('A' for Active; 'I' for Inactive)
REMARK    1  A    between atoms: C_1  and  C_2
REMARK    2  A    between atoms: C_5  and  S_6
REMARK    3  A    between atoms: S_6  and  C_7
REMARK    4  A    between atoms: C_15  and  O_16
REMARK                            x       y       z     vdW  Elec       q    Type
REMARK                         _______ _______ _______ _____ _____    ______ ____
ROOT
ATOM      1  C   UNL     1       5.496   5.358  18.317  0.00  0.00    +0.000 A 
ATOM      2  C   UNL     1       4.391   6.168  18.490  0.00  0.00    +0.000 A 
ATOM      3  N   UNL     1       3.308   5.801  19.222  0.00  0.00    +0.000 NA
ATOM      4  C   UNL     1       3.321   4.592  19.796  0.00  0.00    +0.000 A 
ATOM      5  N   UNL     1       2.263   4.251  20.528  0.00  0.00    +0.000 NA
ATOM      6  C   UNL     1       2.266   3.061  21.120  0.00  0.00    +0.000 A 
ATOM      7  N   UNL     1       1.192   2.742  21.919  0.00  0.00    +0.000 N 
ATOM      8  N   UNL     1       3.227   2.155  20.990  0.00  0.00    +0.000 NA
ATOM      9  C   UNL     1       4.271   2.543  20.244  0.00  0.00    +0.000 A 
ATOM     10  C   UNL     1       4.430   3.759  19.605  0.00  0.00    +0.000 A 
ATOM     11  N   UNL     1       5.526   4.128  18.867  0.00  0.00    +0.000 NA
ATOM     12  H   UNL     1       0.382   3.299  21.686  0.00  0.00    +0.000 HD
ATOM     13  H   UNL     1       1.069   1.745  22.011  0.00  0.00    +0.000 HD
ENDROOT
BRANCH   9  14
ATOM     14  O   UNL     1       5.235   1.579  20.159  0.00  0.00    +0.000 OA
ATOM     15  H   UNL     1       5.954   1.984  20.677  0.00  0.00    +0.000 HD
ENDBRANCH   9  14
BRANCH   1  16
ATOM     16  S   UNL     1       6.860   5.856  17.300  0.00  0.00    +0.000 S 
BRANCH  16  21
ATOM     17  C   UNL     1       5.692   3.179  11.942  0.00  0.00    +0.000 C 
ATOM     18  C   UNL     1       5.984   3.793  13.280  0.00  0.00    +0.000 A 
ATOM     19  C   UNL     1       5.093   3.654  14.348  0.00  0.00    +0.000 A 
ATOM     20  C   UNL     1       5.361   4.256  15.584  0.00  0.00    +0.000 A 
ATOM     21  C   UNL     1       6.528   5.000  15.770  0.00  0.00    +0.000 A 
ATOM     22  C   UNL     1       7.421   5.143  14.701  0.00  0.00    +0.000 A 
ATOM     23  C   UNL     1       7.150   4.541  13.467  0.00  0.00    +0.000 A 
ENDBRANCH  16  21
ENDBRANCH   1  16
TORSDOF 3
ENDMDL
MODEL 3
REMARK VINA RESULT:      -7.4      3.404      6.384
REMARK  Name = 
REMARK  4 active torsions:
REMARK  status: ('A' for Active; 'I' for Inactive)
REMARK    1  A    between atoms: C_1  and  C_2
REMARK    2  A    between atoms: C_5  and  S_6
REMARK    3  A    between atoms: S_6  and  C_7
REMARK    4  A    between atoms: C_15  and  O_16
REMARK                            x       y       z     vdW  Elec       q    Type
REMARK                         _______ _______ _______ _____ _____    ______ ____
ROOT
ATOM      1  C   UNL     1       5.404   4.705  16.812  0.00  0.00    +0.000 A 
ATOM      2  C   UNL     1       5.101   5.795  16.020  0.00  0.00    +0.000 A 
ATOM      3  N   UNL     1       5.710   7.002  16.152  0.00  0.00    +0.000 NA
ATOM      4  C   UNL     1       6.644   7.130  17.101  0.00  0.00    +0.000 A 
ATOM      5  N   UNL     1       7.250   8.311  17.208  0.00  0.00    +0.000 NA
ATOM      6  C   UNL     1       8.194   8.452  18.133  0.00  0.00    +0.000 A 
ATOM      7  N   UNL     1       8.850   9.660  18.198  0.00  0.00    +0.000 N 
ATOM      8  N   UNL     1       8.543   7.515  19.005  0.00  0.00    +0.000 NA
ATOM      9  C   UNL     1       7.906   6.343  18.859  0.00  0.00    +0.000 A 
ATOM     10  C   UNL     1       6.940   6.034  17.920  0.00  0.00    +0.000 A 
ATOM     11  N   UNL     1       6.327   4.814  17.787  0.00  0.00    +0.000 NA
ATOM     12  H   UNL     1       8.307  10.398  17.771  0.00  0.00    +0.000 HD
ATOM     13  H   UNL     1       9.244   9.831  19.110  0.00  0.00    +0.000 HD
ENDROOT
BRANCH   9  14
ATOM     14  O   UNL     1       8.318   5.412  19.770  0.00  0.00    +0.000 OA
ATOM     15  H   UNL     1       9.283   5.440  19.647  0.00  0.00    +0.000 HD
ENDBRANCH   9  14
BRANCH   1  16
ATOM     16  S   UNL     1       4.537   3.168  16.643  0.00  0.00    +0.000 S 
BRANCH  16  21
ATOM     17  C   UNL     1       1.228   2.708  21.749  0.00  0.00    +0.000 C 
ATOM     18  C   UNL     1       2.035   2.869  20.495  0.00  0.00    +0.000 A 
ATOM     19  C   UNL     1       1.441   3.297  19.304  0.00  0.00    +0.000 A 
ATOM     20  C   UNL     1       2.198   3.416  18.131  0.00  0.00    +0.000 A 
ATOM     21  C   UNL     1       3.561   3.115  18.136  0.00  0.00    +0.000 A 
ATOM     22  C   UNL     1       4.158   2.683  19.326  0.00  0.00    +0.000 A 
ATOM     23  C   UNL     1       3.399   2.564  20.496  0.00  0.00    +0.000 A 
ENDBRANCH  16  21
ENDBRANCH   1  16
TORSDOF 3
ENDMDL
MODEL 4
REMARK VINA RESULT:      -7.3      2.415      3.403
REMARK  Name = 
REMARK  4 active torsions:
REMARK  status: ('A' for Active; 'I' for Inactive)
REMARK    1  A    between atoms: C_1  and  C_2
REMARK    2  A    between atoms: C_5  and  S_6
REMARK    3  A    between atoms: S_6  and  C_7
REMARK    4  A    between atoms: C_15  and  O_16
REMARK                            x       y       z     vdW  Elec       q    Type
REMARK                         _______ _______ _______ _____ _____    ______ ____
ROOT
ATOM      1  C   UNL     1       3.801   3.642  17.441  0.00  0.00    +0.000 A 
ATOM      2  C   UNL     1       2.448   3.906  17.345  0.00  0.00    +0.000 A 
ATOM      3  N   UNL     1       1.574   3.682  18.360  0.00  0.00    +0.000 NA
ATOM      4  C   UNL     1       2.057   3.180  19.502  0.00  0.00    +0.000 A 
ATOM      5  N   UNL     1       1.194   2.985  20.497  0.00  0.00    +0.000 NA
ATOM      6  C   UNL     1       1.658   2.502  21.646  0.00  0.00    +0.000 A 
ATOM      7  N   UNL     1       0.767   2.356  22.684  0.00  0.00    +0.000 N 
ATOM      8  N   UNL     1       2.917   2.143  21.860  0.00  0.00    +0.000 NA
ATOM      9  C   UNL     1       3.749   2.357  20.830  0.00  0.00    +0.000 A 
ATOM     10  C   UNL     1       3.423   2.891  19.596  0.00  0.00    +0.000 A 
ATOM     11  N   UNL     1       4.308   3.117  18.573  0.00  0.00    +0.000 NA
ATOM     12  H   UNL     1      -0.185   2.308  22.349  0.00  0.00    +0.000 HD
ATOM     13  H   UNL     1       1.070   1.662  23.351  0.00  0.00    +0.000 HD
ENDROOT
BRANCH   9  14
ATOM     14  O   UNL     1       5.032   1.986  21.112  0.00  0.00    +0.000 OA
ATOM     15  H   UNL     1       5.060   2.118  22.077  0.00  0.00    +0.000 HD
ENDBRANCH   9  14
BRANCH   1  16
ATOM     16  S   UNL     1       4.893   3.891  16.067  0.00  0.00    +0.000 S 
BRANCH  16  21
ATOM     17  C   UNL     1       8.281   8.480  18.236  0.00  0.00    +0.000 C 
ATOM     18  C   UNL     1       7.459   7.366  17.657  0.00  0.00    +0.000 A 
ATOM     19  C   UNL     1       6.285   7.630  16.946  0.00  0.00    +0.000 A 
ATOM     20  C   UNL     1       5.509   6.581  16.435  0.00  0.00    +0.000 A 
ATOM     21  C   UNL     1       5.901   5.254  16.624  0.00  0.00    +0.000 A 
ATOM     22  C   UNL     1       7.075   4.988  17.339  0.00  0.00    +0.000 A 
ATOM     23  C   UNL     1       7.847   6.037  17.849  0.00  0.00    +0.000 A 
ENDBRANCH  16  21
ENDBRANCH   1  16
TORSDOF 3
ENDMDL
MODEL 5
REMARK VINA RESULT:      -7.3      3.382      6.277
REMARK  Name = 
REMARK  4 active torsions:
REMARK  status: ('A' for Active; 'I' for Inactive)
REMARK    1  A    between atoms: C_1  and  C_2
REMARK    2  A    between atoms: C_5  and  S_6
REMARK    3  A    between atoms: S_6  and  C_7
REMARK    4  A    between atoms: C_15  and  O_16
REMARK                            x       y       z     vdW  Elec       q    Type
REMARK                         _______ _______ _______ _____ _____    ______ ____
ROOT
ATOM      1  C   UNL     1       5.501   4.524  16.742  0.00  0.00    +0.000 A 
ATOM      2  C   UNL     1       5.186   5.600  15.934  0.00  0.00    +0.000 A 
ATOM      3  N   UNL     1       5.752   6.826  16.076  0.00  0.00    +0.000 NA
ATOM      4  C   UNL     1       6.654   6.990  17.050  0.00  0.00    +0.000 A 
ATOM      5  N   UNL     1       7.218   8.191  17.167  0.00  0.00    +0.000 NA
ATOM      6  C   UNL     1       8.129   8.368  18.118  0.00  0.00    +0.000 A 
ATOM      7  N   UNL     1       8.744   9.597  18.193  0.00  0.00    +0.000 N 
ATOM      8  N   UNL     1       8.483   7.447  19.005  0.00  0.00    +0.000 NA
ATOM      9  C   UNL     1       7.890   6.254  18.849  0.00  0.00    +0.000 A 
ATOM     10  C   UNL     1       6.961   5.909  17.884  0.00  0.00    +0.000 A 
ATOM     11  N   UNL     1       6.392   4.669  17.742  0.00  0.00    +0.000 NA
ATOM     12  H   UNL     1       8.190  10.314  17.746  0.00  0.00    +0.000 HD
ATOM     13  H   UNL     1       9.106   9.785  19.115  0.00  0.00    +0.000 HD
ENDROOT
BRANCH   9  14
ATOM     14  O   UNL     1       8.304   5.343  19.777  0.00  0.00    +0.000 OA
ATOM     15  H   UNL     1       7.924   5.716  20.592  0.00  0.00    +0.000 HD
ENDBRANCH   9  14
BRANCH   1  16
ATOM     16  S   UNL     1       4.691   2.959  16.558  0.00  0.00    +0.000 S 
BRANCH  16  21
ATOM     17  C   UNL     1       1.277   2.918  21.616  0.00  0.00    +0.000 C 
ATOM     18  C   UNL     1       2.122   2.880  20.376  0.00  0.00    +0.000 A 
ATOM     19  C   UNL     1       3.479   2.549  20.438  0.00  0.00    +0.000 A 
ATOM     20  C   UNL     1       4.265   2.545  19.278  0.00  0.00    +0.000 A 
ATOM     21  C   UNL     1       3.702   2.865  18.041  0.00  0.00    +0.000 A 
ATOM     22  C   UNL     1       2.344   3.199  17.978  0.00  0.00    +0.000 A 
ATOM     23  C   UNL     1       1.561   3.204  19.138  0.00  0.00    +0.000 A 
ENDBRANCH  16  21
ENDBRANCH   1  16
TORSDOF 3
ENDMDL
MODEL 6
REMARK VINA RESULT:      -7.2      3.939      6.883
REMARK  Name = 
REMARK  4 active torsions:
REMARK  status: ('A' for Active; 'I' for Inactive)
REMARK    1  A    between atoms: C_1  and  C_2
REMARK    2  A    between atoms: C_5  and  S_6
REMARK    3  A    between atoms: S_6  and  C_7
REMARK    4  A    between atoms: C_15  and  O_16
REMARK                            x       y       z     vdW  Elec       q    Type
REMARK                         _______ _______ _______ _____ _____    ______ ____
ROOT
ATOM      1  C   UNL     1       2.954   7.002  18.259  0.00  0.00    +0.000 A 
ATOM      2  C   UNL     1       4.294   6.838  17.965  0.00  0.00    +0.000 A 
ATOM      3  N   UNL     1       4.997   5.724  18.295  0.00  0.00    +0.000 NA
ATOM      4  C   UNL     1       4.351   4.745  18.939  0.00  0.00    +0.000 A 
ATOM      5  N   UNL     1       5.044   3.649  19.239  0.00  0.00    +0.000 NA
ATOM      6  C   UNL     1       4.415   2.658  19.863  0.00  0.00    +0.000 A 
ATOM      7  N   UNL     1       5.128   1.509  20.119  0.00  0.00    +0.000 N 
ATOM      8  N   UNL     1       3.151   2.701  20.265  0.00  0.00    +0.000 NA
ATOM      9  C   UNL     1       2.494   3.824  19.941  0.00  0.00    +0.000 A 
ATOM     10  C   UNL     1       2.999   4.915  19.258  0.00  0.00    +0.000 A 
ATOM     11  N   UNL     1       2.287   6.039  18.925  0.00  0.00    +0.000 NA
ATOM     12  H   UNL     1       6.123   1.684  20.112  0.00  0.00    +0.000 HD
ATOM     13  H   UNL     1       4.744   0.988  20.893  0.00  0.00    +0.000 HD
ENDROOT
BRANCH   9  14
ATOM     14  O   UNL     1       1.195   3.806  20.364  0.00  0.00    +0.000 OA
ATOM     15  H   UNL     1       0.721   3.721  19.517  0.00  0.00    +0.000 HD
ENDBRANCH   9  14
BRANCH   1  16
ATOM     16  S   UNL     1       2.095   8.501  17.864  0.00  0.00    +0.000 S 
BRANCH  16  21
ATOM     17  C   UNL     1      -0.597  10.081  23.107  0.00  0.00    +0.000 C 
ATOM     18  C   UNL     1       0.046   9.648  21.822  0.00  0.00    +0.000 A 
ATOM     19  C   UNL     1       1.052   8.678  21.809  0.00  0.00    +0.000 A 
ATOM     20  C   UNL     1       1.666   8.302  20.607  0.00  0.00    +0.000 A 
ATOM     21  C   UNL     1       1.276   8.887  19.401  0.00  0.00    +0.000 A 
ATOM     22  C   UNL     1       0.270   9.861  19.412  0.00  0.00    +0.000 A 
ATOM     23  C   UNL     1      -0.341  10.236  20.614  0.00  0.00    +0.000 A 
ENDBRANCH  16  21
ENDBRANCH   1  16
TORSDOF 3
ENDMDL
MODEL 7
REMARK VINA RESULT:      -7.2      3.848      6.796
REMARK  Name = 
REMARK  4 active torsions:
REMARK  status: ('A' for Active; 'I' for Inactive)
REMARK    1  A    between atoms: C_1  and  C_2
REMARK    2  A    between atoms: C_5  and  S_6
REMARK    3  A    between atoms: S_6  and  C_7
REMARK    4  A    between atoms: C_15  and  O_16
REMARK                            x       y       z     vdW  Elec       q    Type
REMARK                         _______ _______ _______ _____ _____    ______ ____
ROOT
ATOM      1  C   UNL     1       2.979   6.906  18.195  0.00  0.00    +0.000 A 
ATOM      2  C   UNL     1       4.351   6.810  18.069  0.00  0.00    +0.000 A 
ATOM      3  N   UNL     1       5.057   5.712  18.446  0.00  0.00    +0.000 NA
ATOM      4  C   UNL     1       4.380   4.682  18.966  0.00  0.00    +0.000 A 
ATOM      5  N   UNL     1       5.080   3.603  19.314  0.00  0.00    +0.000 NA
ATOM      6  C   UNL     1       4.423   2.563  19.816  0.00  0.00    +0.000 A 
ATOM      7  N   UNL     1       5.149   1.434  20.120  0.00  0.00    +0.000 N 
ATOM      8  N   UNL     1       3.117   2.538  20.054  0.00  0.00    +0.000 NA
ATOM      9  C   UNL     1       2.455   3.646  19.689  0.00  0.00    +0.000 A 
ATOM     10  C   UNL     1       2.992   4.783  19.116  0.00  0.00    +0.000 A 
ATOM     11  N   UNL     1       2.277   5.890  18.735  0.00  0.00    +0.000 NA
ATOM     12  H   UNL     1       6.128   1.650  20.247  0.00  0.00    +0.000 HD
ATOM     13  H   UNL     1       4.695   0.867  20.819  0.00  0.00    +0.000 HD
ENDROOT
BRANCH   9  14
ATOM     14  O   UNL     1       1.116   3.556  19.941  0.00  0.00    +0.000 OA
ATOM     15  H   UNL     1       0.826   4.466  19.749  0.00  0.00    +0.000 HD
ENDBRANCH   9  14
BRANCH   1  16
ATOM     16  S   UNL     1       2.108   8.383  17.746  0.00  0.00    +0.000 S 
BRANCH  16  21
ATOM     17  C   UNL     1      -0.494   9.860  23.065  0.00  0.00    +0.000 C 
ATOM     18  C   UNL     1       0.168   9.540  21.757  0.00  0.00    +0.000 A 
ATOM     19  C   UNL     1      -0.154  10.244  20.593  0.00  0.00    +0.000 A 
ATOM     20  C   UNL     1       0.448   9.918  19.371  0.00  0.00    +0.000 A 
ATOM     21  C   UNL     1       1.387   8.887  19.299  0.00  0.00    +0.000 A 
ATOM     22  C   UNL     1       1.709   8.178  20.463  0.00  0.00    +0.000 A 
ATOM     23  C   UNL     1       1.105   8.505  21.681  0.00  0.00    +0.000 A 
ENDBRANCH  16  21
ENDBRANCH   1  16
TORSDOF 3
ENDMDL
MODEL 8
REMARK VINA RESULT:      -7.2      3.931      6.826
REMARK  Name = 
REMARK  4 active torsions:
REMARK  status: ('A' for Active; 'I' for Inactive)
REMARK    1  A    between atoms: C_1  and  C_2
REMARK    2  A    between atoms: C_5  and  S_6
REMARK    3  A    between atoms: S_6  and  C_7
REMARK    4  A    between atoms: C_15  and  O_16
REMARK                            x       y       z     vdW  Elec       q    Type
REMARK                         _______ _______ _______ _____ _____    ______ ____
ROOT
ATOM      1  C   UNL     1       2.986   6.834  17.972  0.00  0.00    +0.000 A 
ATOM      2  C   UNL     1       4.322   6.605  18.243  0.00  0.00    +0.000 A 
ATOM      3  N   UNL     1       4.835   5.365  18.453  0.00  0.00    +0.000 NA
ATOM      4  C   UNL     1       3.998   4.324  18.394  0.00  0.00    +0.000 A 
ATOM      5  N   UNL     1       4.517   3.111  18.580  0.00  0.00    +0.000 NA
ATOM      6  C   UNL     1       3.704   2.062  18.508  0.00  0.00    +0.000 A 
ATOM      7  N   UNL     1       4.260   0.811  18.648  0.00  0.00    +0.000 N 
ATOM      8  N   UNL     1       2.392   2.135  18.319  0.00  0.00    +0.000 NA
ATOM      9  C   UNL     1       1.916   3.375  18.137  0.00  0.00    +0.000 A 
ATOM     10  C   UNL     1       2.641   4.552  18.140  0.00  0.00    +0.000 A 
ATOM     11  N   UNL     1       2.120   5.803  17.927  0.00  0.00    +0.000 NA
ATOM     12  H   UNL     1       5.149   0.855  19.126  0.00  0.00    +0.000 HD
ATOM     13  H   UNL     1       3.588   0.128  18.962  0.00  0.00    +0.000 HD
ENDROOT
BRANCH   9  14
ATOM     14  O   UNL     1       0.566   3.388  17.930  0.00  0.00    +0.000 OA
ATOM     15  H   UNL     1       0.523   3.542  16.969  0.00  0.00    +0.000 HD
ENDBRANCH   9  14
BRANCH   1  16
ATOM     16  S   UNL     1       2.350   8.476  17.767  0.00  0.00    +0.000 S 
BRANCH  16  21
ATOM     17  C   UNL     1      -0.440   9.650  23.066  0.00  0.00    +0.000 C 
ATOM     18  C   UNL     1       0.222   9.319  21.760  0.00  0.00    +0.000 A 
ATOM     19  C   UNL     1       1.121   8.253  21.656  0.00  0.00    +0.000 A 
ATOM     20  C   UNL     1       1.756   7.971  20.439  0.00  0.00    +0.000 A 
ATOM     21  C   UNL     1       1.495   8.748  19.309  0.00  0.00    +0.000 A 
ATOM     22  C   UNL     1       0.597   9.818  19.412  0.00  0.00    +0.000 A 
ATOM     23  C   UNL     1      -0.034  10.098  20.628  0.00  0.00    +0.000 A 
ENDBRANCH  16  21
ENDBRANCH   1  16
TORSDOF 3
ENDMDL
MODEL 9
REMARK VINA RESULT:      -7.2      2.511      3.432
REMARK  Name = 
REMARK  4 active torsions:
REMARK  status: ('A' for Active; 'I' for Inactive)
REMARK    1  A    between atoms: C_1  and  C_2
REMARK    2  A    between atoms: C_5  and  S_6
REMARK    3  A    between atoms: S_6  and  C_7
REMARK    4  A    between atoms: C_15  and  O_16
REMARK                            x       y       z     vdW  Elec       q    Type
REMARK                         _______ _______ _______ _____ _____    ______ ____
ROOT
ATOM      1  C   UNL     1       3.734   3.796  17.554  0.00  0.00    +0.000 A 
ATOM      2  C   UNL     1       2.380   4.056  17.466  0.00  0.00    +0.000 A 
ATOM      3  N   UNL     1       1.504   3.786  18.469  0.00  0.00    +0.000 NA
ATOM      4  C   UNL     1       1.987   3.238  19.589  0.00  0.00    +0.000 A 
ATOM      5  N   UNL     1       1.122   2.997  20.574  0.00  0.00    +0.000 NA
ATOM      6  C   UNL     1       1.586   2.469  21.702  0.00  0.00    +0.000 A 
ATOM      7  N   UNL     1       0.693   2.275  22.731  0.00  0.00    +0.000 N 
ATOM      8  N   UNL     1       2.847   2.108  21.905  0.00  0.00    +0.000 NA
ATOM      9  C   UNL     1       3.680   2.370  20.886  0.00  0.00    +0.000 A 
ATOM     10  C   UNL     1       3.354   2.953  19.676  0.00  0.00    +0.000 A 
ATOM     11  N   UNL     1       4.241   3.226  18.665  0.00  0.00    +0.000 NA
ATOM     12  H   UNL     1      -0.257   2.235  22.391  0.00  0.00    +0.000 HD
ATOM     13  H   UNL     1       0.998   1.555  23.369  0.00  0.00    +0.000 HD
ENDROOT
BRANCH   9  14
ATOM     14  O   UNL     1       4.965   1.994  21.157  0.00  0.00    +0.000 OA
ATOM     15  H   UNL     1       5.462   2.760  20.817  0.00  0.00    +0.000 HD
ENDBRANCH   9  14
BRANCH   1  16
ATOM     16  S   UNL     1       4.828   4.108  16.196  0.00  0.00    +0.000 S 
BRANCH  16  21
ATOM     17  C   UNL     1       8.363   8.718  18.067  0.00  0.00    +0.000 C 
ATOM     18  C   UNL     1       7.483   7.574  17.653  0.00  0.00    +0.000 A 
ATOM     19  C   UNL     1       7.825   6.254  17.958  0.00  0.00    +0.000 A 
ATOM     20  C   UNL     1       7.011   5.192  17.542  0.00  0.00    +0.000 A 
ATOM     21  C   UNL     1       5.841   5.438  16.820  0.00  0.00    +0.000 A 
ATOM     22  C   UNL     1       5.499   6.760  16.511  0.00  0.00    +0.000 A 
ATOM     23  C   UNL     1       6.314   7.818  16.927  0.00  0.00    +0.000 A 
ENDBRANCH  16  21
ENDBRANCH   1  16
TORSDOF 3
ENDMDL
