MODEL 1
REMARK VINA RESULT:      -7.8      0.000      0.000
REMARK  Name = 
REMARK  4 active torsions:
REMARK  status: ('A' for Active; 'I' for Inactive)
REMARK    1  A    between atoms: C_2  and  N_3
REMARK    2  A    between atoms: C_2  and  N_15
REMARK    3  A    between atoms: C_6  and  N_7
REMARK    4  A    between atoms: N_15  and  C_16
REMARK                            x       y       z     vdW  Elec       q    Type
REMARK                         _______ _______ _______ _____ _____    ______ ____
ROOT
ATOM      1  N   UNL     1       4.672   6.169  18.997  0.00  0.00    +0.000 N 
ATOM      2  C   UNL     1       5.774   5.682  18.257  0.00  0.00    +0.000 A 
ATOM      3  C   UNL     1       5.809   5.594  16.890  0.00  0.00    +0.000 A 
ATOM      4  C   UNL     1       6.879   4.914  16.330  0.00  0.00    +0.000 A 
ATOM      5  N   UNL     1       7.888   4.406  17.072  0.00  0.00    +0.000 NA
ATOM      6  C   UNL     1       7.799   4.634  18.389  0.00  0.00    +0.000 A 
ATOM      7  N   UNL     1       6.795   5.259  19.024  0.00  0.00    +0.000 NA
ATOM      8  H   UNL     1       4.894   6.207  19.979  0.00  0.00    +0.000 HD
ENDROOT
BRANCH   4   9
ATOM      9  N   UNL     1       6.889   4.740  14.915  0.00  0.00    +0.000 N 
ATOM     10  C   UNL     1       6.102   3.876  14.183  0.00  0.00    +0.000 A 
ATOM     11  C   UNL     1       6.471   4.013  12.865  0.00  0.00    +0.000 A 
ATOM     12  C   UNL     1       7.477   4.991  12.881  0.00  0.00    +0.000 A 
ATOM     13  N   UNL     1       7.727   5.447  14.107  0.00  0.00    +0.000 NA
ENDBRANCH   4   9
BRANCH   1  15
ATOM     14  S   UNL     1       2.471   7.461  17.950  0.00  0.00    +0.000 S 
ATOM     15  C   UNL     1       3.352   6.232  18.666  0.00  0.00    +0.000 C 
BRANCH  15  16
ATOM     16  N   UNL     1       2.601   5.132  18.893  0.00  0.00    +0.000 N 
ATOM     17  H   UNL     1       2.780   4.790  19.828  0.00  0.00    +0.000 HD
BRANCH  16  18
ATOM     18  C   UNL     1       1.822   4.220  18.047  0.00  0.00    +0.000 C 
ATOM     19  C   UNL     1       2.795   3.563  17.050  0.00  0.00    +0.000 C 
ATOM     20  C   UNL     1       3.766   2.601  17.746  0.00  0.00    +0.000 C 
ATOM     21  C   UNL     1       3.041   1.555  18.590  0.00  0.00    +0.000 C 
ATOM     22  C   UNL     1       2.020   2.177  19.539  0.00  0.00    +0.000 C 
ATOM     23  C   UNL     1       1.071   3.124  18.810  0.00  0.00    +0.000 C 
ENDBRANCH  16  18
ENDBRANCH  15  16
ENDBRANCH   1  15
TORSDOF 4
ENDMDL
MODEL 2
REMARK VINA RESULT:      -7.6      1.064      1.716
REMARK  Name = 
REMARK  4 active torsions:
REMARK  status: ('A' for Active; 'I' for Inactive)
REMARK    1  A    between atoms: C_2  and  N_3
REMARK    2  A    between atoms: C_2  and  N_15
REMARK    3  A    between atoms: C_6  and  N_7
REMARK    4  A    between atoms: N_15  and  C_16
REMARK                            x       y       z     vdW  Elec       q    Type
REMARK                         _______ _______ _______ _____ _____    ______ ____
ROOT
ATOM      1  N   UNL     1       4.590   5.816  19.734  0.00  0.00    +0.000 N 
ATOM      2  C   UNL     1       5.708   5.529  18.918  0.00  0.00    +0.000 A 
ATOM      3  C   UNL     1       5.655   5.379  17.557  0.00  0.00    +0.000 A 
ATOM      4  C   UNL     1       6.796   4.906  16.930  0.00  0.00    +0.000 A 
ATOM      5  N   UNL     1       7.943   4.654  17.599  0.00  0.00    +0.000 NA
ATOM      6  C   UNL     1       7.912   4.927  18.910  0.00  0.00    +0.000 A 
ATOM      7  N   UNL     1       6.851   5.364  19.608  0.00  0.00    +0.000 NA
ATOM      8  H   UNL     1       4.874   5.950  20.691  0.00  0.00    +0.000 HD
ENDROOT
BRANCH   4   9
ATOM      9  N   UNL     1       6.732   4.664  15.526  0.00  0.00    +0.000 N 
ATOM     10  C   UNL     1       5.908   3.769  14.878  0.00  0.00    +0.000 A 
ATOM     11  C   UNL     1       6.208   3.842  13.538  0.00  0.00    +0.000 A 
ATOM     12  C   UNL     1       7.214   4.817  13.455  0.00  0.00    +0.000 A 
ATOM     13  N   UNL     1       7.527   5.330  14.644  0.00  0.00    +0.000 NA
ENDBRANCH   4   9
BRANCH   1  15
ATOM     14  S   UNL     1       2.284   6.029  18.233  0.00  0.00    +0.000 S 
ATOM     15  C   UNL     1       3.264   5.589  19.517  0.00  0.00    +0.000 C 
BRANCH  15  16
ATOM     16  N   UNL     1       2.599   4.858  20.438  0.00  0.00    +0.000 N 
ATOM     17  H   UNL     1       2.083   5.476  21.049  0.00  0.00    +0.000 HD
BRANCH  16  18
ATOM     18  C   UNL     1       2.659   3.462  20.888  0.00  0.00    +0.000 C 
ATOM     19  C   UNL     1       1.230   2.890  20.824  0.00  0.00    +0.000 C 
ATOM     20  C   UNL     1       0.738   2.738  19.379  0.00  0.00    +0.000 C 
ATOM     21  C   UNL     1       1.705   1.926  18.520  0.00  0.00    +0.000 C 
ATOM     22  C   UNL     1       3.141   2.431  18.620  0.00  0.00    +0.000 C 
ATOM     23  C   UNL     1       3.595   2.566  20.071  0.00  0.00    +0.000 C 
ENDBRANCH  16  18
ENDBRANCH  15  16
ENDBRANCH   1  15
TORSDOF 4
ENDMDL
MODEL 3
REMARK VINA RESULT:      -7.6      0.841      1.210
REMARK  Name = 
REMARK  4 active torsions:
REMARK  status: ('A' for Active; 'I' for Inactive)
REMARK    1  A    between atoms: C_2  and  N_3
REMARK    2  A    between atoms: C_2  and  N_15
REMARK    3  A    between atoms: C_6  and  N_7
REMARK    4  A    between atoms: N_15  and  C_16
REMARK                            x       y       z     vdW  Elec       q    Type
REMARK                         _______ _______ _______ _____ _____    ______ ____
ROOT
ATOM      1  N   UNL     1       4.695   6.073  18.876  0.00  0.00    +0.000 N 
ATOM      2  C   UNL     1       5.800   5.601  18.133  0.00  0.00    +0.000 A 
ATOM      3  C   UNL     1       5.835   5.521  16.766  0.00  0.00    +0.000 A 
ATOM      4  C   UNL     1       6.911   4.854  16.201  0.00  0.00    +0.000 A 
ATOM      5  N   UNL     1       7.925   4.350  16.939  0.00  0.00    +0.000 NA
ATOM      6  C   UNL     1       7.835   4.570  18.258  0.00  0.00    +0.000 A 
ATOM      7  N   UNL     1       6.826   5.183  18.897  0.00  0.00    +0.000 NA
ATOM      8  H   UNL     1       4.917   6.108  19.859  0.00  0.00    +0.000 HD
ENDROOT
BRANCH   4   9
ATOM      9  N   UNL     1       6.921   4.687  14.785  0.00  0.00    +0.000 N 
ATOM     10  C   UNL     1       6.169   3.794  14.052  0.00  0.00    +0.000 A 
ATOM     11  C   UNL     1       6.525   3.953  12.733  0.00  0.00    +0.000 A 
ATOM     12  C   UNL     1       7.488   4.974  12.750  0.00  0.00    +0.000 A 
ATOM     13  N   UNL     1       7.723   5.434  13.977  0.00  0.00    +0.000 NA
ENDBRANCH   4   9
BRANCH   1  15
ATOM     14  S   UNL     1       2.422   7.423  18.087  0.00  0.00    +0.000 S 
ATOM     15  C   UNL     1       3.374   6.126  18.547  0.00  0.00    +0.000 C 
BRANCH  15  16
ATOM     16  N   UNL     1       2.690   4.961  18.533  0.00  0.00    +0.000 N 
ATOM     17  H   UNL     1       3.130   4.321  17.885  0.00  0.00    +0.000 HD
BRANCH  16  18
ATOM     18  C   UNL     1       1.376   4.528  19.022  0.00  0.00    +0.000 C 
ATOM     19  C   UNL     1       1.193   3.051  18.624  0.00  0.00    +0.000 C 
ATOM     20  C   UNL     1       2.142   2.127  19.398  0.00  0.00    +0.000 C 
ATOM     21  C   UNL     1       2.030   2.317  20.909  0.00  0.00    +0.000 C 
ATOM     22  C   UNL     1       2.139   3.781  21.324  0.00  0.00    +0.000 C 
ATOM     23  C   UNL     1       1.179   4.667  20.535  0.00  0.00    +0.000 C 
ENDBRANCH  16  18
ENDBRANCH  15  16
ENDBRANCH   1  15
TORSDOF 4
ENDMDL
MODEL 4
REMARK VINA RESULT:      -7.5      0.902      1.395
REMARK  Name = 
REMARK  4 active torsions:
REMARK  status: ('A' for Active; 'I' for Inactive)
REMARK    1  A    between atoms: C_2  and  N_3
REMARK    2  A    between atoms: C_2  and  N_15
REMARK    3  A    between atoms: C_6  and  N_7
REMARK    4  A    between atoms: N_15  and  C_16
REMARK                            x       y       z     vdW  Elec       q    Type
REMARK                         _______ _______ _______ _____ _____    ______ ____
ROOT
ATOM      1  N   UNL     1       4.693   6.120  18.675  0.00  0.00    +0.000 N 
ATOM      2  C   UNL     1       5.797   5.628  17.943  0.00  0.00    +0.000 A 
ATOM      3  C   UNL     1       5.845   5.546  16.576  0.00  0.00    +0.000 A 
ATOM      4  C   UNL     1       6.914   4.860  16.022  0.00  0.00    +0.000 A 
ATOM      5  N   UNL     1       7.912   4.340  16.771  0.00  0.00    +0.000 NA
ATOM      6  C   UNL     1       7.813   4.563  18.088  0.00  0.00    +0.000 A 
ATOM      7  N   UNL     1       6.808   5.193  18.717  0.00  0.00    +0.000 NA
ATOM      8  H   UNL     1       4.906   6.153  19.659  0.00  0.00    +0.000 HD
ENDROOT
BRANCH   4   9
ATOM      9  N   UNL     1       6.935   4.692  14.606  0.00  0.00    +0.000 N 
ATOM     10  C   UNL     1       6.174   3.812  13.867  0.00  0.00    +0.000 A 
ATOM     11  C   UNL     1       6.546   3.963  12.552  0.00  0.00    +0.000 A 
ATOM     12  C   UNL     1       7.527   4.966  12.577  0.00  0.00    +0.000 A 
ATOM     13  N   UNL     1       7.759   5.423  13.806  0.00  0.00    +0.000 NA
ENDBRANCH   4   9
BRANCH   1  15
ATOM     14  S   UNL     1       2.418   7.525  17.993  0.00  0.00    +0.000 S 
ATOM     15  C   UNL     1       3.376   6.195  18.333  0.00  0.00    +0.000 C 
BRANCH  15  16
ATOM     16  N   UNL     1       2.704   5.032  18.188  0.00  0.00    +0.000 N 
ATOM     17  H   UNL     1       1.735   5.228  17.979  0.00  0.00    +0.000 HD
BRANCH  16  18
ATOM     18  C   UNL     1       2.990   3.628  18.503  0.00  0.00    +0.000 C 
ATOM     19  C   UNL     1       3.431   3.562  19.979  0.00  0.00    +0.000 C 
ATOM     20  C   UNL     1       2.275   3.875  20.937  0.00  0.00    +0.000 C 
ATOM     21  C   UNL     1       1.053   2.995  20.678  0.00  0.00    +0.000 C 
ATOM     22  C   UNL     1       0.638   2.989  19.210  0.00  0.00    +0.000 C 
ATOM     23  C   UNL     1       1.813   2.672  18.289  0.00  0.00    +0.000 C 
ENDBRANCH  16  18
ENDBRANCH  15  16
ENDBRANCH   1  15
TORSDOF 4
ENDMDL
MODEL 5
REMARK VINA RESULT:      -7.4      1.947      2.589
REMARK  Name = 
REMARK  4 active torsions:
REMARK  status: ('A' for Active; 'I' for Inactive)
REMARK    1  A    between atoms: C_2  and  N_3
REMARK    2  A    between atoms: C_2  and  N_15
REMARK    3  A    between atoms: C_6  and  N_7
REMARK    4  A    between atoms: N_15  and  C_16
REMARK                            x       y       z     vdW  Elec       q    Type
REMARK                         _______ _______ _______ _____ _____    ______ ____
ROOT
ATOM      1  N   UNL     1       4.761   3.841  19.835  0.00  0.00    +0.000 N 
ATOM      2  C   UNL     1       5.690   4.444  18.957  0.00  0.00    +0.000 A 
ATOM      3  C   UNL     1       5.641   4.345  17.591  0.00  0.00    +0.000 A 
ATOM      4  C   UNL     1       6.732   4.825  16.885  0.00  0.00    +0.000 A 
ATOM      5  N   UNL     1       7.783   5.426  17.487  0.00  0.00    +0.000 NA
ATOM      6  C   UNL     1       7.682   5.555  18.816  0.00  0.00    +0.000 A 
ATOM      7  N   UNL     1       6.679   5.103  19.588  0.00  0.00    +0.000 NA
ATOM      8  H   UNL     1       4.953   4.104  20.789  0.00  0.00    +0.000 HD
ENDROOT
BRANCH   4   9
ATOM      9  N   UNL     1       6.736   4.653  15.469  0.00  0.00    +0.000 N 
ATOM     10  C   UNL     1       5.959   3.778  14.741  0.00  0.00    +0.000 A 
ATOM     11  C   UNL     1       6.317   3.924  13.421  0.00  0.00    +0.000 A 
ATOM     12  C   UNL     1       7.307   4.919  13.432  0.00  0.00    +0.000 A 
ATOM     13  N   UNL     1       7.556   5.376  14.658  0.00  0.00    +0.000 NA
ENDBRANCH   4   9
BRANCH   1  15
ATOM     14  S   UNL     1       4.217   1.343  18.799  0.00  0.00    +0.000 S 
ATOM     15  C   UNL     1       3.954   2.759  19.650  0.00  0.00    +0.000 C 
BRANCH  15  16
ATOM     16  N   UNL     1       2.754   2.765  20.272  0.00  0.00    +0.000 N 
ATOM     17  H   UNL     1       2.786   2.143  21.069  0.00  0.00    +0.000 HD
BRANCH  16  18
ATOM     18  C   UNL     1       1.412   3.243  19.923  0.00  0.00    +0.000 C 
ATOM     19  C   UNL     1       1.241   4.644  20.542  0.00  0.00    +0.000 C 
ATOM     20  C   UNL     1       2.137   5.685  19.861  0.00  0.00    +0.000 C 
ATOM     21  C   UNL     1       1.943   5.716  18.346  0.00  0.00    +0.000 C 
ATOM     22  C   UNL     1       2.040   4.329  17.717  0.00  0.00    +0.000 C 
ATOM     23  C   UNL     1       1.133   3.322  18.419  0.00  0.00    +0.000 C 
ENDBRANCH  16  18
ENDBRANCH  15  16
ENDBRANCH   1  15
TORSDOF 4
ENDMDL
MODEL 6
REMARK VINA RESULT:      -7.3      1.886      2.364
REMARK  Name = 
REMARK  4 active torsions:
REMARK  status: ('A' for Active; 'I' for Inactive)
REMARK    1  A    between atoms: C_2  and  N_3
REMARK    2  A    between atoms: C_2  and  N_15
REMARK    3  A    between atoms: C_6  and  N_7
REMARK    4  A    between atoms: N_15  and  C_16
REMARK                            x       y       z     vdW  Elec       q    Type
REMARK                         _______ _______ _______ _____ _____    ______ ____
ROOT
ATOM      1  N   UNL     1       4.924   4.484  19.117  0.00  0.00    +0.000 N 
ATOM      2  C   UNL     1       5.716   5.102  18.123  0.00  0.00    +0.000 A 
ATOM      3  C   UNL     1       5.724   4.735  16.802  0.00  0.00    +0.000 A 
ATOM      4  C   UNL     1       6.697   5.304  15.996  0.00  0.00    +0.000 A 
ATOM      5  N   UNL     1       7.570   6.231  16.452  0.00  0.00    +0.000 NA
ATOM      6  C   UNL     1       7.408   6.586  17.733  0.00  0.00    +0.000 A 
ATOM      7  N   UNL     1       6.514   6.075  18.596  0.00  0.00    +0.000 NA
ATOM      8  H   UNL     1       5.027   4.961  19.999  0.00  0.00    +0.000 HD
ENDROOT
BRANCH   4   9
ATOM      9  N   UNL     1       6.775   4.871  14.640  0.00  0.00    +0.000 N 
ATOM     10  C   UNL     1       5.996   3.909  14.033  0.00  0.00    +0.000 A 
ATOM     11  C   UNL     1       6.439   3.789  12.737  0.00  0.00    +0.000 A 
ATOM     12  C   UNL     1       7.479   4.726  12.633  0.00  0.00    +0.000 A 
ATOM     13  N   UNL     1       7.681   5.394  13.768  0.00  0.00    +0.000 NA
ENDBRANCH   4   9
BRANCH   1  15
ATOM     14  S   UNL     1       4.621   1.987  20.251  0.00  0.00    +0.000 S 
ATOM     15  C   UNL     1       4.386   3.233  19.158  0.00  0.00    +0.000 C 
BRANCH  15  16
ATOM     16  N   UNL     1       3.476   2.916  18.212  0.00  0.00    +0.000 N 
ATOM     17  H   UNL     1       3.909   2.326  17.514  0.00  0.00    +0.000 HD
BRANCH  16  18
ATOM     18  C   UNL     1       2.145   3.416  17.849  0.00  0.00    +0.000 C 
ATOM     19  C   UNL     1       1.104   2.529  18.558  0.00  0.00    +0.000 C 
ATOM     20  C   UNL     1       1.118   2.733  20.078  0.00  0.00    +0.000 C 
ATOM     21  C   UNL     1       0.959   4.202  20.467  0.00  0.00    +0.000 C 
ATOM     22  C   UNL     1       1.934   5.111  19.725  0.00  0.00    +0.000 C 
ATOM     23  C   UNL     1       1.890   4.881  18.217  0.00  0.00    +0.000 C 
ENDBRANCH  16  18
ENDBRANCH  15  16
ENDBRANCH   1  15
TORSDOF 4
ENDMDL
MODEL 7
REMARK VINA RESULT:      -7.0      2.417      3.986
REMARK  Name = 
REMARK  4 active torsions:
REMARK  status: ('A' for Active; 'I' for Inactive)
REMARK    1  A    between atoms: C_2  and  N_3
REMARK    2  A    between atoms: C_2  and  N_15
REMARK    3  A    between atoms: C_6  and  N_7
REMARK    4  A    between atoms: N_15  and  C_16
REMARK                            x       y       z     vdW  Elec       q    Type
REMARK                         _______ _______ _______ _____ _____    ______ ____
ROOT
ATOM      1  N   UNL     1       4.393   2.639  17.193  0.00  0.00    +0.000 N 
ATOM      2  C   UNL     1       5.168   3.667  16.611  0.00  0.00    +0.000 A 
ATOM      3  C   UNL     1       5.939   4.551  17.321  0.00  0.00    +0.000 A 
ATOM      4  C   UNL     1       6.479   5.619  16.622  0.00  0.00    +0.000 A 
ATOM      5  N   UNL     1       6.321   5.770  15.288  0.00  0.00    +0.000 NA
ATOM      6  C   UNL     1       5.631   4.796  14.680  0.00  0.00    +0.000 A 
ATOM      7  N   UNL     1       5.052   3.740  15.273  0.00  0.00    +0.000 NA
ATOM      8  H   UNL     1       3.965   2.070  16.479  0.00  0.00    +0.000 HD
ENDROOT
BRANCH   4   9
ATOM      9  N   UNL     1       7.213   6.594  17.359  0.00  0.00    +0.000 N 
ATOM     10  C   UNL     1       7.852   6.409  18.566  0.00  0.00    +0.000 A 
ATOM     11  C   UNL     1       8.396   7.620  18.924  0.00  0.00    +0.000 A 
ATOM     12  C   UNL     1       8.056   8.484  17.872  0.00  0.00    +0.000 A 
ATOM     13  N   UNL     1       7.356   7.873  16.916  0.00  0.00    +0.000 NA
ENDBRANCH   4   9
BRANCH   1  15
ATOM     14  S   UNL     1       4.637   2.524  19.939  0.00  0.00    +0.000 S 
ATOM     15  C   UNL     1       3.875   2.534  18.449  0.00  0.00    +0.000 C 
BRANCH  15  16
ATOM     16  N   UNL     1       2.531   2.471  18.564  0.00  0.00    +0.000 N 
ATOM     17  H   UNL     1       2.246   1.503  18.641  0.00  0.00    +0.000 HD
BRANCH  16  18
ATOM     18  C   UNL     1       1.430   3.418  18.354  0.00  0.00    +0.000 C 
ATOM     19  C   UNL     1       0.592   3.453  19.647  0.00  0.00    +0.000 C 
ATOM     20  C   UNL     1       1.356   4.105  20.806  0.00  0.00    +0.000 C 
ATOM     21  C   UNL     1       1.886   5.491  20.444  0.00  0.00    +0.000 C 
ATOM     22  C   UNL     1       2.662   5.495  19.131  0.00  0.00    +0.000 C 
ATOM     23  C   UNL     1       1.870   4.842  18.002  0.00  0.00    +0.000 C 
ENDBRANCH  16  18
ENDBRANCH  15  16
ENDBRANCH   1  15
TORSDOF 4
ENDMDL
MODEL 8
REMARK VINA RESULT:      -7.0      2.146      2.715
REMARK  Name = 
REMARK  4 active torsions:
REMARK  status: ('A' for Active; 'I' for Inactive)
REMARK    1  A    between atoms: C_2  and  N_3
REMARK    2  A    between atoms: C_2  and  N_15
REMARK    3  A    between atoms: C_6  and  N_7
REMARK    4  A    between atoms: N_15  and  C_16
REMARK                            x       y       z     vdW  Elec       q    Type
REMARK                         _______ _______ _______ _____ _____    ______ ____
ROOT
ATOM      1  N   UNL     1       5.047   3.840  19.875  0.00  0.00    +0.000 N 
ATOM      2  C   UNL     1       5.825   4.561  18.941  0.00  0.00    +0.000 A 
ATOM      3  C   UNL     1       5.780   4.369  17.585  0.00  0.00    +0.000 A 
ATOM      4  C   UNL     1       6.743   5.013  16.825  0.00  0.00    +0.000 A 
ATOM      5  N   UNL     1       7.659   5.849  17.365  0.00  0.00    +0.000 NA
ATOM      6  C   UNL     1       7.550   6.038  18.687  0.00  0.00    +0.000 A 
ATOM      7  N   UNL     1       6.668   5.443  19.508  0.00  0.00    +0.000 NA
ATOM      8  H   UNL     1       5.193   4.195  20.807  0.00  0.00    +0.000 HD
ENDROOT
BRANCH   4   9
ATOM      9  N   UNL     1       6.765   4.758  15.422  0.00  0.00    +0.000 N 
ATOM     10  C   UNL     1       5.991   3.847  14.736  0.00  0.00    +0.000 A 
ATOM     11  C   UNL     1       6.367   3.912  13.415  0.00  0.00    +0.000 A 
ATOM     12  C   UNL     1       7.364   4.899  13.381  0.00  0.00    +0.000 A 
ATOM     13  N   UNL     1       7.601   5.426  14.581  0.00  0.00    +0.000 NA
ENDBRANCH   4   9
BRANCH   1  15
ATOM     14  S   UNL     1       4.803   1.187  20.592  0.00  0.00    +0.000 S 
ATOM     15  C   UNL     1       4.472   2.609  19.774  0.00  0.00    +0.000 C 
BRANCH  15  16
ATOM     16  N   UNL     1       3.433   2.476  18.921  0.00  0.00    +0.000 N 
ATOM     17  H   UNL     1       3.781   2.435  17.972  0.00  0.00    +0.000 HD
BRANCH  16  18
ATOM     18  C   UNL     1       1.978   2.629  19.033  0.00  0.00    +0.000 C 
ATOM     19  C   UNL     1       1.630   2.685  20.533  0.00  0.00    +0.000 C 
ATOM     20  C   UNL     1       2.138   3.974  21.191  0.00  0.00    +0.000 C 
ATOM     21  C   UNL     1       1.660   5.227  20.459  0.00  0.00    +0.000 C 
ATOM     22  C   UNL     1       1.933   5.165  18.959  0.00  0.00    +0.000 C 
ATOM     23  C   UNL     1       1.411   3.872  18.339  0.00  0.00    +0.000 C 
ENDBRANCH  16  18
ENDBRANCH  15  16
ENDBRANCH   1  15
TORSDOF 4
ENDMDL
MODEL 9
REMARK VINA RESULT:      -6.9      0.914      1.624
REMARK  Name = 
REMARK  4 active torsions:
REMARK  status: ('A' for Active; 'I' for Inactive)
REMARK    1  A    between atoms: C_2  and  N_3
REMARK    2  A    between atoms: C_2  and  N_15
REMARK    3  A    between atoms: C_6  and  N_7
REMARK    4  A    between atoms: N_15  and  C_16
REMARK                            x       y       z     vdW  Elec       q    Type
REMARK                         _______ _______ _______ _____ _____    ______ ____
ROOT
ATOM      1  N   UNL     1       4.738   6.289  18.784  0.00  0.00    +0.000 N 
ATOM      2  C   UNL     1       5.790   5.742  18.017  0.00  0.00    +0.000 A 
ATOM      3  C   UNL     1       5.731   5.527  16.665  0.00  0.00    +0.000 A 
ATOM      4  C   UNL     1       6.767   4.804  16.096  0.00  0.00    +0.000 A 
ATOM      5  N   UNL     1       7.833   4.374  16.808  0.00  0.00    +0.000 NA
ATOM      6  C   UNL     1       7.834   4.724  18.101  0.00  0.00    +0.000 A 
ATOM      7  N   UNL     1       6.868   5.400  18.745  0.00  0.00    +0.000 NA
ATOM      8  H   UNL     1       5.027   6.421  19.741  0.00  0.00    +0.000 HD
ENDROOT
BRANCH   4   9
ATOM      9  N   UNL     1       6.680   4.497  14.706  0.00  0.00    +0.000 N 
ATOM     10  C   UNL     1       7.471   5.002  13.697  0.00  0.00    +0.000 A 
ATOM     11  C   UNL     1       7.014   4.464  12.517  0.00  0.00    +0.000 A 
ATOM     12  C   UNL     1       5.952   3.629  12.900  0.00  0.00    +0.000 A 
ATOM     13  N   UNL     1       5.752   3.630  14.217  0.00  0.00    +0.000 NA
ENDBRANCH   4   9
BRANCH   1  15
ATOM     14  S   UNL     1       2.443   7.486  17.828  0.00  0.00    +0.000 S 
ATOM     15  C   UNL     1       3.396   6.312  18.544  0.00  0.00    +0.000 C 
BRANCH  15  16
ATOM     16  N   UNL     1       2.685   5.214  18.881  0.00  0.00    +0.000 N 
ATOM     17  H   UNL     1       1.817   5.204  18.363  0.00  0.00    +0.000 HD
BRANCH  16  18
ATOM     18  C   UNL     1       2.766   4.221  19.959  0.00  0.00    +0.000 C 
ATOM     19  C   UNL     1       1.336   3.717  20.235  0.00  0.00    +0.000 C 
ATOM     20  C   UNL     1       0.789   2.880  19.072  0.00  0.00    +0.000 C 
ATOM     21  C   UNL     1       1.724   1.733  18.694  0.00  0.00    +0.000 C 
ATOM     22  C   UNL     1       3.162   2.197  18.482  0.00  0.00    +0.000 C 
ATOM     23  C   UNL     1       3.672   3.023  19.660  0.00  0.00    +0.000 C 
ENDBRANCH  16  18
ENDBRANCH  15  16
ENDBRANCH   1  15
TORSDOF 4
ENDMDL
