MODEL 1
REMARK VINA RESULT:      -8.1      0.000      0.000
REMARK  Name = 
REMARK  6 active torsions:
REMARK  status: ('A' for Active; 'I' for Inactive)
REMARK    1  A    between atoms: C_2  and  C_3
REMARK    2  A    between atoms: C_3  and  C_4
REMARK    3  A    between atoms: C_4  and  C_5
REMARK    4  A    between atoms: C_5  and  C_6
REMARK    5  A    between atoms: C_19  and  O_20
REMARK    6  A    between atoms: C_21  and  O_22
REMARK                            x       y       z     vdW  Elec       q    Type
REMARK                         _______ _______ _______ _____ _____    ______ ____
ROOT
ATOM      1  O   UNL     1       8.190   6.227  17.602  0.00  0.00    +0.000 OA
ATOM      2  C   UNL     1       7.077   6.748  17.572  0.00  0.00    +0.000 C 
ATOM      3  N   UNL     1       5.914   5.996  17.606  0.00  0.00    +0.000 N 
ATOM      4  C   UNL     1       6.080   4.539  17.583  0.00  0.00    +0.000 C 
ATOM      5  C   UNL     1       4.918   3.894  16.840  0.00  0.00    +0.000 C 
ATOM      6  C   UNL     1       3.732   4.133  17.742  0.00  0.00    +0.000 A 
ATOM      7  C   UNL     1       2.996   3.091  18.317  0.00  0.00    +0.000 A 
ATOM      8 CL   UNL     1       3.262   1.434  17.902  0.00  0.00    +0.000 Cl
ATOM      9  C   UNL     1       2.088   3.386  19.327  0.00  0.00    +0.000 A 
ATOM     10  C   UNL     1       1.843   4.708  19.706  0.00  0.00    +0.000 A 
ATOM     11  C   UNL     1       2.537   5.767  19.111  0.00  0.00    +0.000 A 
ATOM     12 CL   UNL     1       2.198   7.391  19.597  0.00  0.00    +0.000 Cl
ATOM     13  C   UNL     1       3.540   5.482  18.171  0.00  0.00    +0.000 A 
ATOM     14  C   UNL     1       4.532   6.523  17.655  0.00  0.00    +0.000 C 
ENDROOT
BRANCH   9  15
ATOM     15  O   UNL     1       1.445   2.398  20.040  0.00  0.00    +0.000 OA
ATOM     16  H   UNL     1       0.601   2.225  19.575  0.00  0.00    +0.000 HD
ENDBRANCH   9  15
BRANCH  10  17
ATOM     17  O   UNL     1       0.952   4.923  20.728  0.00  0.00    +0.000 OA
ATOM     18  H   UNL     1       0.471   4.078  20.837  0.00  0.00    +0.000 HD
ENDBRANCH  10  17
BRANCH   2  19
ATOM     19  C   UNL     1       6.932   8.259  17.483  0.00  0.00    +0.000 C 
BRANCH  19  20
ATOM     20  C   UNL     1       8.278   8.994  17.600  0.00  0.00    +0.000 C 
BRANCH  20  21
ATOM     21  C   UNL     1       8.628   9.360  19.049  0.00  0.00    +0.000 C 
BRANCH  21  22
ATOM     22  C   UNL     1       9.527  10.569  19.149  0.00  0.00    +0.000 A 
ATOM     23  C   UNL     1       9.815  11.149  20.394  0.00  0.00    +0.000 A 
ATOM     24  C   UNL     1      10.678  12.244  20.481  0.00  0.00    +0.000 A 
ATOM     25  C   UNL     1      11.246  12.774  19.328  0.00  0.00    +0.000 A 
ATOM     26 CL   UNL     1      12.333  14.111  19.439  0.00  0.00    +0.000 Cl
ATOM     27  C   UNL     1      10.961  12.220  18.085  0.00  0.00    +0.000 A 
ATOM     28  C   UNL     1      10.100  11.123  17.994  0.00  0.00    +0.000 A 
ENDBRANCH  21  22
ENDBRANCH  20  21
ENDBRANCH  19  20
ENDBRANCH   2  19
TORSDOF 6
ENDMDL
MODEL 2
REMARK VINA RESULT:      -7.8      0.944      1.274
REMARK  Name = 
REMARK  6 active torsions:
REMARK  status: ('A' for Active; 'I' for Inactive)
REMARK    1  A    between atoms: C_2  and  C_3
REMARK    2  A    between atoms: C_3  and  C_4
REMARK    3  A    between atoms: C_4  and  C_5
REMARK    4  A    between atoms: C_5  and  C_6
REMARK    5  A    between atoms: C_19  and  O_20
REMARK    6  A    between atoms: C_21  and  O_22
REMARK                            x       y       z     vdW  Elec       q    Type
REMARK                         _______ _______ _______ _____ _____    ______ ____
ROOT
ATOM      1  O   UNL     1       8.076   5.952  17.419  0.00  0.00    +0.000 OA
ATOM      2  C   UNL     1       7.018   6.574  17.467  0.00  0.00    +0.000 C 
ATOM      3  N   UNL     1       5.790   5.933  17.499  0.00  0.00    +0.000 N 
ATOM      4  C   UNL     1       5.815   4.472  17.377  0.00  0.00    +0.000 C 
ATOM      5  C   UNL     1       4.574   3.988  16.641  0.00  0.00    +0.000 C 
ATOM      6  C   UNL     1       3.446   4.276  17.602  0.00  0.00    +0.000 A 
ATOM      7  C   UNL     1       2.634   3.271  18.138  0.00  0.00    +0.000 A 
ATOM      8 CL   UNL     1       2.727   1.627  17.610  0.00  0.00    +0.000 Cl
ATOM      9  C   UNL     1       1.792   3.581  19.200  0.00  0.00    +0.000 A 
ATOM     10  C   UNL     1       1.687   4.892  19.671  0.00  0.00    +0.000 A 
ATOM     11  C   UNL     1       2.458   5.919  19.117  0.00  0.00    +0.000 A 
ATOM     12 CL   UNL     1       2.292   7.531  19.717  0.00  0.00    +0.000 Cl
ATOM     13  C   UNL     1       3.398   5.606  18.122  0.00  0.00    +0.000 A 
ATOM     14  C   UNL     1       4.467   6.582  17.634  0.00  0.00    +0.000 C 
ENDROOT
BRANCH   9  15
ATOM     15  O   UNL     1       1.082   2.612  19.874  0.00  0.00    +0.000 OA
ATOM     16  H   UNL     1       0.171   2.957  19.978  0.00  0.00    +0.000 HD
ENDBRANCH   9  15
BRANCH  10  17
ATOM     17  O   UNL     1       0.855   5.120  20.738  0.00  0.00    +0.000 OA
ATOM     18  H   UNL     1       1.033   6.041  21.017  0.00  0.00    +0.000 HD
ENDBRANCH  10  17
BRANCH   2  19
ATOM     19  C   UNL     1       7.014   8.095  17.479  0.00  0.00    +0.000 C 
BRANCH  19  20
ATOM     20  C   UNL     1       8.236   8.688  18.201  0.00  0.00    +0.000 C 
BRANCH  20  21
ATOM     21  C   UNL     1       8.736   9.985  17.548  0.00  0.00    +0.000 C 
BRANCH  21  22
ATOM     22  C   UNL     1       9.138  11.032  18.559  0.00  0.00    +0.000 A 
ATOM     23  C   UNL     1       9.047  12.399  18.250  0.00  0.00    +0.000 A 
ATOM     24  C   UNL     1       9.384  13.362  19.205  0.00  0.00    +0.000 A 
ATOM     25  C   UNL     1       9.824  12.970  20.463  0.00  0.00    +0.000 A 
ATOM     26 CL   UNL     1      10.215  14.160  21.650  0.00  0.00    +0.000 Cl
ATOM     27  C   UNL     1       9.933  11.620  20.781  0.00  0.00    +0.000 A 
ATOM     28  C   UNL     1       9.595  10.653  19.830  0.00  0.00    +0.000 A 
ENDBRANCH  21  22
ENDBRANCH  20  21
ENDBRANCH  19  20
ENDBRANCH   2  19
TORSDOF 6
ENDMDL
MODEL 3
REMARK VINA RESULT:      -7.7      1.054      1.120
REMARK  Name = 
REMARK  6 active torsions:
REMARK  status: ('A' for Active; 'I' for Inactive)
REMARK    1  A    between atoms: C_2  and  C_3
REMARK    2  A    between atoms: C_3  and  C_4
REMARK    3  A    between atoms: C_4  and  C_5
REMARK    4  A    between atoms: C_5  and  C_6
REMARK    5  A    between atoms: C_19  and  O_20
REMARK    6  A    between atoms: C_21  and  O_22
REMARK                            x       y       z     vdW  Elec       q    Type
REMARK                         _______ _______ _______ _____ _____    ______ ____
ROOT
ATOM      1  O   UNL     1       8.078   5.593  17.821  0.00  0.00    +0.000 OA
ATOM      2  C   UNL     1       7.055   6.256  17.669  0.00  0.00    +0.000 C 
ATOM      3  N   UNL     1       5.793   5.696  17.779  0.00  0.00    +0.000 N 
ATOM      4  C   UNL     1       5.741   4.246  17.995  0.00  0.00    +0.000 C 
ATOM      5  C   UNL     1       4.507   3.663  17.321  0.00  0.00    +0.000 C 
ATOM      6  C   UNL     1       3.357   4.213  18.130  0.00  0.00    +0.000 A 
ATOM      7  C   UNL     1       2.468   3.396  18.836  0.00  0.00    +0.000 A 
ATOM      8 CL   UNL     1       2.490   1.673  18.700  0.00  0.00    +0.000 Cl
ATOM      9  C   UNL     1       1.600   3.980  19.752  0.00  0.00    +0.000 A 
ATOM     10  C   UNL     1       1.549   5.368  19.906  0.00  0.00    +0.000 A 
ATOM     11  C   UNL     1       2.400   6.204  19.176  0.00  0.00    +0.000 A 
ATOM     12 CL   UNL     1       2.299   7.917  19.384  0.00  0.00    +0.000 Cl
ATOM     13  C   UNL     1       3.362   5.628  18.330  0.00  0.00    +0.000 A 
ATOM     14  C   UNL     1       4.503   6.417  17.692  0.00  0.00    +0.000 C 
ENDROOT
BRANCH   9  15
ATOM     15  O   UNL     1       0.808   3.225  20.589  0.00  0.00    +0.000 OA
ATOM     16  H   UNL     1       1.227   3.258  21.473  0.00  0.00    +0.000 HD
ENDBRANCH   9  15
BRANCH  10  17
ATOM     17  O   UNL     1       0.687   5.872  20.847  0.00  0.00    +0.000 OA
ATOM     18  H   UNL     1       0.819   6.842  20.830  0.00  0.00    +0.000 HD
ENDBRANCH  10  17
BRANCH   2  19
ATOM     19  C   UNL     1       7.136   7.738  17.334  0.00  0.00    +0.000 C 
BRANCH  19  20
ATOM     20  C   UNL     1       8.175   8.485  18.188  0.00  0.00    +0.000 C 
BRANCH  20  21
ATOM     21  C   UNL     1       8.669   9.776  17.521  0.00  0.00    +0.000 C 
BRANCH  21  22
ATOM     22  C   UNL     1       9.044  10.845  18.519  0.00  0.00    +0.000 A 
ATOM     23  C   UNL     1       9.410  10.506  19.832  0.00  0.00    +0.000 A 
ATOM     24  C   UNL     1       9.792  11.499  20.737  0.00  0.00    +0.000 A 
ATOM     25  C   UNL     1       9.799  12.833  20.345  0.00  0.00    +0.000 A 
ATOM     26 CL   UNL     1      10.296  14.055  21.457  0.00  0.00    +0.000 Cl
ATOM     27  C   UNL     1       9.426  13.187  19.053  0.00  0.00    +0.000 A 
ATOM     28  C   UNL     1       9.046  12.198  18.143  0.00  0.00    +0.000 A 
ENDBRANCH  21  22
ENDBRANCH  20  21
ENDBRANCH  19  20
ENDBRANCH   2  19
TORSDOF 6
ENDMDL
MODEL 4
REMARK VINA RESULT:      -7.1      4.690      7.152
REMARK  Name = 
REMARK  6 active torsions:
REMARK  status: ('A' for Active; 'I' for Inactive)
REMARK    1  A    between atoms: C_2  and  C_3
REMARK    2  A    between atoms: C_3  and  C_4
REMARK    3  A    between atoms: C_4  and  C_5
REMARK    4  A    between atoms: C_5  and  C_6
REMARK    5  A    between atoms: C_19  and  O_20
REMARK    6  A    between atoms: C_21  and  O_22
REMARK                            x       y       z     vdW  Elec       q    Type
REMARK                         _______ _______ _______ _____ _____    ______ ____
ROOT
ATOM      1  O   UNL     1       0.736   3.325  18.107  0.00  0.00    +0.000 OA
ATOM      2  C   UNL     1       1.799   3.377  18.720  0.00  0.00    +0.000 C 
ATOM      3  N   UNL     1       3.022   3.415  18.070  0.00  0.00    +0.000 N 
ATOM      4  C   UNL     1       2.986   3.294  16.609  0.00  0.00    +0.000 C 
ATOM      5  C   UNL     1       4.227   2.563  16.116  0.00  0.00    +0.000 C 
ATOM      6  C   UNL     1       5.352   3.530  16.394  0.00  0.00    +0.000 A 
ATOM      7  C   UNL     1       6.154   4.070  15.383  0.00  0.00    +0.000 A 
ATOM      8 CL   UNL     1       6.051   3.541  13.741  0.00  0.00    +0.000 Cl
ATOM      9  C   UNL     1       6.994   5.136  15.688  0.00  0.00    +0.000 A 
ATOM     10  C   UNL     1       7.107   5.606  16.998  0.00  0.00    +0.000 A 
ATOM     11  C   UNL     1       6.346   5.049  18.030  0.00  0.00    +0.000 A 
ATOM     12 CL   UNL     1       6.522   5.649  19.641  0.00  0.00    +0.000 Cl
ATOM     13  C   UNL     1       5.408   4.050  17.724  0.00  0.00    +0.000 A 
ATOM     14  C   UNL     1       4.350   3.556  18.708  0.00  0.00    +0.000 C 
ENDROOT
BRANCH   9  15
ATOM     15  O   UNL     1       7.694   5.812  14.713  0.00  0.00    +0.000 OA
ATOM     16  H   UNL     1       7.507   5.354  13.868  0.00  0.00    +0.000 HD
ENDBRANCH   9  15
BRANCH  10  17
ATOM     17  O   UNL     1       7.936   6.678  17.220  0.00  0.00    +0.000 OA
ATOM     18  H   UNL     1       8.715   6.528  16.647  0.00  0.00    +0.000 HD
ENDBRANCH  10  17
BRANCH   2  19
ATOM     19  C   UNL     1       1.815   3.389  20.241  0.00  0.00    +0.000 C 
BRANCH  19  20
ATOM     20  C   UNL     1       1.452   4.763  20.830  0.00  0.00    +0.000 C 
BRANCH  20  21
ATOM     21  C   UNL     1       2.565   5.802  20.634  0.00  0.00    +0.000 C 
BRANCH  21  22
ATOM     22  C   UNL     1       2.054   7.114  20.088  0.00  0.00    +0.000 A 
ATOM     23  C   UNL     1       1.352   8.009  20.912  0.00  0.00    +0.000 A 
ATOM     24  C   UNL     1       0.915   9.237  20.409  0.00  0.00    +0.000 A 
ATOM     25  C   UNL     1       1.164   9.574  19.084  0.00  0.00    +0.000 A 
ATOM     26 CL   UNL     1       0.648  11.102  18.471  0.00  0.00    +0.000 Cl
ATOM     27  C   UNL     1       1.847   8.694  18.251  0.00  0.00    +0.000 A 
ATOM     28  C   UNL     1       2.287   7.465  18.750  0.00  0.00    +0.000 A 
ENDBRANCH  21  22
ENDBRANCH  20  21
ENDBRANCH  19  20
ENDBRANCH   2  19
TORSDOF 6
ENDMDL
MODEL 5
REMARK VINA RESULT:      -7.1      4.675      7.216
REMARK  Name = 
REMARK  6 active torsions:
REMARK  status: ('A' for Active; 'I' for Inactive)
REMARK    1  A    between atoms: C_2  and  C_3
REMARK    2  A    between atoms: C_3  and  C_4
REMARK    3  A    between atoms: C_4  and  C_5
REMARK    4  A    between atoms: C_5  and  C_6
REMARK    5  A    between atoms: C_19  and  O_20
REMARK    6  A    between atoms: C_21  and  O_22
REMARK                            x       y       z     vdW  Elec       q    Type
REMARK                         _______ _______ _______ _____ _____    ______ ____
ROOT
ATOM      1  O   UNL     1       0.714   3.680  18.270  0.00  0.00    +0.000 OA
ATOM      2  C   UNL     1       1.799   3.737  18.845  0.00  0.00    +0.000 C 
ATOM      3  N   UNL     1       2.999   3.684  18.155  0.00  0.00    +0.000 N 
ATOM      4  C   UNL     1       2.909   3.459  16.708  0.00  0.00    +0.000 C 
ATOM      5  C   UNL     1       4.106   2.650  16.230  0.00  0.00    +0.000 C 
ATOM      6  C   UNL     1       5.273   3.593  16.402  0.00  0.00    +0.000 A 
ATOM      7  C   UNL     1       6.057   4.029  15.329  0.00  0.00    +0.000 A 
ATOM      8 CL   UNL     1       5.880   3.388  13.733  0.00  0.00    +0.000 Cl
ATOM      9  C   UNL     1       6.942   5.083  15.528  0.00  0.00    +0.000 A 
ATOM     10  C   UNL     1       7.117   5.642  16.796  0.00  0.00    +0.000 A 
ATOM     11  C   UNL     1       6.373   5.188  17.890  0.00  0.00    +0.000 A 
ATOM     12 CL   UNL     1       6.625   5.896  19.447  0.00  0.00    +0.000 Cl
ATOM     13  C   UNL     1       5.392   4.204  17.688  0.00  0.00    +0.000 A 
ATOM     14  C   UNL     1       4.352   3.822  18.738  0.00  0.00    +0.000 C 
ENDROOT
BRANCH   9  15
ATOM     15  O   UNL     1       7.631   5.662  14.485  0.00  0.00    +0.000 OA
ATOM     16  H   UNL     1       8.108   4.938  14.030  0.00  0.00    +0.000 HD
ENDBRANCH   9  15
BRANCH  10  17
ATOM     17  O   UNL     1       7.989   6.696  16.913  0.00  0.00    +0.000 OA
ATOM     18  H   UNL     1       7.918   7.189  16.070  0.00  0.00    +0.000 HD
ENDBRANCH  10  17
BRANCH   2  19
ATOM     19  C   UNL     1       1.867   3.857  20.359  0.00  0.00    +0.000 C 
BRANCH  19  20
ATOM     20  C   UNL     1       1.733   5.310  20.848  0.00  0.00    +0.000 C 
BRANCH  20  21
ATOM     21  C   UNL     1       2.652   6.276  20.086  0.00  0.00    +0.000 C 
BRANCH  21  22
ATOM     22  C   UNL     1       2.000   7.609  19.807  0.00  0.00    +0.000 A 
ATOM     23  C   UNL     1       2.081   8.196  18.534  0.00  0.00    +0.000 A 
ATOM     24  C   UNL     1       1.442   9.411  18.275  0.00  0.00    +0.000 A 
ATOM     25  C   UNL     1       0.732  10.052  19.283  0.00  0.00    +0.000 A 
ATOM     26 CL   UNL     1      -0.078  11.540  18.954  0.00  0.00    +0.000 Cl
ATOM     27  C   UNL     1       0.653   9.491  20.553  0.00  0.00    +0.000 A 
ATOM     28  C   UNL     1       1.288   8.275  20.817  0.00  0.00    +0.000 A 
ENDBRANCH  21  22
ENDBRANCH  20  21
ENDBRANCH  19  20
ENDBRANCH   2  19
TORSDOF 6
ENDMDL
MODEL 6
REMARK VINA RESULT:      -7.1      5.272      8.074
REMARK  Name = 
REMARK  6 active torsions:
REMARK  status: ('A' for Active; 'I' for Inactive)
REMARK    1  A    between atoms: C_2  and  C_3
REMARK    2  A    between atoms: C_3  and  C_4
REMARK    3  A    between atoms: C_4  and  C_5
REMARK    4  A    between atoms: C_5  and  C_6
REMARK    5  A    between atoms: C_19  and  O_20
REMARK    6  A    between atoms: C_21  and  O_22
REMARK                            x       y       z     vdW  Elec       q    Type
REMARK                         _______ _______ _______ _____ _____    ______ ____
ROOT
ATOM      1  O   UNL     1       2.801   5.844  20.503  0.00  0.00    +0.000 OA
ATOM      2  C   UNL     1       2.528   6.662  19.628  0.00  0.00    +0.000 C 
ATOM      3  N   UNL     1       1.749   7.779  19.884  0.00  0.00    +0.000 N 
ATOM      4  C   UNL     1       1.187   7.885  21.234  0.00  0.00    +0.000 C 
ATOM      5  C   UNL     1      -0.171   8.571  21.181  0.00  0.00    +0.000 C 
ATOM      6  C   UNL     1       0.155   9.991  20.787  0.00  0.00    +0.000 A 
ATOM      7  C   UNL     1      -0.131  11.089  21.606  0.00  0.00    +0.000 A 
ATOM      8 CL   UNL     1      -1.050  10.940  23.063  0.00  0.00    +0.000 Cl
ATOM      9  C   UNL     1       0.423  12.325  21.293  0.00  0.00    +0.000 A 
ATOM     10  C   UNL     1       1.180  12.496  20.132  0.00  0.00    +0.000 A 
ATOM     11  C   UNL     1       1.440  11.420  19.277  0.00  0.00    +0.000 A 
ATOM     12 CL   UNL     1       2.371  11.673  17.843  0.00  0.00    +0.000 Cl
ATOM     13  C   UNL     1       0.987  10.140  19.635  0.00  0.00    +0.000 A 
ATOM     14  C   UNL     1       1.428   8.861  18.926  0.00  0.00    +0.000 C 
ENDROOT
BRANCH   9  15
ATOM     15  O   UNL     1       0.308  13.409  22.135  0.00  0.00    +0.000 OA
ATOM     16  H   UNL     1      -0.620  13.424  22.444  0.00  0.00    +0.000 HD
ENDBRANCH   9  15
BRANCH  10  17
ATOM     17  O   UNL     1       1.717  13.738  19.899  0.00  0.00    +0.000 OA
ATOM     18  H   UNL     1       1.638  14.220  20.748  0.00  0.00    +0.000 HD
ENDBRANCH  10  17
BRANCH   2  19
ATOM     19  C   UNL     1       3.031   6.471  18.205  0.00  0.00    +0.000 C 
BRANCH  19  20
ATOM     20  C   UNL     1       2.894   5.019  17.715  0.00  0.00    +0.000 C 
BRANCH  20  21
ATOM     21  C   UNL     1       4.200   4.223  17.852  0.00  0.00    +0.000 C 
BRANCH  21  22
ATOM     22  C   UNL     1       5.146   4.446  16.696  0.00  0.00    +0.000 A 
ATOM     23  C   UNL     1       4.880   3.891  15.434  0.00  0.00    +0.000 A 
ATOM     24  C   UNL     1       5.740   4.134  14.360  0.00  0.00    +0.000 A 
ATOM     25  C   UNL     1       6.874   4.918  14.541  0.00  0.00    +0.000 A 
ATOM     26 CL   UNL     1       7.922   5.238  13.208  0.00  0.00    +0.000 Cl
ATOM     27  C   UNL     1       7.159   5.464  15.788  0.00  0.00    +0.000 A 
ATOM     28  C   UNL     1       6.300   5.226  16.864  0.00  0.00    +0.000 A 
ENDBRANCH  21  22
ENDBRANCH  20  21
ENDBRANCH  19  20
ENDBRANCH   2  19
TORSDOF 6
ENDMDL
MODEL 7
REMARK VINA RESULT:      -7.1      5.564      8.541
REMARK  Name = 
REMARK  6 active torsions:
REMARK  status: ('A' for Active; 'I' for Inactive)
REMARK    1  A    between atoms: C_2  and  C_3
REMARK    2  A    between atoms: C_3  and  C_4
REMARK    3  A    between atoms: C_4  and  C_5
REMARK    4  A    between atoms: C_5  and  C_6
REMARK    5  A    between atoms: C_19  and  O_20
REMARK    6  A    between atoms: C_21  and  O_22
REMARK                            x       y       z     vdW  Elec       q    Type
REMARK                         _______ _______ _______ _____ _____    ______ ____
ROOT
ATOM      1  O   UNL     1       2.025   7.243  17.979  0.00  0.00    +0.000 OA
ATOM      2  C   UNL     1       1.951   7.650  19.136  0.00  0.00    +0.000 C 
ATOM      3  N   UNL     1       1.525   8.933  19.438  0.00  0.00    +0.000 N 
ATOM      4  C   UNL     1       1.256   9.815  18.297  0.00  0.00    +0.000 C 
ATOM      5  C   UNL     1       1.597  11.254  18.659  0.00  0.00    +0.000 C 
ATOM      6  C   UNL     1       0.557  11.626  19.687  0.00  0.00    +0.000 A 
ATOM      7  C   UNL     1      -0.367  12.658  19.490  0.00  0.00    +0.000 A 
ATOM      8 CL   UNL     1      -0.286  13.724  18.132  0.00  0.00    +0.000 Cl
ATOM      9  C   UNL     1      -1.444  12.773  20.362  0.00  0.00    +0.000 A 
ATOM     10  C   UNL     1      -1.560  11.931  21.470  0.00  0.00    +0.000 A 
ATOM     11  C   UNL     1      -0.622  10.922  21.709  0.00  0.00    +0.000 A 
ATOM     12 CL   UNL     1      -0.792   9.907  23.098  0.00  0.00    +0.000 Cl
ATOM     13  C   UNL     1       0.409  10.715  20.778  0.00  0.00    +0.000 A 
ATOM     14  C   UNL     1       1.326   9.494  20.793  0.00  0.00    +0.000 C 
ENDROOT
BRANCH   9  15
ATOM     15  O   UNL     1      -2.469  13.666  20.140  0.00  0.00    +0.000 OA
ATOM     16  H   UNL     1      -2.668  14.081  21.003  0.00  0.00    +0.000 HD
ENDBRANCH   9  15
BRANCH  10  17
ATOM     17  O   UNL     1      -2.663  12.085  22.274  0.00  0.00    +0.000 OA
ATOM     18  H   UNL     1      -2.318  12.109  23.189  0.00  0.00    +0.000 HD
ENDBRANCH  10  17
BRANCH   2  19
ATOM     19  C   UNL     1       2.343   6.751  20.298  0.00  0.00    +0.000 C 
BRANCH  19  20
ATOM     20  C   UNL     1       1.833   5.309  20.133  0.00  0.00    +0.000 C 
BRANCH  20  21
ATOM     21  C   UNL     1       2.962   4.271  20.212  0.00  0.00    +0.000 C 
BRANCH  21  22
ATOM     22  C   UNL     1       3.919   4.356  19.047  0.00  0.00    +0.000 A 
ATOM     23  C   UNL     1       5.262   4.713  19.245  0.00  0.00    +0.000 A 
ATOM     24  C   UNL     1       6.150   4.752  18.167  0.00  0.00    +0.000 A 
ATOM     25  C   UNL     1       5.701   4.448  16.887  0.00  0.00    +0.000 A 
ATOM     26 CL   UNL     1       6.804   4.471  15.559  0.00  0.00    +0.000 Cl
ATOM     27  C   UNL     1       4.371   4.105  16.670  0.00  0.00    +0.000 A 
ATOM     28  C   UNL     1       3.480   4.063  17.746  0.00  0.00    +0.000 A 
ENDBRANCH  21  22
ENDBRANCH  20  21
ENDBRANCH  19  20
ENDBRANCH   2  19
TORSDOF 6
ENDMDL
MODEL 8
REMARK VINA RESULT:      -7.0      6.786     10.091
REMARK  Name = 
REMARK  6 active torsions:
REMARK  status: ('A' for Active; 'I' for Inactive)
REMARK    1  A    between atoms: C_2  and  C_3
REMARK    2  A    between atoms: C_3  and  C_4
REMARK    3  A    between atoms: C_4  and  C_5
REMARK    4  A    between atoms: C_5  and  C_6
REMARK    5  A    between atoms: C_19  and  O_20
REMARK    6  A    between atoms: C_21  and  O_22
REMARK                            x       y       z     vdW  Elec       q    Type
REMARK                         _______ _______ _______ _____ _____    ______ ____
ROOT
ATOM      1  O   UNL     1       2.459  11.813  18.652  0.00  0.00    +0.000 OA
ATOM      2  C   UNL     1       1.589  10.973  18.436  0.00  0.00    +0.000 C 
ATOM      3  N   UNL     1       0.278  11.150  18.849  0.00  0.00    +0.000 N 
ATOM      4  C   UNL     1       0.003  12.352  19.643  0.00  0.00    +0.000 C 
ATOM      5  C   UNL     1      -1.098  12.066  20.655  0.00  0.00    +0.000 C 
ATOM      6  C   UNL     1      -2.331  11.875  19.806  0.00  0.00    +0.000 A 
ATOM      7  C   UNL     1      -3.454  12.704  19.904  0.00  0.00    +0.000 A 
ATOM      8 CL   UNL     1      -3.607  13.910  21.133  0.00  0.00    +0.000 Cl
ATOM      9  C   UNL     1      -4.437  12.624  18.924  0.00  0.00    +0.000 A 
ATOM     10  C   UNL     1      -4.355  11.673  17.905  0.00  0.00    +0.000 A 
ATOM     11  C   UNL     1      -3.262  10.806  17.816  0.00  0.00    +0.000 A 
ATOM     12 CL   UNL     1      -3.203   9.633  16.548  0.00  0.00    +0.000 Cl
ATOM     13  C   UNL     1      -2.204  10.946  18.728  0.00  0.00    +0.000 A 
ATOM     14  C   UNL     1      -0.857  10.242  18.572  0.00  0.00    +0.000 C 
ENDROOT
BRANCH   9  15
ATOM     15  O   UNL     1      -5.489  13.512  18.874  0.00  0.00    +0.000 OA
ATOM     16  H   UNL     1      -5.516  13.860  17.960  0.00  0.00    +0.000 HD
ENDBRANCH   9  15
BRANCH  10  17
ATOM     17  O   UNL     1      -5.349  11.669  16.958  0.00  0.00    +0.000 OA
ATOM     18  H   UNL     1      -6.171  11.891  17.440  0.00  0.00    +0.000 HD
ENDBRANCH  10  17
BRANCH   2  19
ATOM     19  C   UNL     1       1.925   9.681  17.706  0.00  0.00    +0.000 C 
BRANCH  19  20
ATOM     20  C   UNL     1       2.263   8.527  18.665  0.00  0.00    +0.000 C 
BRANCH  20  21
ATOM     21  C   UNL     1       2.508   7.201  17.929  0.00  0.00    +0.000 C 
BRANCH  21  22
ATOM     22  C   UNL     1       2.256   5.993  18.799  0.00  0.00    +0.000 A 
ATOM     23  C   UNL     1       2.187   4.707  18.240  0.00  0.00    +0.000 A 
ATOM     24  C   UNL     1       1.993   3.591  19.058  0.00  0.00    +0.000 A 
ATOM     25  C   UNL     1       1.853   3.751  20.431  0.00  0.00    +0.000 A 
ATOM     26 CL   UNL     1       1.639   2.369  21.443  0.00  0.00    +0.000 Cl
ATOM     27  C   UNL     1       1.906   5.019  21.000  0.00  0.00    +0.000 A 
ATOM     28  C   UNL     1       2.102   6.138  20.187  0.00  0.00    +0.000 A 
ENDBRANCH  21  22
ENDBRANCH  20  21
ENDBRANCH  19  20
ENDBRANCH   2  19
TORSDOF 6
ENDMDL
MODEL 9
REMARK VINA RESULT:      -7.0      7.197     10.952
REMARK  Name = 
REMARK  6 active torsions:
REMARK  status: ('A' for Active; 'I' for Inactive)
REMARK    1  A    between atoms: C_2  and  C_3
REMARK    2  A    between atoms: C_3  and  C_4
REMARK    3  A    between atoms: C_4  and  C_5
REMARK    4  A    between atoms: C_5  and  C_6
REMARK    5  A    between atoms: C_19  and  O_20
REMARK    6  A    between atoms: C_21  and  O_22
REMARK                            x       y       z     vdW  Elec       q    Type
REMARK                         _______ _______ _______ _____ _____    ______ ____
ROOT
ATOM      1  O   UNL     1       0.579  10.327  19.832  0.00  0.00    +0.000 OA
ATOM      2  C   UNL     1       1.265  10.943  19.021  0.00  0.00    +0.000 C 
ATOM      3  N   UNL     1       1.204  12.323  18.904  0.00  0.00    +0.000 N 
ATOM      4  C   UNL     1       0.205  13.002  19.736  0.00  0.00    +0.000 C 
ATOM      5  C   UNL     1      -0.329  14.230  19.011  0.00  0.00    +0.000 C 
ATOM      6  C   UNL     1       0.850  15.172  18.977  0.00  0.00    +0.000 A 
ATOM      7  C   UNL     1       0.834  16.426  19.597  0.00  0.00    +0.000 A 
ATOM      8 CL   UNL     1      -0.597  17.091  20.302  0.00  0.00    +0.000 Cl
ATOM      9  C   UNL     1       2.030  17.122  19.739  0.00  0.00    +0.000 A 
ATOM     10  C   UNL     1       3.216  16.624  19.194  0.00  0.00    +0.000 A 
ATOM     11  C   UNL     1       3.242  15.393  18.532  0.00  0.00    +0.000 A 
ATOM     12 CL   UNL     1       4.727  14.815  17.861  0.00  0.00    +0.000 Cl
ATOM     13  C   UNL     1       2.070  14.621  18.479  0.00  0.00    +0.000 A 
ATOM     14  C   UNL     1       2.039  13.165  18.020  0.00  0.00    +0.000 C 
ENDROOT
BRANCH   9  15
ATOM     15  O   UNL     1       2.113  18.286  20.470  0.00  0.00    +0.000 OA
ATOM     16  H   UNL     1       2.348  18.996  19.838  0.00  0.00    +0.000 HD
ENDBRANCH   9  15
BRANCH  10  17
ATOM     17  O   UNL     1       4.363  17.352  19.395  0.00  0.00    +0.000 OA
ATOM     18  H   UNL     1       4.075  18.286  19.436  0.00  0.00    +0.000 HD
ENDBRANCH  10  17
BRANCH   2  19
ATOM     19  C   UNL     1       2.213  10.204  18.090  0.00  0.00    +0.000 C 
BRANCH  19  20
ATOM     20  C   UNL     1       1.724   8.787  17.744  0.00  0.00    +0.000 C 
BRANCH  20  21
ATOM     21  C   UNL     1       2.843   7.739  17.825  0.00  0.00    +0.000 C 
BRANCH  21  22
ATOM     22  C   UNL     1       2.442   6.513  18.610  0.00  0.00    +0.000 A 
ATOM     23  C   UNL     1       2.205   6.591  19.992  0.00  0.00    +0.000 A 
ATOM     24  C   UNL     1       1.797   5.460  20.704  0.00  0.00    +0.000 A 
ATOM     25  C   UNL     1       1.636   4.246  20.047  0.00  0.00    +0.000 A 
ATOM     26 CL   UNL     1       1.107   2.856  20.922  0.00  0.00    +0.000 Cl
ATOM     27  C   UNL     1       1.878   4.148  18.681  0.00  0.00    +0.000 A 
ATOM     28  C   UNL     1       2.284   5.277  17.964  0.00  0.00    +0.000 A 
ENDBRANCH  21  22
ENDBRANCH  20  21
ENDBRANCH  19  20
ENDBRANCH   2  19
TORSDOF 6
ENDMDL
