MODEL 1
REMARK VINA RESULT:      -8.0      0.000      0.000
REMARK  Name = 
REMARK  9 active torsions:
REMARK  status: ('A' for Active; 'I' for Inactive)
REMARK    1  A    between atoms: C_1  and  C_2
REMARK    2  A    between atoms: C_2  and  C_3
REMARK    3  A    between atoms: C_3  and  N_4
REMARK    4  A    between atoms: N_4  and  C_5
REMARK    5  A    between atoms: N_4  and  C_22
REMARK    6  A    between atoms: C_5  and  C_6
REMARK    7  A    between atoms: C_6  and  N_7
REMARK    8  A    between atoms: N_10  and  C_11
REMARK    9  A    between atoms: C_28  and  O_29
REMARK                            x       y       z     vdW  Elec       q    Type
REMARK                         _______ _______ _______ _____ _____    ______ ____
ROOT
ATOM      1  C   UNL     1       2.874   5.611  19.040  0.00  0.00    +0.000 C 
ENDROOT
BRANCH   1   2
ATOM      2  N   UNL     1       2.557   4.253  18.543  0.00  0.00    +0.000 NA
BRANCH   2   3
ATOM      3  C   UNL     1       3.702   3.294  18.621  0.00  0.00    +0.000 C 
ATOM      4  C   UNL     1       4.152   2.779  17.233  0.00  0.00    +0.000 C 
ATOM      5  C   UNL     1       4.714   3.899  16.352  0.00  0.00    +0.000 C 
ATOM      6  C   UNL     1       5.696   4.790  17.068  0.00  0.00    +0.000 A 
ATOM      7  C   UNL     1       6.470   5.694  16.321  0.00  0.00    +0.000 A 
ATOM      8  C   UNL     1       7.386   6.538  16.950  0.00  0.00    +0.000 A 
ATOM      9  C   UNL     1       7.537   6.470  18.328  0.00  0.00    +0.000 A 
ATOM     10  C   UNL     1       6.772   5.590  19.087  0.00  0.00    +0.000 A 
ATOM     11  C   UNL     1       5.822   4.763  18.467  0.00  0.00    +0.000 A 
ATOM     12  C   UNL     1       5.001   3.814  19.309  0.00  0.00    +0.000 C 
BRANCH   9  13
ATOM     13  O   UNL     1       8.433   7.263  18.983  0.00  0.00    +0.000 OA
ATOM     14  H   UNL     1       7.955   8.022  19.356  0.00  0.00    +0.000 HD
ENDBRANCH   9  13
ENDBRANCH   2   3
BRANCH   2  15
ATOM     15  C   UNL     1       1.326   3.699  19.145  0.00  0.00    +0.000 C 
BRANCH  15  17
ATOM     16  C   UNL     1       1.477   2.762  21.532  0.00  0.00    +0.000 C 
ATOM     17  C   UNL     1       1.093   3.942  20.648  0.00  0.00    +0.000 C 
ENDBRANCH  15  17
ENDBRANCH   2  15
ENDBRANCH   1   2
BRANCH   1  18
ATOM     18  C   UNL     1       2.246   6.840  18.311  0.00  0.00    +0.000 C 
BRANCH  18  19
ATOM     19  N   UNL     1       2.545   8.119  18.989  0.00  0.00    +0.000 NA
ATOM     20  C   UNL     1       2.319   9.310  18.133  0.00  0.00    +0.000 C 
ATOM     21  C   UNL     1       0.836   9.659  17.864  0.00  0.00    +0.000 C 
ATOM     22  N   UNL     1       0.159   9.846  19.150  0.00  0.00    +0.000 N 
ATOM     23  C   UNL     1       0.267   8.693  20.060  0.00  0.00    +0.000 C 
ATOM     24  C   UNL     1       1.756   8.298  20.239  0.00  0.00    +0.000 C 
BRANCH  22  25
ATOM     25  C   UNL     1      -0.922  10.707  19.274  0.00  0.00    +0.000 A 
ATOM     26  C   UNL     1      -1.018  11.664  20.294  0.00  0.00    +0.000 A 
ATOM     27  C   UNL     1      -2.146  12.483  20.457  0.00  0.00    +0.000 A 
ATOM     28  C   UNL     1      -3.208  12.305  19.570  0.00  0.00    +0.000 A 
ATOM     29  N   UNL     1      -4.430  12.936  19.498  0.00  0.00    +0.000 N 
ATOM     30  C   UNL     1      -5.172  12.418  18.468  0.00  0.00    +0.000 A 
ATOM     31  C   UNL     1      -4.416  11.440  17.860  0.00  0.00    +0.000 A 
ATOM     32  C   UNL     1      -3.171  11.367  18.544  0.00  0.00    +0.000 A 
ATOM     33  C   UNL     1      -2.016  10.572  18.398  0.00  0.00    +0.000 A 
ATOM     34  H   UNL     1      -4.735  13.664  20.126  0.00  0.00    +0.000 HD
ENDBRANCH  22  25
ENDBRANCH  18  19
ENDBRANCH   1  18
TORSDOF 8
ENDMDL
MODEL 2
REMARK VINA RESULT:      -8.0      1.514      2.316
REMARK  Name = 
REMARK  9 active torsions:
REMARK  status: ('A' for Active; 'I' for Inactive)
REMARK    1  A    between atoms: C_1  and  C_2
REMARK    2  A    between atoms: C_2  and  C_3
REMARK    3  A    between atoms: C_3  and  N_4
REMARK    4  A    between atoms: N_4  and  C_5
REMARK    5  A    between atoms: N_4  and  C_22
REMARK    6  A    between atoms: C_5  and  C_6
REMARK    7  A    between atoms: C_6  and  N_7
REMARK    8  A    between atoms: N_10  and  C_11
REMARK    9  A    between atoms: C_28  and  O_29
REMARK                            x       y       z     vdW  Elec       q    Type
REMARK                         _______ _______ _______ _____ _____    ______ ____
ROOT
ATOM      1  C   UNL     1       3.067   7.066  18.884  0.00  0.00    +0.000 C 
ENDROOT
BRANCH   1   2
ATOM      2  N   UNL     1       2.964   5.591  18.793  0.00  0.00    +0.000 NA
BRANCH   2   3
ATOM      3  C   UNL     1       4.180   4.867  19.278  0.00  0.00    +0.000 C 
ATOM      4  C   UNL     1       4.103   3.338  19.044  0.00  0.00    +0.000 C 
ATOM      5  C   UNL     1       4.072   2.980  17.555  0.00  0.00    +0.000 C 
ATOM      6  C   UNL     1       5.105   3.715  16.739  0.00  0.00    +0.000 A 
ATOM      7  C   UNL     1       5.354   3.303  15.419  0.00  0.00    +0.000 A 
ATOM      8  C   UNL     1       6.299   3.962  14.633  0.00  0.00    +0.000 A 
ATOM      9  C   UNL     1       7.006   5.029  15.171  0.00  0.00    +0.000 A 
ATOM     10  C   UNL     1       6.766   5.459  16.472  0.00  0.00    +0.000 A 
ATOM     11  C   UNL     1       5.791   4.827  17.258  0.00  0.00    +0.000 A 
ATOM     12  C   UNL     1       5.546   5.309  18.669  0.00  0.00    +0.000 C 
BRANCH   9  13
ATOM     13  O   UNL     1       7.952   5.692  14.444  0.00  0.00    +0.000 OA
ATOM     14  H   UNL     1       8.205   6.493  14.931  0.00  0.00    +0.000 HD
ENDBRANCH   9  13
ENDBRANCH   2   3
BRANCH   2  15
ATOM     15  C   UNL     1       1.725   5.067  19.404  0.00  0.00    +0.000 C 
BRANCH  15  17
ATOM     16  C   UNL     1       1.241   3.218  21.120  0.00  0.00    +0.000 C 
ATOM     17  C   UNL     1       1.787   4.619  20.876  0.00  0.00    +0.000 C 
ENDBRANCH  15  17
ENDBRANCH   2  15
ENDBRANCH   1   2
BRANCH   1  18
ATOM     18  C   UNL     1       1.958   7.846  19.656  0.00  0.00    +0.000 C 
BRANCH  18  19
ATOM     19  N   UNL     1       1.898   9.274  19.280  0.00  0.00    +0.000 NA
ATOM     20  C   UNL     1       1.568   9.497  17.850  0.00  0.00    +0.000 C 
ATOM     21  C   UNL     1       0.100   9.206  17.458  0.00  0.00    +0.000 C 
ATOM     22  N   UNL     1      -0.779  10.026  18.296  0.00  0.00    +0.000 N 
ATOM     23  C   UNL     1      -0.578   9.837  19.743  0.00  0.00    +0.000 C 
ATOM     24  C   UNL     1       0.918  10.037  20.101  0.00  0.00    +0.000 C 
BRANCH  22  25
ATOM     25  C   UNL     1      -2.015  10.456  17.835  0.00  0.00    +0.000 A 
ATOM     26  C   UNL     1      -2.413  10.326  16.496  0.00  0.00    +0.000 A 
ATOM     27  C   UNL     1      -3.635  10.826  16.020  0.00  0.00    +0.000 A 
ATOM     28  C   UNL     1      -4.458  11.493  16.928  0.00  0.00    +0.000 A 
ATOM     29  N   UNL     1      -5.682  12.097  16.749  0.00  0.00    +0.000 N 
ATOM     30  C   UNL     1      -6.115  12.650  17.927  0.00  0.00    +0.000 A 
ATOM     31  C   UNL     1      -5.159  12.394  18.885  0.00  0.00    +0.000 A 
ATOM     32  C   UNL     1      -4.112  11.657  18.265  0.00  0.00    +0.000 A 
ATOM     33  C   UNL     1      -2.886  11.127  18.714  0.00  0.00    +0.000 A 
ATOM     34  H   UNL     1      -6.178  12.137  15.871  0.00  0.00    +0.000 HD
ENDBRANCH  22  25
ENDBRANCH  18  19
ENDBRANCH   1  18
TORSDOF 8
ENDMDL
MODEL 3
REMARK VINA RESULT:      -7.7      0.923      1.664
REMARK  Name = 
REMARK  9 active torsions:
REMARK  status: ('A' for Active; 'I' for Inactive)
REMARK    1  A    between atoms: C_1  and  C_2
REMARK    2  A    between atoms: C_2  and  C_3
REMARK    3  A    between atoms: C_3  and  N_4
REMARK    4  A    between atoms: N_4  and  C_5
REMARK    5  A    between atoms: N_4  and  C_22
REMARK    6  A    between atoms: C_5  and  C_6
REMARK    7  A    between atoms: C_6  and  N_7
REMARK    8  A    between atoms: N_10  and  C_11
REMARK    9  A    between atoms: C_28  and  O_29
REMARK                            x       y       z     vdW  Elec       q    Type
REMARK                         _______ _______ _______ _____ _____    ______ ____
ROOT
ATOM      1  C   UNL     1       2.724   5.483  19.037  0.00  0.00    +0.000 C 
ENDROOT
BRANCH   1   2
ATOM      2  N   UNL     1       2.472   4.119  18.519  0.00  0.00    +0.000 NA
BRANCH   2   3
ATOM      3  C   UNL     1       3.631   3.186  18.676  0.00  0.00    +0.000 C 
ATOM      4  C   UNL     1       4.114   2.593  17.330  0.00  0.00    +0.000 C 
ATOM      5  C   UNL     1       4.673   3.666  16.390  0.00  0.00    +0.000 C 
ATOM      6  C   UNL     1       5.628   4.617  17.066  0.00  0.00    +0.000 A 
ATOM      7  C   UNL     1       6.401   5.486  16.276  0.00  0.00    +0.000 A 
ATOM      8  C   UNL     1       7.291   6.383  16.867  0.00  0.00    +0.000 A 
ATOM      9  C   UNL     1       7.420   6.403  18.249  0.00  0.00    +0.000 A 
ATOM     10  C   UNL     1       6.656   5.558  19.048  0.00  0.00    +0.000 A 
ATOM     11  C   UNL     1       5.730   4.679  18.466  0.00  0.00    +0.000 A 
ATOM     12  C   UNL     1       4.910   3.769  19.351  0.00  0.00    +0.000 C 
BRANCH   9  13
ATOM     13  O   UNL     1       8.292   7.250  18.868  0.00  0.00    +0.000 OA
ATOM     14  H   UNL     1       8.101   7.244  19.820  0.00  0.00    +0.000 HD
ENDBRANCH   9  13
ENDBRANCH   2   3
BRANCH   2  15
ATOM     15  C   UNL     1       1.216   3.535  19.035  0.00  0.00    +0.000 C 
BRANCH  15  17
ATOM     16  C   UNL     1       1.428   2.713  21.459  0.00  0.00    +0.000 C 
ATOM     17  C   UNL     1       0.873   3.774  20.517  0.00  0.00    +0.000 C 
ENDBRANCH  15  17
ENDBRANCH   2  15
ENDBRANCH   1   2
BRANCH   1  18
ATOM     18  C   UNL     1       2.155   6.700  18.244  0.00  0.00    +0.000 C 
BRANCH  18  19
ATOM     19  N   UNL     1       2.640   7.996  18.764  0.00  0.00    +0.000 NA
ATOM     20  C   UNL     1       2.212   9.159  17.948  0.00  0.00    +0.000 C 
ATOM     21  C   UNL     1       0.716   9.534  18.064  0.00  0.00    +0.000 C 
ATOM     22  N   UNL     1       0.405   9.786  19.473  0.00  0.00    +0.000 N 
ATOM     23  C   UNL     1       0.733   8.665  20.371  0.00  0.00    +0.000 C 
ATOM     24  C   UNL     1       2.211   8.241  20.169  0.00  0.00    +0.000 C 
BRANCH  22  25
ATOM     25  C   UNL     1      -0.594  10.677  19.840  0.00  0.00    +0.000 A 
ATOM     26  C   UNL     1      -1.426  11.311  18.906  0.00  0.00    +0.000 A 
ATOM     27  C   UNL     1      -2.387  12.265  19.277  0.00  0.00    +0.000 A 
ATOM     28  C   UNL     1      -2.484  12.594  20.629  0.00  0.00    +0.000 A 
ATOM     29  N   UNL     1      -3.302  13.492  21.276  0.00  0.00    +0.000 N 
ATOM     30  C   UNL     1      -3.033  13.498  22.620  0.00  0.00    +0.000 A 
ATOM     31  C   UNL     1      -2.029  12.584  22.849  0.00  0.00    +0.000 A 
ATOM     32  C   UNL     1      -1.680  12.002  21.598  0.00  0.00    +0.000 A 
ATOM     33  C   UNL     1      -0.738  11.035  21.194  0.00  0.00    +0.000 A 
ATOM     34  H   UNL     1      -3.990  14.072  20.818  0.00  0.00    +0.000 HD
ENDBRANCH  22  25
ENDBRANCH  18  19
ENDBRANCH   1  18
TORSDOF 8
ENDMDL
MODEL 4
REMARK VINA RESULT:      -7.6      3.788     10.661
REMARK  Name = 
REMARK  9 active torsions:
REMARK  status: ('A' for Active; 'I' for Inactive)
REMARK    1  A    between atoms: C_1  and  C_2
REMARK    2  A    between atoms: C_2  and  C_3
REMARK    3  A    between atoms: C_3  and  N_4
REMARK    4  A    between atoms: N_4  and  C_5
REMARK    5  A    between atoms: N_4  and  C_22
REMARK    6  A    between atoms: C_5  and  C_6
REMARK    7  A    between atoms: C_6  and  N_7
REMARK    8  A    between atoms: N_10  and  C_11
REMARK    9  A    between atoms: C_28  and  O_29
REMARK                            x       y       z     vdW  Elec       q    Type
REMARK                         _______ _______ _______ _____ _____    ______ ____
ROOT
ATOM      1  C   UNL     1      -2.418  11.903  18.814  0.00  0.00    +0.000 C 
ENDROOT
BRANCH   1   2
ATOM      2  N   UNL     1      -3.719  11.223  18.615  0.00  0.00    +0.000 NA
BRANCH   2   3
ATOM      3  C   UNL     1      -4.832  12.142  18.225  0.00  0.00    +0.000 C 
ATOM      4  C   UNL     1      -6.070  11.391  17.679  0.00  0.00    +0.000 C 
ATOM      5  C   UNL     1      -6.726  10.502  18.741  0.00  0.00    +0.000 C 
ATOM      6  C   UNL     1      -6.914  11.194  20.068  0.00  0.00    +0.000 A 
ATOM      7  C   UNL     1      -7.722  10.588  21.045  0.00  0.00    +0.000 A 
ATOM      8  C   UNL     1      -7.914  11.195  22.286  0.00  0.00    +0.000 A 
ATOM      9  C   UNL     1      -7.308  12.417  22.547  0.00  0.00    +0.000 A 
ATOM     10  C   UNL     1      -6.497  13.027  21.596  0.00  0.00    +0.000 A 
ATOM     11  C   UNL     1      -6.266  12.406  20.358  0.00  0.00    +0.000 A 
ATOM     12  C   UNL     1      -5.382  13.085  19.339  0.00  0.00    +0.000 C 
BRANCH   9  13
ATOM     13  O   UNL     1      -7.484  13.056  23.739  0.00  0.00    +0.000 OA
ATOM     14  H   UNL     1      -7.604  14.004  23.564  0.00  0.00    +0.000 HD
ENDBRANCH   9  13
ENDBRANCH   2   3
BRANCH   2  15
ATOM     15  C   UNL     1      -3.620  10.056  17.713  0.00  0.00    +0.000 C 
BRANCH  15  17
ATOM     16  C   UNL     1      -3.025  10.682  15.294  0.00  0.00    +0.000 C 
ATOM     17  C   UNL     1      -2.543  10.092  16.614  0.00  0.00    +0.000 C 
ENDBRANCH  15  17
ENDBRANCH   2  15
ENDBRANCH   1   2
BRANCH   1  18
ATOM     18  C   UNL     1      -1.892  12.098  20.269  0.00  0.00    +0.000 C 
BRANCH  18  19
ATOM     19  N   UNL     1      -0.420  12.222  20.331  0.00  0.00    +0.000 NA
ATOM     20  C   UNL     1       0.205  11.355  21.360  0.00  0.00    +0.000 C 
ATOM     21  C   UNL     1       0.225   9.844  21.028  0.00  0.00    +0.000 C 
ATOM     22  N   UNL     1       0.912   9.656  19.748  0.00  0.00    +0.000 N 
ATOM     23  C   UNL     1       0.332  10.427  18.635  0.00  0.00    +0.000 C 
ATOM     24  C   UNL     1       0.231  11.925  19.025  0.00  0.00    +0.000 C 
BRANCH  22  25
ATOM     25  C   UNL     1       1.608   8.487  19.471  0.00  0.00    +0.000 A 
ATOM     26  C   UNL     1       1.628   7.391  20.344  0.00  0.00    +0.000 A 
ATOM     27  C   UNL     1       2.391   6.240  20.093  0.00  0.00    +0.000 A 
ATOM     28  C   UNL     1       3.166   6.218  18.934  0.00  0.00    +0.000 A 
ATOM     29  N   UNL     1       4.017   5.253  18.443  0.00  0.00    +0.000 N 
ATOM     30  C   UNL     1       4.588   5.674  17.270  0.00  0.00    +0.000 A 
ATOM     31  C   UNL     1       4.095   6.930  16.993  0.00  0.00    +0.000 A 
ATOM     32  C   UNL     1       3.190   7.279  18.035  0.00  0.00    +0.000 A 
ATOM     33  C   UNL     1       2.399   8.413  18.309  0.00  0.00    +0.000 A 
ATOM     34  H   UNL     1       4.200   4.369  18.894  0.00  0.00    +0.000 HD
ENDBRANCH  22  25
ENDBRANCH  18  19
ENDBRANCH   1  18
TORSDOF 8
ENDMDL
MODEL 5
REMARK VINA RESULT:      -7.6      3.020      9.251
REMARK  Name = 
REMARK  9 active torsions:
REMARK  status: ('A' for Active; 'I' for Inactive)
REMARK    1  A    between atoms: C_1  and  C_2
REMARK    2  A    between atoms: C_2  and  C_3
REMARK    3  A    between atoms: C_3  and  N_4
REMARK    4  A    between atoms: N_4  and  C_5
REMARK    5  A    between atoms: N_4  and  C_22
REMARK    6  A    between atoms: C_5  and  C_6
REMARK    7  A    between atoms: C_6  and  N_7
REMARK    8  A    between atoms: N_10  and  C_11
REMARK    9  A    between atoms: C_28  and  O_29
REMARK                            x       y       z     vdW  Elec       q    Type
REMARK                         _______ _______ _______ _____ _____    ______ ____
ROOT
ATOM      1  C   UNL     1      -1.166  11.007  19.451  0.00  0.00    +0.000 C 
ENDROOT
BRANCH   1   2
ATOM      2  N   UNL     1      -0.997  12.170  20.353  0.00  0.00    +0.000 NA
BRANCH   2   3
ATOM      3  C   UNL     1      -1.110  13.494  19.665  0.00  0.00    +0.000 C 
ATOM      4  C   UNL     1      -0.983  14.691  20.638  0.00  0.00    +0.000 C 
ATOM      5  C   UNL     1       0.403  14.768  21.287  0.00  0.00    +0.000 C 
ATOM      6  C   UNL     1       1.534  14.602  20.304  0.00  0.00    +0.000 A 
ATOM      7  C   UNL     1       2.845  14.898  20.715  0.00  0.00    +0.000 A 
ATOM      8  C   UNL     1       3.918  14.751  19.836  0.00  0.00    +0.000 A 
ATOM      9  C   UNL     1       3.679  14.319  18.538  0.00  0.00    +0.000 A 
ATOM     10  C   UNL     1       2.390  14.010  18.116  0.00  0.00    +0.000 A 
ATOM     11  C   UNL     1       1.308  14.118  19.005  0.00  0.00    +0.000 A 
ATOM     12  C   UNL     1      -0.084  13.779  18.526  0.00  0.00    +0.000 C 
BRANCH   9  13
ATOM     13  O   UNL     1       4.695  14.178  17.639  0.00  0.00    +0.000 OA
ATOM     14  H   UNL     1       5.458  14.689  17.956  0.00  0.00    +0.000 HD
ENDBRANCH   9  13
ENDBRANCH   2   3
BRANCH   2  15
ATOM     15  C   UNL     1      -1.857  12.092  21.552  0.00  0.00    +0.000 C 
BRANCH  15  17
ATOM     16  C   UNL     1      -1.015  10.311  23.200  0.00  0.00    +0.000 C 
ATOM     17  C   UNL     1      -1.177  11.796  22.902  0.00  0.00    +0.000 C 
ENDBRANCH  15  17
ENDBRANCH   2  15
ENDBRANCH   1   2
BRANCH   1  18
ATOM     18  C   UNL     1      -0.448   9.670  19.814  0.00  0.00    +0.000 C 
BRANCH  18  19
ATOM     19  N   UNL     1       1.020   9.817  19.906  0.00  0.00    +0.000 NA
ATOM     20  C   UNL     1       1.681   8.713  20.644  0.00  0.00    +0.000 C 
ATOM     21  C   UNL     1       1.742   7.360  19.896  0.00  0.00    +0.000 C 
ATOM     22  N   UNL     1       2.419   7.565  18.613  0.00  0.00    +0.000 N 
ATOM     23  C   UNL     1       1.805   8.603  17.767  0.00  0.00    +0.000 C 
ATOM     24  C   UNL     1       1.665   9.924  18.567  0.00  0.00    +0.000 C 
BRANCH  22  25
ATOM     25  C   UNL     1       3.146   6.546  18.014  0.00  0.00    +0.000 A 
ATOM     26  C   UNL     1       2.702   5.216  17.981  0.00  0.00    +0.000 A 
ATOM     27  C   UNL     1       3.473   4.177  17.437  0.00  0.00    +0.000 A 
ATOM     28  C   UNL     1       4.734   4.501  16.935  0.00  0.00    +0.000 A 
ATOM     29  N   UNL     1       5.705   3.705  16.372  0.00  0.00    +0.000 N 
ATOM     30  C   UNL     1       6.803   4.456  16.040  0.00  0.00    +0.000 A 
ATOM     31  C   UNL     1       6.536   5.761  16.389  0.00  0.00    +0.000 A 
ATOM     32  C   UNL     1       5.228   5.801  16.949  0.00  0.00    +0.000 A 
ATOM     33  C   UNL     1       4.421   6.824  17.487  0.00  0.00    +0.000 A 
ATOM     34  H   UNL     1       5.621   2.708  16.237  0.00  0.00    +0.000 HD
ENDBRANCH  22  25
ENDBRANCH  18  19
ENDBRANCH   1  18
TORSDOF 8
ENDMDL
MODEL 6
REMARK VINA RESULT:      -7.4      1.217      2.067
REMARK  Name = 
REMARK  9 active torsions:
REMARK  status: ('A' for Active; 'I' for Inactive)
REMARK    1  A    between atoms: C_1  and  C_2
REMARK    2  A    between atoms: C_2  and  C_3
REMARK    3  A    between atoms: C_3  and  N_4
REMARK    4  A    between atoms: N_4  and  C_5
REMARK    5  A    between atoms: N_4  and  C_22
REMARK    6  A    between atoms: C_5  and  C_6
REMARK    7  A    between atoms: C_6  and  N_7
REMARK    8  A    between atoms: N_10  and  C_11
REMARK    9  A    between atoms: C_28  and  O_29
REMARK                            x       y       z     vdW  Elec       q    Type
REMARK                         _______ _______ _______ _____ _____    ______ ____
ROOT
ATOM      1  C   UNL     1       3.332   6.295  18.884  0.00  0.00    +0.000 C 
ENDROOT
BRANCH   1   2
ATOM      2  N   UNL     1       3.020   4.952  19.424  0.00  0.00    +0.000 NA
BRANCH   2   3
ATOM      3  C   UNL     1       4.226   4.111  19.697  0.00  0.00    +0.000 C 
ATOM      4  C   UNL     1       4.078   2.659  19.178  0.00  0.00    +0.000 C 
ATOM      5  C   UNL     1       3.964   2.596  17.652  0.00  0.00    +0.000 C 
ATOM      6  C   UNL     1       4.987   3.444  16.939  0.00  0.00    +0.000 A 
ATOM      7  C   UNL     1       5.159   3.288  15.553  0.00  0.00    +0.000 A 
ATOM      8  C   UNL     1       6.092   4.058  14.859  0.00  0.00    +0.000 A 
ATOM      9  C   UNL     1       6.864   4.979  15.553  0.00  0.00    +0.000 A 
ATOM     10  C   UNL     1       6.702   5.156  16.923  0.00  0.00    +0.000 A 
ATOM     11  C   UNL     1       5.739   4.413  17.624  0.00  0.00    +0.000 A 
ATOM     12  C   UNL     1       5.579   4.620  19.113  0.00  0.00    +0.000 C 
BRANCH   9  13
ATOM     13  O   UNL     1       7.802   5.740  14.918  0.00  0.00    +0.000 OA
ATOM     14  H   UNL     1       7.576   6.676  15.048  0.00  0.00    +0.000 HD
ENDBRANCH   9  13
ENDBRANCH   2   3
BRANCH   2  15
ATOM     15  C   UNL     1       2.104   5.002  20.584  0.00  0.00    +0.000 C 
BRANCH  15  17
ATOM     16  C   UNL     1       0.682   3.303  19.284  0.00  0.00    +0.000 C 
ATOM     17  C   UNL     1       0.935   4.000  20.615  0.00  0.00    +0.000 C 
ENDBRANCH  15  17
ENDBRANCH   2  15
ENDBRANCH   1   2
BRANCH   1  18
ATOM     18  C   UNL     1       2.151   7.232  18.482  0.00  0.00    +0.000 C 
BRANCH  18  19
ATOM     19  N   UNL     1       2.347   8.624  18.940  0.00  0.00    +0.000 NA
ATOM     20  C   UNL     1       1.891   9.640  17.959  0.00  0.00    +0.000 C 
ATOM     21  C   UNL     1       0.356   9.775  17.813  0.00  0.00    +0.000 C 
ATOM     22  N   UNL     1      -0.214  10.076  19.129  0.00  0.00    +0.000 N 
ATOM     23  C   UNL     1       0.126   9.091  20.171  0.00  0.00    +0.000 C 
ATOM     24  C   UNL     1       1.664   8.898  20.235  0.00  0.00    +0.000 C 
BRANCH  22  25
ATOM     25  C   UNL     1      -1.380  10.818  19.254  0.00  0.00    +0.000 A 
ATOM     26  C   UNL     1      -2.404  10.789  18.297  0.00  0.00    +0.000 A 
ATOM     27  C   UNL     1      -3.549  11.595  18.392  0.00  0.00    +0.000 A 
ATOM     28  C   UNL     1      -3.639  12.466  19.479  0.00  0.00    +0.000 A 
ATOM     29  N   UNL     1      -4.614  13.375  19.819  0.00  0.00    +0.000 N 
ATOM     30  C   UNL     1      -4.269  14.033  20.971  0.00  0.00    +0.000 A 
ATOM     31  C   UNL     1      -3.053  13.538  21.387  0.00  0.00    +0.000 A 
ATOM     32  C   UNL     1      -2.650  12.542  20.454  0.00  0.00    +0.000 A 
ATOM     33  C   UNL     1      -1.521  11.705  20.338  0.00  0.00    +0.000 A 
ATOM     34  H   UNL     1      -5.454  13.540  19.286  0.00  0.00    +0.000 HD
ENDBRANCH  22  25
ENDBRANCH  18  19
ENDBRANCH   1  18
TORSDOF 8
ENDMDL
MODEL 7
REMARK VINA RESULT:      -7.4      1.350      1.823
REMARK  Name = 
REMARK  9 active torsions:
REMARK  status: ('A' for Active; 'I' for Inactive)
REMARK    1  A    between atoms: C_1  and  C_2
REMARK    2  A    between atoms: C_2  and  C_3
REMARK    3  A    between atoms: C_3  and  N_4
REMARK    4  A    between atoms: N_4  and  C_5
REMARK    5  A    between atoms: N_4  and  C_22
REMARK    6  A    between atoms: C_5  and  C_6
REMARK    7  A    between atoms: C_6  and  N_7
REMARK    8  A    between atoms: N_10  and  C_11
REMARK    9  A    between atoms: C_28  and  O_29
REMARK                            x       y       z     vdW  Elec       q    Type
REMARK                         _______ _______ _______ _____ _____    ______ ____
ROOT
ATOM      1  C   UNL     1       3.128   6.854  18.572  0.00  0.00    +0.000 C 
ENDROOT
BRANCH   1   2
ATOM      2  N   UNL     1       3.026   5.389  18.763  0.00  0.00    +0.000 NA
BRANCH   2   3
ATOM      3  C   UNL     1       4.294   4.747  19.227  0.00  0.00    +0.000 C 
ATOM      4  C   UNL     1       4.306   3.213  19.015  0.00  0.00    +0.000 C 
ATOM      5  C   UNL     1       4.260   2.830  17.533  0.00  0.00    +0.000 C 
ATOM      6  C   UNL     1       5.225   3.615  16.681  0.00  0.00    +0.000 A 
ATOM      7  C   UNL     1       5.466   3.198  15.361  0.00  0.00    +0.000 A 
ATOM      8  C   UNL     1       6.349   3.901  14.541  0.00  0.00    +0.000 A 
ATOM      9  C   UNL     1       7.003   5.017  15.046  0.00  0.00    +0.000 A 
ATOM     10  C   UNL     1       6.770   5.452  16.347  0.00  0.00    +0.000 A 
ATOM     11  C   UNL     1       5.854   4.773  17.167  0.00  0.00    +0.000 A 
ATOM     12  C   UNL     1       5.616   5.261  18.577  0.00  0.00    +0.000 C 
BRANCH   9  13
ATOM     13  O   UNL     1       7.888   5.725  14.287  0.00  0.00    +0.000 OA
ATOM     14  H   UNL     1       7.425   6.489  13.908  0.00  0.00    +0.000 HD
ENDBRANCH   9  13
ENDBRANCH   2   3
BRANCH   2  15
ATOM     15  C   UNL     1       1.870   5.001  19.598  0.00  0.00    +0.000 C 
BRANCH  15  17
ATOM     16  C   UNL     1       1.738   3.271  21.492  0.00  0.00    +0.000 C 
ATOM     17  C   UNL     1       2.134   4.684  21.082  0.00  0.00    +0.000 C 
ENDBRANCH  15  17
ENDBRANCH   2  15
ENDBRANCH   1   2
BRANCH   1  18
ATOM     18  C   UNL     1       1.816   7.699  18.562  0.00  0.00    +0.000 C 
BRANCH  18  19
ATOM     19  N   UNL     1       1.999   9.043  19.151  0.00  0.00    +0.000 NA
ATOM     20  C   UNL     1       1.647  10.148  18.225  0.00  0.00    +0.000 C 
ATOM     21  C   UNL     1       0.133  10.335  17.965  0.00  0.00    +0.000 C 
ATOM     22  N   UNL     1      -0.541  10.540  19.249  0.00  0.00    +0.000 N 
ATOM     23  C   UNL     1      -0.309   9.464  20.229  0.00  0.00    +0.000 C 
ATOM     24  C   UNL     1       1.214   9.226  20.403  0.00  0.00    +0.000 C 
BRANCH  22  25
ATOM     25  C   UNL     1      -1.699  11.299  19.339  0.00  0.00    +0.000 A 
ATOM     26  C   UNL     1      -1.943  12.188  20.396  0.00  0.00    +0.000 A 
ATOM     27  C   UNL     1      -3.146  12.900  20.520  0.00  0.00    +0.000 A 
ATOM     28  C   UNL     1      -4.129  12.683  19.554  0.00  0.00    +0.000 A 
ATOM     29  N   UNL     1      -5.394  13.211  19.429  0.00  0.00    +0.000 N 
ATOM     30  C   UNL     1      -6.020  12.690  18.326  0.00  0.00    +0.000 A 
ATOM     31  C   UNL     1      -5.144  11.814  17.724  0.00  0.00    +0.000 A 
ATOM     32  C   UNL     1      -3.945  11.807  18.489  0.00  0.00    +0.000 A 
ATOM     33  C   UNL     1      -2.718  11.121  18.384  0.00  0.00    +0.000 A 
ATOM     34  H   UNL     1      -5.802  13.877  20.068  0.00  0.00    +0.000 HD
ENDBRANCH  22  25
ENDBRANCH  18  19
ENDBRANCH   1  18
TORSDOF 8
ENDMDL
MODEL 8
REMARK VINA RESULT:      -7.3      2.845      3.582
REMARK  Name = 
REMARK  9 active torsions:
REMARK  status: ('A' for Active; 'I' for Inactive)
REMARK    1  A    between atoms: C_1  and  C_2
REMARK    2  A    between atoms: C_2  and  C_3
REMARK    3  A    between atoms: C_3  and  N_4
REMARK    4  A    between atoms: N_4  and  C_5
REMARK    5  A    between atoms: N_4  and  C_22
REMARK    6  A    between atoms: C_5  and  C_6
REMARK    7  A    between atoms: C_6  and  N_7
REMARK    8  A    between atoms: N_10  and  C_11
REMARK    9  A    between atoms: C_28  and  O_29
REMARK                            x       y       z     vdW  Elec       q    Type
REMARK                         _______ _______ _______ _____ _____    ______ ____
ROOT
ATOM      1  C   UNL     1       3.037   6.843  18.803  0.00  0.00    +0.000 C 
ENDROOT
BRANCH   1   2
ATOM      2  N   UNL     1       2.850   5.385  18.982  0.00  0.00    +0.000 NA
BRANCH   2   3
ATOM      3  C   UNL     1       4.077   4.666  19.444  0.00  0.00    +0.000 C 
ATOM      4  C   UNL     1       4.032   3.146  19.152  0.00  0.00    +0.000 C 
ATOM      5  C   UNL     1       4.012   2.844  17.651  0.00  0.00    +0.000 C 
ATOM      6  C   UNL     1       5.033   3.629  16.868  0.00  0.00    +0.000 A 
ATOM      7  C   UNL     1       5.295   3.272  15.534  0.00  0.00    +0.000 A 
ATOM      8  C   UNL     1       6.229   3.979  14.777  0.00  0.00    +0.000 A 
ATOM      9  C   UNL     1       6.913   5.038  15.357  0.00  0.00    +0.000 A 
ATOM     10  C   UNL     1       6.660   5.414  16.672  0.00  0.00    +0.000 A 
ATOM     11  C   UNL     1       5.695   4.733  17.431  0.00  0.00    +0.000 A 
ATOM     12  C   UNL     1       5.436   5.157  18.858  0.00  0.00    +0.000 C 
BRANCH   9  13
ATOM     13  O   UNL     1       7.848   5.746  14.660  0.00  0.00    +0.000 OA
ATOM     14  H   UNL     1       7.523   6.654  14.546  0.00  0.00    +0.000 HD
ENDBRANCH   9  13
ENDBRANCH   2   3
BRANCH   2  15
ATOM     15  C   UNL     1       1.670   5.059  19.811  0.00  0.00    +0.000 C 
BRANCH  15  17
ATOM     16  C   UNL     1       1.265   2.985  21.271  0.00  0.00    +0.000 C 
ATOM     17  C   UNL     1       1.917   4.357  21.160  0.00  0.00    +0.000 C 
ENDBRANCH  15  17
ENDBRANCH   2  15
ENDBRANCH   1   2
BRANCH   1  18
ATOM     18  C   UNL     1       2.253   7.817  19.736  0.00  0.00    +0.000 C 
BRANCH  18  19
ATOM     19  N   UNL     1       1.105   8.455  19.058  0.00  0.00    +0.000 NA
ATOM     20  C   UNL     1       0.396   9.449  19.901  0.00  0.00    +0.000 C 
ATOM     21  C   UNL     1       1.154  10.779  20.133  0.00  0.00    +0.000 C 
ATOM     22  N   UNL     1       1.462  11.374  18.831  0.00  0.00    +0.000 N 
ATOM     23  C   UNL     1       2.223  10.490  17.931  0.00  0.00    +0.000 C 
ATOM     24  C   UNL     1       1.497   9.127  17.789  0.00  0.00    +0.000 C 
BRANCH  22  25
ATOM     25  C   UNL     1       1.567  12.749  18.677  0.00  0.00    +0.000 A 
ATOM     26  C   UNL     1       2.778  13.390  18.381  0.00  0.00    +0.000 A 
ATOM     27  C   UNL     1       2.893  14.786  18.297  0.00  0.00    +0.000 A 
ATOM     28  C   UNL     1       1.748  15.545  18.542  0.00  0.00    +0.000 A 
ATOM     29  N   UNL     1       1.563  16.909  18.552  0.00  0.00    +0.000 N 
ATOM     30  C   UNL     1       0.263  17.210  18.866  0.00  0.00    +0.000 A 
ATOM     31  C   UNL     1      -0.407  16.021  19.057  0.00  0.00    +0.000 A 
ATOM     32  C   UNL     1       0.522  14.964  18.847  0.00  0.00    +0.000 A 
ATOM     33  C   UNL     1       0.437  13.558  18.906  0.00  0.00    +0.000 A 
ATOM     34  H   UNL     1       2.288  17.586  18.368  0.00  0.00    +0.000 HD
ENDBRANCH  22  25
ENDBRANCH  18  19
ENDBRANCH   1  18
TORSDOF 8
ENDMDL
MODEL 9
REMARK VINA RESULT:      -7.3      1.135      1.904
REMARK  Name = 
REMARK  9 active torsions:
REMARK  status: ('A' for Active; 'I' for Inactive)
REMARK    1  A    between atoms: C_1  and  C_2
REMARK    2  A    between atoms: C_2  and  C_3
REMARK    3  A    between atoms: C_3  and  N_4
REMARK    4  A    between atoms: N_4  and  C_5
REMARK    5  A    between atoms: N_4  and  C_22
REMARK    6  A    between atoms: C_5  and  C_6
REMARK    7  A    between atoms: C_6  and  N_7
REMARK    8  A    between atoms: N_10  and  C_11
REMARK    9  A    between atoms: C_28  and  O_29
REMARK                            x       y       z     vdW  Elec       q    Type
REMARK                         _______ _______ _______ _____ _____    ______ ____
ROOT
ATOM      1  C   UNL     1       2.662   6.035  19.375  0.00  0.00    +0.000 C 
ENDROOT
BRANCH   1   2
ATOM      2  N   UNL     1       2.294   4.607  19.244  0.00  0.00    +0.000 NA
BRANCH   2   3
ATOM      3  C   UNL     1       3.445   3.666  19.400  0.00  0.00    +0.000 C 
ATOM      4  C   UNL     1       3.438   2.526  18.352  0.00  0.00    +0.000 C 
ATOM      5  C   UNL     1       3.624   3.049  16.924  0.00  0.00    +0.000 C 
ATOM      6  C   UNL     1       4.743   4.050  16.793  0.00  0.00    +0.000 A 
ATOM      7  C   UNL     1       5.183   4.419  15.510  0.00  0.00    +0.000 A 
ATOM      8  C   UNL     1       6.213   5.346  15.350  0.00  0.00    +0.000 A 
ATOM      9  C   UNL     1       6.813   5.897  16.474  0.00  0.00    +0.000 A 
ATOM     10  C   UNL     1       6.384   5.553  17.751  0.00  0.00    +0.000 A 
ATOM     11  C   UNL     1       5.323   4.650  17.923  0.00  0.00    +0.000 A 
ATOM     12  C   UNL     1       4.873   4.289  19.320  0.00  0.00    +0.000 C 
BRANCH   9  13
ATOM     13  O   UNL     1       7.836   6.794  16.364  0.00  0.00    +0.000 OA
ATOM     14  H   UNL     1       8.595   6.344  15.958  0.00  0.00    +0.000 HD
ENDBRANCH   9  13
ENDBRANCH   2   3
BRANCH   2  15
ATOM     15  C   UNL     1       1.150   4.232  20.104  0.00  0.00    +0.000 C 
BRANCH  15  17
ATOM     16  C   UNL     1       1.454   2.519  21.993  0.00  0.00    +0.000 C 
ATOM     17  C   UNL     1       1.041   2.761  20.546  0.00  0.00    +0.000 C 
ENDBRANCH  15  17
ENDBRANCH   2  15
ENDBRANCH   1   2
BRANCH   1  18
ATOM     18  C   UNL     1       1.852   7.093  18.562  0.00  0.00    +0.000 C 
BRANCH  18  19
ATOM     19  N   UNL     1       2.240   8.482  18.888  0.00  0.00    +0.000 NA
ATOM     20  C   UNL     1       1.666   9.490  17.964  0.00  0.00    +0.000 C 
ATOM     21  C   UNL     1       0.148   9.747  18.126  0.00  0.00    +0.000 C 
ATOM     22  N   UNL     1      -0.112  10.149  19.511  0.00  0.00    +0.000 N 
ATOM     23  C   UNL     1       0.364   9.184  20.517  0.00  0.00    +0.000 C 
ATOM     24  C   UNL     1       1.863   8.866  20.277  0.00  0.00    +0.000 C 
BRANCH  22  25
ATOM     25  C   UNL     1      -1.170  10.990  19.827  0.00  0.00    +0.000 A 
ATOM     26  C   UNL     1      -2.123  11.399  18.884  0.00  0.00    +0.000 A 
ATOM     27  C   UNL     1      -3.149  12.306  19.192  0.00  0.00    +0.000 A 
ATOM     28  C   UNL     1      -3.188  12.823  20.487  0.00  0.00    +0.000 A 
ATOM     29  N   UNL     1      -4.047  13.730  21.064  0.00  0.00    +0.000 N 
ATOM     30  C   UNL     1      -3.690  13.962  22.367  0.00  0.00    +0.000 A 
ATOM     31  C   UNL     1      -2.585  13.187  22.641  0.00  0.00    +0.000 A 
ATOM     32  C   UNL     1      -2.264  12.459  21.462  0.00  0.00    +0.000 A 
ATOM     33  C   UNL     1      -1.257  11.532  21.124  0.00  0.00    +0.000 A 
ATOM     34  H   UNL     1      -4.820  14.170  20.586  0.00  0.00    +0.000 HD
ENDBRANCH  22  25
ENDBRANCH  18  19
ENDBRANCH   1  18
TORSDOF 8
ENDMDL
