MODEL 1
REMARK VINA RESULT:      -5.6      0.000      0.000
REMARK  Name = 
REMARK  5 active torsions:
REMARK  status: ('A' for Active; 'I' for Inactive)
REMARK    1  A    between atoms: C_1  and  C_2
REMARK    2  A    between atoms: C_2  and  C_3
REMARK    3  A    between atoms: C_4  and  C_5
REMARK    4  A    between atoms: C_5  and  C_6
REMARK    5  A    between atoms: C_7  and  C_8
REMARK                            x       y       z     vdW  Elec       q    Type
REMARK                         _______ _______ _______ _____ _____    ______ ____
ROOT
ATOM      1  C   UNL     1       5.994   5.572  18.510  0.00  0.00    +0.000 C 
ATOM      2  C   UNL     1       6.024   6.389  17.445  0.00  0.00    +0.000 C 
ATOM      3  C   UNL     1       4.962   6.578  16.412  0.00  0.00    +0.000 C 
ATOM      4  C   UNL     1       7.283   7.199  17.324  0.00  0.00    +0.000 C 
ATOM      5  C   UNL     1       8.121   6.823  18.532  0.00  0.00    +0.000 C 
ATOM      6  C   UNL     1       7.258   5.820  19.240  0.00  0.00    +0.000 C 
ATOM      7  O   UNL     1       7.563   5.294  20.299  0.00  0.00    +0.000 OA
ENDROOT
BRANCH   1   8
ATOM      8  C   UNL     1       4.950   4.604  18.958  0.00  0.00    +0.000 C 
BRANCH   8  10
ATOM      9  C   UNL     1       2.511   5.310  19.183  0.00  0.00    +0.000 C 
ATOM     10  C   UNL     1       3.772   5.248  19.637  0.00  0.00    +0.000 C 
BRANCH   9  12
ATOM     11  C   UNL     1       1.393   3.329  18.174  0.00  0.00    +0.000 C 
ATOM     12  C   UNL     1       2.001   4.695  17.916  0.00  0.00    +0.000 C 
ENDBRANCH   9  12
ENDBRANCH   8  10
ENDBRANCH   1   8
TORSDOF 3
ENDMDL
MODEL 2
REMARK VINA RESULT:      -5.5      1.914      2.292
REMARK  Name = 
REMARK  5 active torsions:
REMARK  status: ('A' for Active; 'I' for Inactive)
REMARK    1  A    between atoms: C_1  and  C_2
REMARK    2  A    between atoms: C_2  and  C_3
REMARK    3  A    between atoms: C_4  and  C_5
REMARK    4  A    between atoms: C_5  and  C_6
REMARK    5  A    between atoms: C_7  and  C_8
REMARK                            x       y       z     vdW  Elec       q    Type
REMARK                         _______ _______ _______ _____ _____    ______ ____
ROOT
ATOM      1  C   UNL     1       5.204   4.077  17.083  0.00  0.00    +0.000 C 
ATOM      2  C   UNL     1       5.889   4.406  15.976  0.00  0.00    +0.000 C 
ATOM      3  C   UNL     1       5.433   4.299  14.558  0.00  0.00    +0.000 C 
ATOM      4  C   UNL     1       7.261   4.954  16.240  0.00  0.00    +0.000 C 
ATOM      5  C   UNL     1       7.399   4.984  17.752  0.00  0.00    +0.000 C 
ATOM      6  C   UNL     1       6.080   4.441  18.219  0.00  0.00    +0.000 C 
ATOM      7  O   UNL     1       5.771   4.338  19.396  0.00  0.00    +0.000 OA
ENDROOT
BRANCH   1   8
ATOM      8  C   UNL     1       3.842   3.487  17.238  0.00  0.00    +0.000 C 
BRANCH   8  10
ATOM      9  C   UNL     1       1.584   4.283  18.113  0.00  0.00    +0.000 C 
ATOM     10  C   UNL     1       2.765   4.501  17.516  0.00  0.00    +0.000 C 
BRANCH   9  12
ATOM     11  C   UNL     1       1.050   3.030  20.196  0.00  0.00    +0.000 C 
ATOM     12  C   UNL     1       1.113   2.979  18.681  0.00  0.00    +0.000 C 
ENDBRANCH   9  12
ENDBRANCH   8  10
ENDBRANCH   1   8
TORSDOF 3
ENDMDL
MODEL 3
REMARK VINA RESULT:      -5.5      2.624      3.179
REMARK  Name = 
REMARK  5 active torsions:
REMARK  status: ('A' for Active; 'I' for Inactive)
REMARK    1  A    between atoms: C_1  and  C_2
REMARK    2  A    between atoms: C_2  and  C_3
REMARK    3  A    between atoms: C_4  and  C_5
REMARK    4  A    between atoms: C_5  and  C_6
REMARK    5  A    between atoms: C_7  and  C_8
REMARK                            x       y       z     vdW  Elec       q    Type
REMARK                         _______ _______ _______ _____ _____    ______ ____
ROOT
ATOM      1  C   UNL     1       4.075   4.639  17.603  0.00  0.00    +0.000 C 
ATOM      2  C   UNL     1       3.799   5.939  17.789  0.00  0.00    +0.000 C 
ATOM      3  C   UNL     1       2.948   6.546  18.855  0.00  0.00    +0.000 C 
ATOM      4  C   UNL     1       4.453   6.856  16.796  0.00  0.00    +0.000 C 
ATOM      5  C   UNL     1       5.276   5.954  15.895  0.00  0.00    +0.000 C 
ATOM      6  C   UNL     1       5.012   4.588  16.458  0.00  0.00    +0.000 C 
ATOM      7  O   UNL     1       5.530   3.568  16.028  0.00  0.00    +0.000 OA
ENDROOT
BRANCH   1   8
ATOM      8  C   UNL     1       3.605   3.433  18.348  0.00  0.00    +0.000 C 
BRANCH   8  10
ATOM      9  C   UNL     1       1.104   3.085  18.697  0.00  0.00    +0.000 C 
ATOM     10  C   UNL     1       2.223   2.979  17.964  0.00  0.00    +0.000 C 
BRANCH   9  12
ATOM     11  C   UNL     1       1.341   2.765  21.153  0.00  0.00    +0.000 C 
ATOM     12  C   UNL     1       0.992   3.736  20.041  0.00  0.00    +0.000 C 
ENDBRANCH   9  12
ENDBRANCH   8  10
ENDBRANCH   1   8
TORSDOF 3
ENDMDL
MODEL 4
REMARK VINA RESULT:      -5.4      2.007      2.890
REMARK  Name = 
REMARK  5 active torsions:
REMARK  status: ('A' for Active; 'I' for Inactive)
REMARK    1  A    between atoms: C_1  and  C_2
REMARK    2  A    between atoms: C_2  and  C_3
REMARK    3  A    between atoms: C_4  and  C_5
REMARK    4  A    between atoms: C_5  and  C_6
REMARK    5  A    between atoms: C_7  and  C_8
REMARK                            x       y       z     vdW  Elec       q    Type
REMARK                         _______ _______ _______ _____ _____    ______ ____
ROOT
ATOM      1  C   UNL     1       3.491   5.259  19.459  0.00  0.00    +0.000 C 
ATOM      2  C   UNL     1       3.373   6.331  18.660  0.00  0.00    +0.000 C 
ATOM      3  C   UNL     1       2.358   7.424  18.746  0.00  0.00    +0.000 C 
ATOM      4  C   UNL     1       4.409   6.410  17.576  0.00  0.00    +0.000 C 
ATOM      5  C   UNL     1       5.306   5.204  17.789  0.00  0.00    +0.000 C 
ATOM      6  C   UNL     1       4.692   4.537  18.985  0.00  0.00    +0.000 C 
ATOM      7  O   UNL     1       5.151   3.532  19.507  0.00  0.00    +0.000 OA
ENDROOT
BRANCH   1   8
ATOM      8  C   UNL     1       2.656   4.817  20.615  0.00  0.00    +0.000 C 
BRANCH   8  10
ATOM      9  C   UNL     1       0.915   3.221  19.656  0.00  0.00    +0.000 C 
ATOM     10  C   UNL     1       1.267   4.380  20.232  0.00  0.00    +0.000 C 
BRANCH   9  12
ATOM     11  C   UNL     1       2.276   2.147  17.871  0.00  0.00    +0.000 C 
ATOM     12  C   UNL     1       1.837   2.089  19.322  0.00  0.00    +0.000 C 
ENDBRANCH   9  12
ENDBRANCH   8  10
ENDBRANCH   1   8
TORSDOF 3
ENDMDL
MODEL 5
REMARK VINA RESULT:      -5.4      1.972      2.697
REMARK  Name = 
REMARK  5 active torsions:
REMARK  status: ('A' for Active; 'I' for Inactive)
REMARK    1  A    between atoms: C_1  and  C_2
REMARK    2  A    between atoms: C_2  and  C_3
REMARK    3  A    between atoms: C_4  and  C_5
REMARK    4  A    between atoms: C_5  and  C_6
REMARK    5  A    between atoms: C_7  and  C_8
REMARK                            x       y       z     vdW  Elec       q    Type
REMARK                         _______ _______ _______ _____ _____    ______ ____
ROOT
ATOM      1  C   UNL     1       4.678   4.263  17.552  0.00  0.00    +0.000 C 
ATOM      2  C   UNL     1       5.809   4.313  16.831  0.00  0.00    +0.000 C 
ATOM      3  C   UNL     1       6.017   3.842  15.429  0.00  0.00    +0.000 C 
ATOM      4  C   UNL     1       6.972   4.936  17.549  0.00  0.00    +0.000 C 
ATOM      5  C   UNL     1       6.431   5.350  18.906  0.00  0.00    +0.000 C 
ATOM      6  C   UNL     1       4.995   4.919  18.840  0.00  0.00    +0.000 C 
ATOM      7  O   UNL     1       4.190   5.112  19.739  0.00  0.00    +0.000 OA
ENDROOT
BRANCH   1   8
ATOM      8  C   UNL     1       3.337   3.706  17.210  0.00  0.00    +0.000 C 
BRANCH   8  10
ATOM      9  C   UNL     1       2.040   2.069  18.672  0.00  0.00    +0.000 C 
ATOM     10  C   UNL     1       3.051   2.371  17.843  0.00  0.00    +0.000 C 
BRANCH   9  12
ATOM     11  C   UNL     1       1.176   3.512  20.505  0.00  0.00    +0.000 C 
ATOM     12  C   UNL     1       0.944   2.998  19.097  0.00  0.00    +0.000 C 
ENDBRANCH   9  12
ENDBRANCH   8  10
ENDBRANCH   1   8
TORSDOF 3
ENDMDL
MODEL 6
REMARK VINA RESULT:      -5.4      2.778      5.231
REMARK  Name = 
REMARK  5 active torsions:
REMARK  status: ('A' for Active; 'I' for Inactive)
REMARK    1  A    between atoms: C_1  and  C_2
REMARK    2  A    between atoms: C_2  and  C_3
REMARK    3  A    between atoms: C_4  and  C_5
REMARK    4  A    between atoms: C_5  and  C_6
REMARK    5  A    between atoms: C_7  and  C_8
REMARK                            x       y       z     vdW  Elec       q    Type
REMARK                         _______ _______ _______ _____ _____    ______ ____
ROOT
ATOM      1  C   UNL     1       2.272   4.135  18.518  0.00  0.00    +0.000 C 
ATOM      2  C   UNL     1       2.223   5.250  19.264  0.00  0.00    +0.000 C 
ATOM      3  C   UNL     1       2.726   6.609  18.903  0.00  0.00    +0.000 C 
ATOM      4  C   UNL     1       1.566   5.069  20.601  0.00  0.00    +0.000 C 
ATOM      5  C   UNL     1       1.126   3.617  20.641  0.00  0.00    +0.000 C 
ATOM      6  C   UNL     1       1.579   3.094  19.310  0.00  0.00    +0.000 C 
ATOM      7  O   UNL     1       1.376   1.950  18.929  0.00  0.00    +0.000 OA
ENDROOT
BRANCH   1   8
ATOM      8  C   UNL     1       2.857   3.900  17.165  0.00  0.00    +0.000 C 
BRANCH   8  10
ATOM      9  C   UNL     1       5.323   4.119  16.558  0.00  0.00    +0.000 C 
ATOM     10  C   UNL     1       4.309   3.506  17.188  0.00  0.00    +0.000 C 
BRANCH   9  12
ATOM     11  C   UNL     1       5.529   6.599  16.571  0.00  0.00    +0.000 C 
ATOM     12  C   UNL     1       5.222   5.369  15.738  0.00  0.00    +0.000 C 
ENDBRANCH   9  12
ENDBRANCH   8  10
ENDBRANCH   1   8
TORSDOF 3
ENDMDL
MODEL 7
REMARK VINA RESULT:      -5.4      2.518      5.109
REMARK  Name = 
REMARK  5 active torsions:
REMARK  status: ('A' for Active; 'I' for Inactive)
REMARK    1  A    between atoms: C_1  and  C_2
REMARK    2  A    between atoms: C_2  and  C_3
REMARK    3  A    between atoms: C_4  and  C_5
REMARK    4  A    between atoms: C_5  and  C_6
REMARK    5  A    between atoms: C_7  and  C_8
REMARK                            x       y       z     vdW  Elec       q    Type
REMARK                         _______ _______ _______ _____ _____    ______ ____
ROOT
ATOM      1  C   UNL     1       3.009   3.160  19.514  0.00  0.00    +0.000 C 
ATOM      2  C   UNL     1       1.873   3.736  19.092  0.00  0.00    +0.000 C 
ATOM      3  C   UNL     1       1.569   4.259  17.726  0.00  0.00    +0.000 C 
ATOM      4  C   UNL     1       0.804   3.833  20.142  0.00  0.00    +0.000 C 
ATOM      5  C   UNL     1       1.393   3.179  21.378  0.00  0.00    +0.000 C 
ATOM      6  C   UNL     1       2.761   2.767  20.918  0.00  0.00    +0.000 C 
ATOM      7  O   UNL     1       3.555   2.161  21.622  0.00  0.00    +0.000 OA
ENDROOT
BRANCH   1   8
ATOM      8  C   UNL     1       4.292   2.908  18.793  0.00  0.00    +0.000 C 
BRANCH   8  10
ATOM      9  C   UNL     1       5.444   4.747  17.456  0.00  0.00    +0.000 C 
ATOM     10  C   UNL     1       5.142   4.136  18.611  0.00  0.00    +0.000 C 
BRANCH   9  12
ATOM     11  C   UNL     1       5.918   4.773  15.013  0.00  0.00    +0.000 C 
ATOM     12  C   UNL     1       4.943   4.358  16.098  0.00  0.00    +0.000 C 
ENDBRANCH   9  12
ENDBRANCH   8  10
ENDBRANCH   1   8
TORSDOF 3
ENDMDL
MODEL 8
REMARK VINA RESULT:      -5.4      2.415      3.594
REMARK  Name = 
REMARK  5 active torsions:
REMARK  status: ('A' for Active; 'I' for Inactive)
REMARK    1  A    between atoms: C_1  and  C_2
REMARK    2  A    between atoms: C_2  and  C_3
REMARK    3  A    between atoms: C_4  and  C_5
REMARK    4  A    between atoms: C_5  and  C_6
REMARK    5  A    between atoms: C_7  and  C_8
REMARK                            x       y       z     vdW  Elec       q    Type
REMARK                         _______ _______ _______ _____ _____    ______ ____
ROOT
ATOM      1  C   UNL     1       2.894   4.564  17.813  0.00  0.00    +0.000 C 
ATOM      2  C   UNL     1       3.415   5.758  18.136  0.00  0.00    +0.000 C 
ATOM      3  C   UNL     1       2.681   7.037  18.376  0.00  0.00    +0.000 C 
ATOM      4  C   UNL     1       4.909   5.761  18.277  0.00  0.00    +0.000 C 
ATOM      5  C   UNL     1       5.340   4.327  18.028  0.00  0.00    +0.000 C 
ATOM      6  C   UNL     1       4.039   3.628  17.761  0.00  0.00    +0.000 C 
ATOM      7  O   UNL     1       3.948   2.428  17.549  0.00  0.00    +0.000 OA
ENDROOT
BRANCH   1   8
ATOM      8  C   UNL     1       1.478   4.162  17.561  0.00  0.00    +0.000 C 
BRANCH   8  10
ATOM      9  C   UNL     1       0.878   2.991  19.745  0.00  0.00    +0.000 C 
ATOM     10  C   UNL     1       1.011   3.010  18.410  0.00  0.00    +0.000 C 
BRANCH   9  12
ATOM     11  C   UNL     1       2.338   3.908  21.539  0.00  0.00    +0.000 C 
ATOM     12  C   UNL     1       1.118   4.145  20.669  0.00  0.00    +0.000 C 
ENDBRANCH   9  12
ENDBRANCH   8  10
ENDBRANCH   1   8
TORSDOF 3
ENDMDL
MODEL 9
REMARK VINA RESULT:      -5.4      2.571      5.469
REMARK  Name = 
REMARK  5 active torsions:
REMARK  status: ('A' for Active; 'I' for Inactive)
REMARK    1  A    between atoms: C_1  and  C_2
REMARK    2  A    between atoms: C_2  and  C_3
REMARK    3  A    between atoms: C_4  and  C_5
REMARK    4  A    between atoms: C_5  and  C_6
REMARK    5  A    between atoms: C_7  and  C_8
REMARK                            x       y       z     vdW  Elec       q    Type
REMARK                         _______ _______ _______ _____ _____    ______ ____
ROOT
ATOM      1  C   UNL     1       2.215   4.735  18.572  0.00  0.00    +0.000 C 
ATOM      2  C   UNL     1       1.664   4.716  19.795  0.00  0.00    +0.000 C 
ATOM      3  C   UNL     1       1.637   5.822  20.799  0.00  0.00    +0.000 C 
ATOM      4  C   UNL     1       0.994   3.420  20.150  0.00  0.00    +0.000 C 
ATOM      5  C   UNL     1       1.147   2.539  18.924  0.00  0.00    +0.000 C 
ATOM      6  C   UNL     1       1.901   3.420  17.971  0.00  0.00    +0.000 C 
ATOM      7  O   UNL     1       2.195   3.087  16.832  0.00  0.00    +0.000 OA
ENDROOT
BRANCH   1   8
ATOM      8  C   UNL     1       2.981   5.808  17.872  0.00  0.00    +0.000 C 
BRANCH   8  10
ATOM      9  C   UNL     1       5.456   5.685  17.277  0.00  0.00    +0.000 C 
ATOM     10  C   UNL     1       4.457   5.796  18.165  0.00  0.00    +0.000 C 
BRANCH   9  12
ATOM     11  C   UNL     1       6.445   4.825  15.161  0.00  0.00    +0.000 C 
ATOM     12  C   UNL     1       5.306   5.606  15.788  0.00  0.00    +0.000 C 
ENDBRANCH   9  12
ENDBRANCH   8  10
ENDBRANCH   1   8
TORSDOF 3
ENDMDL
