MODEL 1
REMARK VINA RESULT:      -7.6      0.000      0.000
REMARK  Name = 
REMARK  7 active torsions:
REMARK  status: ('A' for Active; 'I' for Inactive)
REMARK    1  A    between atoms: C_1  and  C_2
REMARK    2  A    between atoms: C_2  and  C_3
REMARK    3  A    between atoms: C_2  and  C_4
REMARK    4  A    between atoms: C_4  and  C_5
REMARK    5  A    between atoms: C_5  and  N_6
REMARK    6  A    between atoms: C_7  and  C_9
REMARK    7  A    between atoms: N_15  and  C_16
REMARK                            x       y       z     vdW  Elec       q    Type
REMARK                         _______ _______ _______ _____ _____    ______ ____
ROOT
ATOM      1  C   UNL     1       1.232   8.601  20.580  0.00  0.00    +0.000 A 
ATOM      2  C   UNL     1       0.847   8.582  21.924  0.00  0.00    +0.000 A 
ATOM      3  C   UNL     1       0.165   9.674  22.468  0.00  0.00    +0.000 A 
ATOM      4  C   UNL     1      -0.151  10.783  21.674  0.00  0.00    +0.000 A 
ATOM      5  C   UNL     1       0.211  10.802  20.321  0.00  0.00    +0.000 A 
ATOM      6  C   UNL     1       0.926   9.719  19.784  0.00  0.00    +0.000 A 
ATOM      7  N   UNL     1      -0.096  11.941  19.528  0.00  0.00    +0.000 N 
ATOM      8  C   UNL     1       0.946  12.495  18.683  0.00  0.00    +0.000 C 
ATOM      9  C   UNL     1      -1.415  12.208  19.143  0.00  0.00    +0.000 C 
ATOM     10  O   UNL     1      -1.682  12.502  17.974  0.00  0.00    +0.000 OA
ATOM     11  C   UNL     1      -2.528  12.270  20.148  0.00  0.00    +0.000 A 
ATOM     12  C   UNL     1      -3.828  12.414  19.611  0.00  0.00    +0.000 A 
ATOM     13  C   UNL     1      -4.926  12.703  20.422  0.00  0.00    +0.000 A 
ATOM     14  C   UNL     1      -4.749  12.848  21.790  0.00  0.00    +0.000 A 
ATOM     15  C   UNL     1      -3.481  12.677  22.341  0.00  0.00    +0.000 A 
ATOM     16  C   UNL     1      -2.364  12.380  21.538  0.00  0.00    +0.000 A 
ATOM     17  S   UNL     1      -0.837  12.230  22.444  0.00  0.00    +0.000 S 
ENDROOT
BRANCH   1  19
ATOM     18  N   UNL     1       2.079   6.311  20.690  0.00  0.00    +0.000 N 
ATOM     19  C   UNL     1       2.026   7.490  19.984  0.00  0.00    +0.000 C 
ATOM     20  O   UNL     1       2.583   7.663  18.906  0.00  0.00    +0.000 OA
ATOM     21  H   UNL     1       1.516   6.189  21.525  0.00  0.00    +0.000 HD
BRANCH  18  22
ATOM     22  C   UNL     1       2.870   5.175  20.241  0.00  0.00    +0.000 C 
BRANCH  22  23
ATOM     23  C   UNL     1       2.125   4.306  19.225  0.00  0.00    +0.000 C 
BRANCH  23  25
ATOM     24  C   UNL     1       0.616   2.270  18.903  0.00  0.00    +0.000 C 
ATOM     25  C   UNL     1       0.995   3.436  19.817  0.00  0.00    +0.000 C 
ATOM     26  C   UNL     1       1.414   2.892  21.187  0.00  0.00    +0.000 C 
ENDBRANCH  23  25
ENDBRANCH  22  23
ENDBRANCH  18  22
ENDBRANCH   1  19
TORSDOF 4
ENDMDL
MODEL 2
REMARK VINA RESULT:      -7.1      3.142      4.587
REMARK  Name = 
REMARK  7 active torsions:
REMARK  status: ('A' for Active; 'I' for Inactive)
REMARK    1  A    between atoms: C_1  and  C_2
REMARK    2  A    between atoms: C_2  and  C_3
REMARK    3  A    between atoms: C_2  and  C_4
REMARK    4  A    between atoms: C_4  and  C_5
REMARK    5  A    between atoms: C_5  and  N_6
REMARK    6  A    between atoms: C_7  and  C_9
REMARK    7  A    between atoms: N_15  and  C_16
REMARK                            x       y       z     vdW  Elec       q    Type
REMARK                         _______ _______ _______ _____ _____    ______ ____
ROOT
ATOM      1  C   UNL     1       2.406   7.405  19.190  0.00  0.00    +0.000 A 
ATOM      2  C   UNL     1       2.328   7.970  17.913  0.00  0.00    +0.000 A 
ATOM      3  C   UNL     1       1.463   9.041  17.679  0.00  0.00    +0.000 A 
ATOM      4  C   UNL     1       0.683   9.567  18.716  0.00  0.00    +0.000 A 
ATOM      5  C   UNL     1       0.771   9.023  20.003  0.00  0.00    +0.000 A 
ATOM      6  C   UNL     1       1.615   7.924  20.230  0.00  0.00    +0.000 A 
ATOM      7  N   UNL     1      -0.041   9.550  21.045  0.00  0.00    +0.000 N 
ATOM      8  C   UNL     1      -0.768   8.621  21.891  0.00  0.00    +0.000 C 
ATOM      9  C   UNL     1       0.234  10.807  21.595  0.00  0.00    +0.000 C 
ATOM     10  O   UNL     1       0.253  10.967  22.820  0.00  0.00    +0.000 OA
ATOM     11  C   UNL     1       0.389  12.025  20.732  0.00  0.00    +0.000 A 
ATOM     12  C   UNL     1       0.796  13.202  21.403  0.00  0.00    +0.000 A 
ATOM     13  C   UNL     1       0.770  14.447  20.774  0.00  0.00    +0.000 A 
ATOM     14  C   UNL     1       0.343  14.542  19.458  0.00  0.00    +0.000 A 
ATOM     15  C   UNL     1      -0.030  13.390  18.771  0.00  0.00    +0.000 A 
ATOM     16  C   UNL     1      -0.005  12.125  19.388  0.00  0.00    +0.000 A 
ATOM     17  S   UNL     1      -0.547  10.792  18.336  0.00  0.00    +0.000 S 
ENDROOT
BRANCH   1  19
ATOM     18  N   UNL     1       4.349   6.026  18.644  0.00  0.00    +0.000 N 
ATOM     19  C   UNL     1       3.259   6.213  19.462  0.00  0.00    +0.000 C 
ATOM     20  O   UNL     1       2.967   5.467  20.390  0.00  0.00    +0.000 OA
ATOM     21  H   UNL     1       4.601   6.730  17.958  0.00  0.00    +0.000 HD
BRANCH  18  22
ATOM     22  C   UNL     1       5.222   4.869  18.772  0.00  0.00    +0.000 C 
BRANCH  22  23
ATOM     23  C   UNL     1       6.599   5.232  19.333  0.00  0.00    +0.000 C 
BRANCH  23  25
ATOM     24  C   UNL     1       7.384   4.825  16.937  0.00  0.00    +0.000 C 
ATOM     25  C   UNL     1       7.681   5.514  18.269  0.00  0.00    +0.000 C 
ATOM     26  C   UNL     1       7.814   7.024  18.042  0.00  0.00    +0.000 C 
ENDBRANCH  23  25
ENDBRANCH  22  23
ENDBRANCH  18  22
ENDBRANCH   1  19
TORSDOF 4
ENDMDL
MODEL 3
REMARK VINA RESULT:      -7.0      1.005      1.246
REMARK  Name = 
REMARK  7 active torsions:
REMARK  status: ('A' for Active; 'I' for Inactive)
REMARK    1  A    between atoms: C_1  and  C_2
REMARK    2  A    between atoms: C_2  and  C_3
REMARK    3  A    between atoms: C_2  and  C_4
REMARK    4  A    between atoms: C_4  and  C_5
REMARK    5  A    between atoms: C_5  and  N_6
REMARK    6  A    between atoms: C_7  and  C_9
REMARK    7  A    between atoms: N_15  and  C_16
REMARK                            x       y       z     vdW  Elec       q    Type
REMARK                         _______ _______ _______ _____ _____    ______ ____
ROOT
ATOM      1  C   UNL     1       1.086   8.459  20.823  0.00  0.00    +0.000 A 
ATOM      2  C   UNL     1       0.672   8.538  22.157  0.00  0.00    +0.000 A 
ATOM      3  C   UNL     1       0.029   9.689  22.619  0.00  0.00    +0.000 A 
ATOM      4  C   UNL     1      -0.221  10.761  21.753  0.00  0.00    +0.000 A 
ATOM      5  C   UNL     1       0.170  10.683  20.411  0.00  0.00    +0.000 A 
ATOM      6  C   UNL     1       0.847   9.539  19.956  0.00  0.00    +0.000 A 
ATOM      7  N   UNL     1      -0.069  11.785  19.544  0.00  0.00    +0.000 N 
ATOM      8  C   UNL     1       1.014  12.241  18.693  0.00  0.00    +0.000 C 
ATOM      9  C   UNL     1      -1.367  12.084  19.114  0.00  0.00    +0.000 C 
ATOM     10  O   UNL     1      -1.596  12.319  17.923  0.00  0.00    +0.000 OA
ATOM     11  C   UNL     1      -2.497  12.255  20.086  0.00  0.00    +0.000 A 
ATOM     12  C   UNL     1      -3.778  12.423  19.511  0.00  0.00    +0.000 A 
ATOM     13  C   UNL     1      -4.878  12.807  20.278  0.00  0.00    +0.000 A 
ATOM     14  C   UNL     1      -4.723  13.027  21.639  0.00  0.00    +0.000 A 
ATOM     15  C   UNL     1      -3.477  12.834  22.229  0.00  0.00    +0.000 A 
ATOM     16  C   UNL     1      -2.357  12.441  21.471  0.00  0.00    +0.000 A 
ATOM     17  S   UNL     1      -0.858  12.280  22.421  0.00  0.00    +0.000 S 
ENDROOT
BRANCH   1  19
ATOM     18  N   UNL     1       2.373   7.380  19.049  0.00  0.00    +0.000 N 
ATOM     19  C   UNL     1       1.842   7.281  20.313  0.00  0.00    +0.000 C 
ATOM     20  O   UNL     1       1.966   6.293  21.029  0.00  0.00    +0.000 OA
ATOM     21  H   UNL     1       2.329   8.257  18.542  0.00  0.00    +0.000 HD
BRANCH  18  22
ATOM     22  C   UNL     1       3.081   6.276  18.419  0.00  0.00    +0.000 C 
BRANCH  22  23
ATOM     23  C   UNL     1       2.135   5.191  17.898  0.00  0.00    +0.000 C 
BRANCH  23  25
ATOM     24  C   UNL     1       1.067   3.385  19.354  0.00  0.00    +0.000 C 
ATOM     25  C   UNL     1       2.304   3.807  18.561  0.00  0.00    +0.000 C 
ATOM     26  C   UNL     1       2.611   2.749  17.496  0.00  0.00    +0.000 C 
ENDBRANCH  23  25
ENDBRANCH  22  23
ENDBRANCH  18  22
ENDBRANCH   1  19
TORSDOF 4
ENDMDL
MODEL 4
REMARK VINA RESULT:      -7.0      0.926      1.296
REMARK  Name = 
REMARK  7 active torsions:
REMARK  status: ('A' for Active; 'I' for Inactive)
REMARK    1  A    between atoms: C_1  and  C_2
REMARK    2  A    between atoms: C_2  and  C_3
REMARK    3  A    between atoms: C_2  and  C_4
REMARK    4  A    between atoms: C_4  and  C_5
REMARK    5  A    between atoms: C_5  and  N_6
REMARK    6  A    between atoms: C_7  and  C_9
REMARK    7  A    between atoms: N_15  and  C_16
REMARK                            x       y       z     vdW  Elec       q    Type
REMARK                         _______ _______ _______ _____ _____    ______ ____
ROOT
ATOM      1  C   UNL     1       1.459   8.446  20.134  0.00  0.00    +0.000 A 
ATOM      2  C   UNL     1       1.049   8.301  21.463  0.00  0.00    +0.000 A 
ATOM      3  C   UNL     1       0.380   9.348  22.102  0.00  0.00    +0.000 A 
ATOM      4  C   UNL     1       0.101  10.537  21.418  0.00  0.00    +0.000 A 
ATOM      5  C   UNL     1       0.488  10.684  20.081  0.00  0.00    +0.000 A 
ATOM      6  C   UNL     1       1.191   9.644  19.449  0.00  0.00    +0.000 A 
ATOM      7  N   UNL     1       0.220  11.904  19.401  0.00  0.00    +0.000 N 
ATOM      8  C   UNL     1       1.289  12.516  18.634  0.00  0.00    +0.000 C 
ATOM      9  C   UNL     1      -1.086  12.236  19.024  0.00  0.00    +0.000 C 
ATOM     10  O   UNL     1      -1.325  12.652  17.886  0.00  0.00    +0.000 OA
ATOM     11  C   UNL     1      -2.216  12.222  20.011  0.00  0.00    +0.000 A 
ATOM     12  C   UNL     1      -3.503  12.449  19.469  0.00  0.00    +0.000 A 
ATOM     13  C   UNL     1      -4.610  12.679  20.287  0.00  0.00    +0.000 A 
ATOM     14  C   UNL     1      -4.455  12.682  21.665  0.00  0.00    +0.000 A 
ATOM     15  C   UNL     1      -3.202  12.429  22.218  0.00  0.00    +0.000 A 
ATOM     16  C   UNL     1      -2.076  12.189  21.407  0.00  0.00    +0.000 A 
ATOM     17  S   UNL     1      -0.570  11.915  22.319  0.00  0.00    +0.000 S 
ENDROOT
BRANCH   1  19
ATOM     18  N   UNL     1       2.817   6.416  20.234  0.00  0.00    +0.000 N 
ATOM     19  C   UNL     1       2.242   7.383  19.443  0.00  0.00    +0.000 C 
ATOM     20  O   UNL     1       2.334   7.406  18.220  0.00  0.00    +0.000 OA
ATOM     21  H   UNL     1       2.624   6.387  21.229  0.00  0.00    +0.000 HD
BRANCH  18  22
ATOM     22  C   UNL     1       3.653   5.361  19.681  0.00  0.00    +0.000 C 
BRANCH  22  23
ATOM     23  C   UNL     1       2.892   4.046  19.493  0.00  0.00    +0.000 C 
BRANCH  23  25
ATOM     24  C   UNL     1       2.289   2.248  17.783  0.00  0.00    +0.000 C 
ATOM     25  C   UNL     1       3.383   3.172  18.320  0.00  0.00    +0.000 C 
ATOM     26  C   UNL     1       3.902   4.060  17.184  0.00  0.00    +0.000 C 
ENDBRANCH  23  25
ENDBRANCH  22  23
ENDBRANCH  18  22
ENDBRANCH   1  19
TORSDOF 4
ENDMDL
MODEL 5
REMARK VINA RESULT:      -7.0      0.993      1.155
REMARK  Name = 
REMARK  7 active torsions:
REMARK  status: ('A' for Active; 'I' for Inactive)
REMARK    1  A    between atoms: C_1  and  C_2
REMARK    2  A    between atoms: C_2  and  C_3
REMARK    3  A    between atoms: C_2  and  C_4
REMARK    4  A    between atoms: C_4  and  C_5
REMARK    5  A    between atoms: C_5  and  N_6
REMARK    6  A    between atoms: C_7  and  C_9
REMARK    7  A    between atoms: N_15  and  C_16
REMARK                            x       y       z     vdW  Elec       q    Type
REMARK                         _______ _______ _______ _____ _____    ______ ____
ROOT
ATOM      1  C   UNL     1       1.624   8.388  19.768  0.00  0.00    +0.000 A 
ATOM      2  C   UNL     1       1.261   8.168  21.100  0.00  0.00    +0.000 A 
ATOM      3  C   UNL     1       0.636   9.184  21.828  0.00  0.00    +0.000 A 
ATOM      4  C   UNL     1       0.354  10.418  21.229  0.00  0.00    +0.000 A 
ATOM      5  C   UNL     1       0.693  10.640  19.889  0.00  0.00    +0.000 A 
ATOM      6  C   UNL     1       1.352   9.630  19.168  0.00  0.00    +0.000 A 
ATOM      7  N   UNL     1       0.422  11.904  19.296  0.00  0.00    +0.000 N 
ATOM      8  C   UNL     1       1.472  12.545  18.526  0.00  0.00    +0.000 C 
ATOM      9  C   UNL     1      -0.891  12.280  18.990  0.00  0.00    +0.000 C 
ATOM     10  O   UNL     1      -1.165  12.769  17.890  0.00  0.00    +0.000 OA
ATOM     11  C   UNL     1      -1.983  12.224  20.018  0.00  0.00    +0.000 A 
ATOM     12  C   UNL     1      -3.285  12.504  19.541  0.00  0.00    +0.000 A 
ATOM     13  C   UNL     1      -4.356  12.701  20.414  0.00  0.00    +0.000 A 
ATOM     14  C   UNL     1      -4.149  12.616  21.783  0.00  0.00    +0.000 A 
ATOM     15  C   UNL     1      -2.881  12.309  22.270  0.00  0.00    +0.000 A 
ATOM     16  C   UNL     1      -1.791  12.102  21.403  0.00  0.00    +0.000 A 
ATOM     17  S   UNL     1      -0.257  11.748  22.238  0.00  0.00    +0.000 S 
ENDROOT
BRANCH   1  19
ATOM     18  N   UNL     1       2.278   6.058  19.427  0.00  0.00    +0.000 N 
ATOM     19  C   UNL     1       2.360   7.357  18.983  0.00  0.00    +0.000 C 
ATOM     20  O   UNL     1       2.990   7.698  17.988  0.00  0.00    +0.000 OA
ATOM     21  H   UNL     1       1.660   5.817  20.194  0.00  0.00    +0.000 HD
BRANCH  18  22
ATOM     22  C   UNL     1       3.000   4.973  18.780  0.00  0.00    +0.000 C 
BRANCH  22  23
ATOM     23  C   UNL     1       2.148   4.236  17.743  0.00  0.00    +0.000 C 
BRANCH  23  25
ATOM     24  C   UNL     1       3.213   2.048  18.516  0.00  0.00    +0.000 C 
ATOM     25  C   UNL     1       1.939   2.733  18.022  0.00  0.00    +0.000 C 
ATOM     26  C   UNL     1       0.824   2.541  19.056  0.00  0.00    +0.000 C 
ENDBRANCH  23  25
ENDBRANCH  22  23
ENDBRANCH  18  22
ENDBRANCH   1  19
TORSDOF 4
ENDMDL
MODEL 6
REMARK VINA RESULT:      -7.0      2.907      3.863
REMARK  Name = 
REMARK  7 active torsions:
REMARK  status: ('A' for Active; 'I' for Inactive)
REMARK    1  A    between atoms: C_1  and  C_2
REMARK    2  A    between atoms: C_2  and  C_3
REMARK    3  A    between atoms: C_2  and  C_4
REMARK    4  A    between atoms: C_4  and  C_5
REMARK    5  A    between atoms: C_5  and  N_6
REMARK    6  A    between atoms: C_7  and  C_9
REMARK    7  A    between atoms: N_15  and  C_16
REMARK                            x       y       z     vdW  Elec       q    Type
REMARK                         _______ _______ _______ _____ _____    ______ ____
ROOT
ATOM      1  C   UNL     1       2.378   7.563  19.006  0.00  0.00    +0.000 A 
ATOM      2  C   UNL     1       2.239   8.173  17.755  0.00  0.00    +0.000 A 
ATOM      3  C   UNL     1       1.337   9.228  17.592  0.00  0.00    +0.000 A 
ATOM      4  C   UNL     1       0.582   9.692  18.676  0.00  0.00    +0.000 A 
ATOM      5  C   UNL     1       0.730   9.103  19.937  0.00  0.00    +0.000 A 
ATOM      6  C   UNL     1       1.611   8.020  20.092  0.00  0.00    +0.000 A 
ATOM      7  N   UNL     1      -0.057   9.567  21.026  0.00  0.00    +0.000 N 
ATOM      8  C   UNL     1      -0.729   8.587  21.860  0.00  0.00    +0.000 C 
ATOM      9  C   UNL     1       0.203  10.810  21.615  0.00  0.00    +0.000 C 
ATOM     10  O   UNL     1       0.262  10.924  22.843  0.00  0.00    +0.000 OA
ATOM     11  C   UNL     1       0.295  12.063  20.794  0.00  0.00    +0.000 A 
ATOM     12  C   UNL     1       0.694  13.224  21.496  0.00  0.00    +0.000 A 
ATOM     13  C   UNL     1       0.613  14.492  20.917  0.00  0.00    +0.000 A 
ATOM     14  C   UNL     1       0.136  14.624  19.621  0.00  0.00    +0.000 A 
ATOM     15  C   UNL     1      -0.231  13.489  18.903  0.00  0.00    +0.000 A 
ATOM     16  C   UNL     1      -0.149  12.202  19.470  0.00  0.00    +0.000 A 
ATOM     17  S   UNL     1      -0.693  10.896  18.387  0.00  0.00    +0.000 S 
ENDROOT
BRANCH   1  19
ATOM     18  N   UNL     1       4.228   6.162  18.239  0.00  0.00    +0.000 N 
ATOM     19  C   UNL     1       3.271   6.386  19.201  0.00  0.00    +0.000 C 
ATOM     20  O   UNL     1       3.128   5.684  20.195  0.00  0.00    +0.000 OA
ATOM     21  H   UNL     1       4.369   6.833  17.492  0.00  0.00    +0.000 HD
BRANCH  18  22
ATOM     22  C   UNL     1       5.120   5.013  18.288  0.00  0.00    +0.000 C 
BRANCH  22  23
ATOM     23  C   UNL     1       4.775   3.956  17.237  0.00  0.00    +0.000 C 
BRANCH  23  25
ATOM     24  C   UNL     1       4.053   2.525  19.225  0.00  0.00    +0.000 C 
ATOM     25  C   UNL     1       3.862   2.815  17.736  0.00  0.00    +0.000 C 
ATOM     26  C   UNL     1       2.394   3.162  17.468  0.00  0.00    +0.000 C 
ENDBRANCH  23  25
ENDBRANCH  22  23
ENDBRANCH  18  22
ENDBRANCH   1  19
TORSDOF 4
ENDMDL
MODEL 7
REMARK VINA RESULT:      -6.9      1.406      2.085
REMARK  Name = 
REMARK  7 active torsions:
REMARK  status: ('A' for Active; 'I' for Inactive)
REMARK    1  A    between atoms: C_1  and  C_2
REMARK    2  A    between atoms: C_2  and  C_3
REMARK    3  A    between atoms: C_2  and  C_4
REMARK    4  A    between atoms: C_4  and  C_5
REMARK    5  A    between atoms: C_5  and  N_6
REMARK    6  A    between atoms: C_7  and  C_9
REMARK    7  A    between atoms: N_15  and  C_16
REMARK                            x       y       z     vdW  Elec       q    Type
REMARK                         _______ _______ _______ _____ _____    ______ ____
ROOT
ATOM      1  C   UNL     1       1.444   8.364  20.149  0.00  0.00    +0.000 A 
ATOM      2  C   UNL     1       1.065   8.251  21.490  0.00  0.00    +0.000 A 
ATOM      3  C   UNL     1       0.432   9.321  22.128  0.00  0.00    +0.000 A 
ATOM      4  C   UNL     1       0.158  10.503  21.430  0.00  0.00    +0.000 A 
ATOM      5  C   UNL     1       0.514  10.619  20.081  0.00  0.00    +0.000 A 
ATOM      6  C   UNL     1       1.181   9.556  19.450  0.00  0.00    +0.000 A 
ATOM      7  N   UNL     1       0.250  11.832  19.386  0.00  0.00    +0.000 N 
ATOM      8  C   UNL     1       1.310  12.410  18.582  0.00  0.00    +0.000 C 
ATOM      9  C   UNL     1      -1.059  12.182  19.036  0.00  0.00    +0.000 C 
ATOM     10  O   UNL     1      -1.319  12.582  17.897  0.00  0.00    +0.000 OA
ATOM     11  C   UNL     1      -2.163  12.206  20.051  0.00  0.00    +0.000 A 
ATOM     12  C   UNL     1      -3.459  12.447  19.538  0.00  0.00    +0.000 A 
ATOM     13  C   UNL     1      -4.540  12.712  20.379  0.00  0.00    +0.000 A 
ATOM     14  C   UNL     1      -4.350  12.737  21.753  0.00  0.00    +0.000 A 
ATOM     15  C   UNL     1      -3.088  12.469  22.278  0.00  0.00    +0.000 A 
ATOM     16  C   UNL     1      -1.988  12.194  21.444  0.00  0.00    +0.000 A 
ATOM     17  S   UNL     1      -0.464  11.908  22.323  0.00  0.00    +0.000 S 
ENDROOT
BRANCH   1  19
ATOM     18  N   UNL     1       2.615   6.221  20.231  0.00  0.00    +0.000 N 
ATOM     19  C   UNL     1       2.190   7.275  19.457  0.00  0.00    +0.000 C 
ATOM     20  O   UNL     1       2.383   7.355  18.249  0.00  0.00    +0.000 OA
ATOM     21  H   UNL     1       2.339   6.156  21.205  0.00  0.00    +0.000 HD
BRANCH  18  22
ATOM     22  C   UNL     1       3.402   5.127  19.682  0.00  0.00    +0.000 C 
BRANCH  22  23
ATOM     23  C   UNL     1       4.841   5.540  19.364  0.00  0.00    +0.000 C 
BRANCH  23  25
ATOM     24  C   UNL     1       4.218   4.547  17.095  0.00  0.00    +0.000 C 
ATOM     25  C   UNL     1       5.295   5.259  17.916  0.00  0.00    +0.000 C 
ATOM     26  C   UNL     1       5.679   6.570  17.222  0.00  0.00    +0.000 C 
ENDBRANCH  23  25
ENDBRANCH  22  23
ENDBRANCH  18  22
ENDBRANCH   1  19
TORSDOF 4
ENDMDL
MODEL 8
REMARK VINA RESULT:      -6.9      3.142      4.242
REMARK  Name = 
REMARK  7 active torsions:
REMARK  status: ('A' for Active; 'I' for Inactive)
REMARK    1  A    between atoms: C_1  and  C_2
REMARK    2  A    between atoms: C_2  and  C_3
REMARK    3  A    between atoms: C_2  and  C_4
REMARK    4  A    between atoms: C_4  and  C_5
REMARK    5  A    between atoms: C_5  and  N_6
REMARK    6  A    between atoms: C_7  and  C_9
REMARK    7  A    between atoms: N_15  and  C_16
REMARK                            x       y       z     vdW  Elec       q    Type
REMARK                         _______ _______ _______ _____ _____    ______ ____
ROOT
ATOM      1  C   UNL     1       2.546   7.319  19.201  0.00  0.00    +0.000 A 
ATOM      2  C   UNL     1       2.477   7.862  17.914  0.00  0.00    +0.000 A 
ATOM      3  C   UNL     1       1.604   8.921  17.651  0.00  0.00    +0.000 A 
ATOM      4  C   UNL     1       0.808   9.457  18.671  0.00  0.00    +0.000 A 
ATOM      5  C   UNL     1       0.886   8.935  19.967  0.00  0.00    +0.000 A 
ATOM      6  C   UNL     1       1.738   7.848  20.223  0.00  0.00    +0.000 A 
ATOM      7  N   UNL     1       0.057   9.472  20.992  0.00  0.00    +0.000 N 
ATOM      8  C   UNL     1      -0.671   8.550  21.844  0.00  0.00    +0.000 C 
ATOM      9  C   UNL     1       0.314  10.741  21.523  0.00  0.00    +0.000 C 
ATOM     10  O   UNL     1       0.317  10.921  22.745  0.00  0.00    +0.000 OA
ATOM     11  C   UNL     1       0.468  11.945  20.642  0.00  0.00    +0.000 A 
ATOM     12  C   UNL     1       0.855  13.137  21.297  0.00  0.00    +0.000 A 
ATOM     13  C   UNL     1       0.826  14.371  20.647  0.00  0.00    +0.000 A 
ATOM     14  C   UNL     1       0.413  14.440  19.325  0.00  0.00    +0.000 A 
ATOM     15  C   UNL     1       0.058  13.273  18.653  0.00  0.00    +0.000 A 
ATOM     16  C   UNL     1       0.088  12.018  19.292  0.00  0.00    +0.000 A 
ATOM     17  S   UNL     1      -0.429  10.664  18.256  0.00  0.00    +0.000 S 
ENDROOT
BRANCH   1  19
ATOM     18  N   UNL     1       4.690   6.163  19.011  0.00  0.00    +0.000 N 
ATOM     19  C   UNL     1       3.406   6.141  19.502  0.00  0.00    +0.000 C 
ATOM     20  O   UNL     1       2.949   5.220  20.170  0.00  0.00    +0.000 OA
ATOM     21  H   UNL     1       5.049   6.994  18.553  0.00  0.00    +0.000 HD
BRANCH  18  22
ATOM     22  C   UNL     1       5.606   5.046  19.188  0.00  0.00    +0.000 C 
BRANCH  22  23
ATOM     23  C   UNL     1       6.095   4.470  17.857  0.00  0.00    +0.000 C 
BRANCH  23  25
ATOM     24  C   UNL     1       5.640   4.115  15.369  0.00  0.00    +0.000 C 
ATOM     25  C   UNL     1       5.033   4.426  16.738  0.00  0.00    +0.000 C 
ATOM     26  C   UNL     1       3.963   3.380  17.069  0.00  0.00    +0.000 C 
ENDBRANCH  23  25
ENDBRANCH  22  23
ENDBRANCH  18  22
ENDBRANCH   1  19
TORSDOF 4
ENDMDL
MODEL 9
REMARK VINA RESULT:      -6.9      1.868      2.555
REMARK  Name = 
REMARK  7 active torsions:
REMARK  status: ('A' for Active; 'I' for Inactive)
REMARK    1  A    between atoms: C_1  and  C_2
REMARK    2  A    between atoms: C_2  and  C_3
REMARK    3  A    between atoms: C_2  and  C_4
REMARK    4  A    between atoms: C_4  and  C_5
REMARK    5  A    between atoms: C_5  and  N_6
REMARK    6  A    between atoms: C_7  and  C_9
REMARK    7  A    between atoms: N_15  and  C_16
REMARK                            x       y       z     vdW  Elec       q    Type
REMARK                         _______ _______ _______ _____ _____    ______ ____
ROOT
ATOM      1  C   UNL     1       1.315   8.384  20.448  0.00  0.00    +0.000 A 
ATOM      2  C   UNL     1       0.914   8.365  21.788  0.00  0.00    +0.000 A 
ATOM      3  C   UNL     1       0.266   9.475  22.335  0.00  0.00    +0.000 A 
ATOM      4  C   UNL     1      -0.002  10.602  21.549  0.00  0.00    +0.000 A 
ATOM      5  C   UNL     1       0.376  10.622  20.201  0.00  0.00    +0.000 A 
ATOM      6  C   UNL     1       1.058   9.519  19.660  0.00  0.00    +0.000 A 
ATOM      7  N   UNL     1       0.119  11.780  19.416  0.00  0.00    +0.000 N 
ATOM      8  C   UNL     1       1.189  12.304  18.589  0.00  0.00    +0.000 C 
ATOM      9  C   UNL     1      -1.186  12.096  19.019  0.00  0.00    +0.000 C 
ATOM     10  O   UNL     1      -1.428  12.412  17.850  0.00  0.00    +0.000 OA
ATOM     11  C   UNL     1      -2.307  12.188  20.012  0.00  0.00    +0.000 A 
ATOM     12  C   UNL     1      -3.595  12.384  19.462  0.00  0.00    +0.000 A 
ATOM     13  C   UNL     1      -4.692  12.703  20.264  0.00  0.00    +0.000 A 
ATOM     14  C   UNL     1      -4.525  12.828  21.635  0.00  0.00    +0.000 A 
ATOM     15  C   UNL     1      -3.271  12.607  22.199  0.00  0.00    +0.000 A 
ATOM     16  C   UNL     1      -2.155  12.278  21.405  0.00  0.00    +0.000 A 
ATOM     17  S   UNL     1      -0.645  12.065  22.327  0.00  0.00    +0.000 S 
ENDROOT
BRANCH   1  19
ATOM     18  N   UNL     1       2.618   7.453  18.602  0.00  0.00    +0.000 N 
ATOM     19  C   UNL     1       2.077   7.251  19.850  0.00  0.00    +0.000 C 
ATOM     20  O   UNL     1       2.196   6.208  20.483  0.00  0.00    +0.000 OA
ATOM     21  H   UNL     1       2.577   8.369  18.167  0.00  0.00    +0.000 HD
BRANCH  18  22
ATOM     22  C   UNL     1       3.332   6.404  17.890  0.00  0.00    +0.000 C 
BRANCH  22  23
ATOM     23  C   UNL     1       4.698   6.866  17.377  0.00  0.00    +0.000 C 
BRANCH  23  25
ATOM     24  C   UNL     1       7.228   6.627  17.635  0.00  0.00    +0.000 C 
ATOM     25  C   UNL     1       5.873   5.922  17.712  0.00  0.00    +0.000 C 
ATOM     26  C   UNL     1       5.687   5.329  19.112  0.00  0.00    +0.000 C 
ENDBRANCH  23  25
ENDBRANCH  22  23
ENDBRANCH  18  22
ENDBRANCH   1  19
TORSDOF 4
ENDMDL
