MODEL 1
REMARK VINA RESULT:      -7.9      0.000      0.000
REMARK  Name = 
REMARK  9 active torsions:
REMARK  status: ('A' for Active; 'I' for Inactive)
REMARK    1  A    between atoms: C_1  and  C_2
REMARK    2  A    between atoms: C_2  and  C_3
REMARK    3  A    between atoms: C_3  and  C_4
REMARK    4  A    between atoms: C_4  and  C_5
REMARK    5  A    between atoms: C_5  and  C_6
REMARK    6  A    between atoms: C_8  and  O_9
REMARK    7  A    between atoms: C_14  and  C_15
REMARK    8  A    between atoms: C_19  and  C_20
REMARK    9  A    between atoms: C_19  and  C_21
REMARK                            x       y       z     vdW  Elec       q    Type
REMARK                         _______ _______ _______ _____ _____    ______ ____
ROOT
ATOM      1  C   UNL     1       5.821   4.936  15.053  0.00  0.00    +0.000 A 
ATOM      2  C   UNL     1       5.482   6.181  15.587  0.00  0.00    +0.000 A 
ATOM      3  C   UNL     1       4.710   6.252  16.740  0.00  0.00    +0.000 A 
ATOM      4  C   UNL     1       4.240   5.096  17.375  0.00  0.00    +0.000 A 
ATOM      5  C   UNL     1       4.564   3.848  16.856  0.00  0.00    +0.000 A 
ATOM      6  C   UNL     1       5.354   3.771  15.698  0.00  0.00    +0.000 A 
ATOM      7  O   UNL     1       4.145   2.666  17.405  0.00  0.00    +0.000 OA
ATOM      8  C   UNL     1       3.391   2.670  18.648  0.00  0.00    +0.000 C 
ATOM      9  C   UNL     1       2.458   1.440  18.550  0.00  0.00    +0.000 C 
ATOM     10  C   UNL     1       4.359   2.436  19.810  0.00  0.00    +0.000 C 
ATOM     11  C   UNL     1       3.674   2.347  21.166  0.00  0.00    +0.000 C 
ATOM     12  C   UNL     1       2.361   3.108  21.365  0.00  0.00    +0.000 C 
ATOM     13  C   UNL     1       1.812   4.045  20.248  0.00  0.00    +0.000 C 
ATOM     14  C   UNL     1       0.323   3.700  19.968  0.00  0.00    +0.000 C 
ATOM     15  C   UNL     1       1.765   5.480  20.848  0.00  0.00    +0.000 C 
ATOM     16  C   UNL     1       2.572   3.968  18.873  0.00  0.00    +0.000 C 
ATOM     17  C   UNL     1       3.442   5.204  18.629  0.00  0.00    +0.000 C 
ENDROOT
BRANCH   3  18
ATOM     18  O   UNL     1       4.400   7.472  17.276  0.00  0.00    +0.000 OA
ATOM     19  H   UNL     1       4.567   7.448  18.232  0.00  0.00    +0.000 HD
ENDBRANCH   3  18
BRANCH   1  20
ATOM     20  C   UNL     1       6.716   4.888  13.833  0.00  0.00    +0.000 C 
BRANCH  20  21
ATOM     21  C   UNL     1       6.634   3.569  13.071  0.00  0.00    +0.000 C 
BRANCH  21  22
ATOM     22  C   UNL     1       5.871   3.729  11.750  0.00  0.00    +0.000 C 
BRANCH  22  24
ATOM     23  C   UNL     1       3.619   3.453  10.630  0.00  0.00    +0.000 C 
ATOM     24  C   UNL     1       4.427   3.247  11.900  0.00  0.00    +0.000 C 
ENDBRANCH  22  24
ENDBRANCH  21  22
ENDBRANCH  20  21
ENDBRANCH   1  20
TORSDOF 5
ENDMDL
MODEL 2
REMARK VINA RESULT:      -7.8      3.739      8.110
REMARK  Name = 
REMARK  9 active torsions:
REMARK  status: ('A' for Active; 'I' for Inactive)
REMARK    1  A    between atoms: C_1  and  C_2
REMARK    2  A    between atoms: C_2  and  C_3
REMARK    3  A    between atoms: C_3  and  C_4
REMARK    4  A    between atoms: C_4  and  C_5
REMARK    5  A    between atoms: C_5  and  C_6
REMARK    6  A    between atoms: C_8  and  O_9
REMARK    7  A    between atoms: C_14  and  C_15
REMARK    8  A    between atoms: C_19  and  C_20
REMARK    9  A    between atoms: C_19  and  C_21
REMARK                            x       y       z     vdW  Elec       q    Type
REMARK                         _______ _______ _______ _____ _____    ______ ____
ROOT
ATOM      1  C   UNL     1       0.875   8.543  20.716  0.00  0.00    +0.000 A 
ATOM      2  C   UNL     1       0.982   9.351  19.582  0.00  0.00    +0.000 A 
ATOM      3  C   UNL     1       1.796   8.957  18.528  0.00  0.00    +0.000 A 
ATOM      4  C   UNL     1       2.537   7.770  18.582  0.00  0.00    +0.000 A 
ATOM      5  C   UNL     1       2.445   6.955  19.704  0.00  0.00    +0.000 A 
ATOM      6  C   UNL     1       1.615   7.343  20.767  0.00  0.00    +0.000 A 
ATOM      7  O   UNL     1       3.136   5.782  19.848  0.00  0.00    +0.000 OA
ATOM      8  C   UNL     1       3.953   5.282  18.753  0.00  0.00    +0.000 C 
ATOM      9  C   UNL     1       5.114   4.522  19.440  0.00  0.00    +0.000 C 
ATOM     10  C   UNL     1       3.133   4.267  17.953  0.00  0.00    +0.000 C 
ATOM     11  C   UNL     1       3.909   3.617  16.817  0.00  0.00    +0.000 C 
ATOM     12  C   UNL     1       5.045   4.411  16.168  0.00  0.00    +0.000 C 
ATOM     13  C   UNL     1       5.313   5.890  16.579  0.00  0.00    +0.000 C 
ATOM     14  C   UNL     1       6.819   6.069  16.916  0.00  0.00    +0.000 C 
ATOM     15  C   UNL     1       5.099   6.756  15.305  0.00  0.00    +0.000 C 
ATOM     16  C   UNL     1       4.497   6.399  17.824  0.00  0.00    +0.000 C 
ATOM     17  C   UNL     1       3.375   7.359  17.420  0.00  0.00    +0.000 C 
ENDROOT
BRANCH   3  18
ATOM     18  O   UNL     1       1.880   9.738  17.407  0.00  0.00    +0.000 OA
ATOM     19  H   UNL     1       1.744   9.179  16.624  0.00  0.00    +0.000 HD
ENDBRANCH   3  18
BRANCH   1  20
ATOM     20  C   UNL     1      -0.069   8.965  21.822  0.00  0.00    +0.000 C 
BRANCH  20  21
ATOM     21  C   UNL     1      -0.144  10.476  22.015  0.00  0.00    +0.000 C 
BRANCH  21  22
ATOM     22  C   UNL     1      -1.146  10.855  23.112  0.00  0.00    +0.000 C 
BRANCH  22  24
ATOM     23  C   UNL     1      -2.748  12.574  22.172  0.00  0.00    +0.000 C 
ATOM     24  C   UNL     1      -1.511  12.338  23.022  0.00  0.00    +0.000 C 
ENDBRANCH  22  24
ENDBRANCH  21  22
ENDBRANCH  20  21
ENDBRANCH   1  20
TORSDOF 5
ENDMDL
MODEL 3
REMARK VINA RESULT:      -7.7      3.812      5.761
REMARK  Name = 
REMARK  9 active torsions:
REMARK  status: ('A' for Active; 'I' for Inactive)
REMARK    1  A    between atoms: C_1  and  C_2
REMARK    2  A    between atoms: C_2  and  C_3
REMARK    3  A    between atoms: C_3  and  C_4
REMARK    4  A    between atoms: C_4  and  C_5
REMARK    5  A    between atoms: C_5  and  C_6
REMARK    6  A    between atoms: C_8  and  O_9
REMARK    7  A    between atoms: C_14  and  C_15
REMARK    8  A    between atoms: C_19  and  C_20
REMARK    9  A    between atoms: C_19  and  C_21
REMARK                            x       y       z     vdW  Elec       q    Type
REMARK                         _______ _______ _______ _____ _____    ______ ____
ROOT
ATOM      1  C   UNL     1       7.510   7.768  17.917  0.00  0.00    +0.000 A 
ATOM      2  C   UNL     1       8.138   6.981  18.886  0.00  0.00    +0.000 A 
ATOM      3  C   UNL     1       7.500   5.849  19.376  0.00  0.00    +0.000 A 
ATOM      4  C   UNL     1       6.221   5.485  18.938  0.00  0.00    +0.000 A 
ATOM      5  C   UNL     1       5.579   6.257  17.977  0.00  0.00    +0.000 A 
ATOM      6  C   UNL     1       6.225   7.396  17.469  0.00  0.00    +0.000 A 
ATOM      7  O   UNL     1       4.329   5.982  17.493  0.00  0.00    +0.000 OA
ATOM      8  C   UNL     1       3.636   4.775  17.918  0.00  0.00    +0.000 C 
ATOM      9  C   UNL     1       2.134   5.148  17.884  0.00  0.00    +0.000 C 
ATOM     10  C   UNL     1       3.873   3.681  16.875  0.00  0.00    +0.000 C 
ATOM     11  C   UNL     1       3.135   2.384  17.173  0.00  0.00    +0.000 C 
ATOM     12  C   UNL     1       2.838   2.040  18.635  0.00  0.00    +0.000 C 
ATOM     13  C   UNL     1       3.388   2.934  19.787  0.00  0.00    +0.000 C 
ATOM     14  C   UNL     1       2.230   3.300  20.756  0.00  0.00    +0.000 C 
ATOM     15  C   UNL     1       4.332   2.039  20.639  0.00  0.00    +0.000 C 
ATOM     16  C   UNL     1       4.052   4.285  19.329  0.00  0.00    +0.000 C 
ATOM     17  C   UNL     1       5.577   4.246  19.459  0.00  0.00    +0.000 C 
ENDROOT
BRANCH   3  18
ATOM     18  O   UNL     1       8.127   5.066  20.307  0.00  0.00    +0.000 OA
ATOM     19  H   UNL     1       8.529   5.639  20.980  0.00  0.00    +0.000 HD
ENDBRANCH   3  18
BRANCH   1  20
ATOM     20  C   UNL     1       8.256   8.959  17.354  0.00  0.00    +0.000 C 
BRANCH  20  21
ATOM     21  C   UNL     1       8.897   9.837  18.424  0.00  0.00    +0.000 C 
BRANCH  21  22
ATOM     22  C   UNL     1       9.062  11.283  17.941  0.00  0.00    +0.000 C 
BRANCH  22  24
ATOM     23  C   UNL     1      11.289  11.578  19.106  0.00  0.00    +0.000 C 
ATOM     24  C   UNL     1      10.542  11.635  17.784  0.00  0.00    +0.000 C 
ENDBRANCH  22  24
ENDBRANCH  21  22
ENDBRANCH  20  21
ENDBRANCH   1  20
TORSDOF 5
ENDMDL
MODEL 4
REMARK VINA RESULT:      -7.6      1.508      2.007
REMARK  Name = 
REMARK  9 active torsions:
REMARK  status: ('A' for Active; 'I' for Inactive)
REMARK    1  A    between atoms: C_1  and  C_2
REMARK    2  A    between atoms: C_2  and  C_3
REMARK    3  A    between atoms: C_3  and  C_4
REMARK    4  A    between atoms: C_4  and  C_5
REMARK    5  A    between atoms: C_5  and  C_6
REMARK    6  A    between atoms: C_8  and  O_9
REMARK    7  A    between atoms: C_14  and  C_15
REMARK    8  A    between atoms: C_19  and  C_20
REMARK    9  A    between atoms: C_19  and  C_21
REMARK                            x       y       z     vdW  Elec       q    Type
REMARK                         _______ _______ _______ _____ _____    ______ ____
ROOT
ATOM      1  C   UNL     1       6.605   4.578  15.470  0.00  0.00    +0.000 A 
ATOM      2  C   UNL     1       7.243   4.714  16.705  0.00  0.00    +0.000 A 
ATOM      3  C   UNL     1       6.512   4.576  17.878  0.00  0.00    +0.000 A 
ATOM      4  C   UNL     1       5.135   4.324  17.856  0.00  0.00    +0.000 A 
ATOM      5  C   UNL     1       4.483   4.188  16.635  0.00  0.00    +0.000 A 
ATOM      6  C   UNL     1       5.219   4.314  15.447  0.00  0.00    +0.000 A 
ATOM      7  O   UNL     1       3.141   3.947  16.515  0.00  0.00    +0.000 OA
ATOM      8  C   UNL     1       2.334   3.727  17.706  0.00  0.00    +0.000 C 
ATOM      9  C   UNL     1       0.933   4.275  17.341  0.00  0.00    +0.000 C 
ATOM     10  C   UNL     1       2.205   2.220  17.939  0.00  0.00    +0.000 C 
ATOM     11  C   UNL     1       1.317   1.860  19.121  0.00  0.00    +0.000 C 
ATOM     12  C   UNL     1       1.213   2.857  20.279  0.00  0.00    +0.000 C 
ATOM     13  C   UNL     1       2.091   4.144  20.296  0.00  0.00    +0.000 C 
ATOM     14  C   UNL     1       1.191   5.382  20.563  0.00  0.00    +0.000 C 
ATOM     15  C   UNL     1       2.999   4.052  21.556  0.00  0.00    +0.000 C 
ATOM     16  C   UNL     1       2.890   4.430  18.971  0.00  0.00    +0.000 C 
ATOM     17  C   UNL     1       4.386   4.148  19.132  0.00  0.00    +0.000 C 
ENDROOT
BRANCH   3  18
ATOM     18  O   UNL     1       7.143   4.686  19.088  0.00  0.00    +0.000 OA
ATOM     19  H   UNL     1       7.633   5.525  19.112  0.00  0.00    +0.000 HD
ENDBRANCH   3  18
BRANCH   1  20
ATOM     20  C   UNL     1       7.438   4.668  14.209  0.00  0.00    +0.000 C 
BRANCH  20  21
ATOM     21  C   UNL     1       6.613   4.576  12.928  0.00  0.00    +0.000 C 
BRANCH  21  22
ATOM     22  C   UNL     1       6.971   3.324  12.117  0.00  0.00    +0.000 C 
BRANCH  22  24
ATOM     23  C   UNL     1       4.477   3.377  11.696  0.00  0.00    +0.000 C 
ATOM     24  C   UNL     1       5.717   2.507  11.804  0.00  0.00    +0.000 C 
ENDBRANCH  22  24
ENDBRANCH  21  22
ENDBRANCH  20  21
ENDBRANCH   1  20
TORSDOF 5
ENDMDL
MODEL 5
REMARK VINA RESULT:      -7.4      3.831      6.309
REMARK  Name = 
REMARK  9 active torsions:
REMARK  status: ('A' for Active; 'I' for Inactive)
REMARK    1  A    between atoms: C_1  and  C_2
REMARK    2  A    between atoms: C_2  and  C_3
REMARK    3  A    between atoms: C_3  and  C_4
REMARK    4  A    between atoms: C_4  and  C_5
REMARK    5  A    between atoms: C_5  and  C_6
REMARK    6  A    between atoms: C_8  and  O_9
REMARK    7  A    between atoms: C_14  and  C_15
REMARK    8  A    between atoms: C_19  and  C_20
REMARK    9  A    between atoms: C_19  and  C_21
REMARK                            x       y       z     vdW  Elec       q    Type
REMARK                         _______ _______ _______ _____ _____    ______ ____
ROOT
ATOM      1  C   UNL     1       4.301   5.538  17.966  0.00  0.00    +0.000 A 
ATOM      2  C   UNL     1       3.798   5.055  19.176  0.00  0.00    +0.000 A 
ATOM      3  C   UNL     1       2.871   5.805  19.888  0.00  0.00    +0.000 A 
ATOM      4  C   UNL     1       2.438   7.055  19.431  0.00  0.00    +0.000 A 
ATOM      5  C   UNL     1       2.930   7.554  18.230  0.00  0.00    +0.000 A 
ATOM      6  C   UNL     1       3.858   6.795  17.501  0.00  0.00    +0.000 A 
ATOM      7  O   UNL     1       2.570   8.768  17.709  0.00  0.00    +0.000 OA
ATOM      8  C   UNL     1       1.554   9.570  18.373  0.00  0.00    +0.000 C 
ATOM      9  C   UNL     1       1.951  11.036  18.075  0.00  0.00    +0.000 C 
ATOM     10  C   UNL     1       0.204   9.302  17.704  0.00  0.00    +0.000 C 
ATOM     11  C   UNL     1      -0.932  10.143  18.268  0.00  0.00    +0.000 C 
ATOM     12  C   UNL     1      -0.842  10.599  19.726  0.00  0.00    +0.000 C 
ATOM     13  C   UNL     1       0.322  10.107  20.638  0.00  0.00    +0.000 C 
ATOM     14  C   UNL     1       0.982  11.328  21.338  0.00  0.00    +0.000 C 
ATOM     15  C   UNL     1      -0.328   9.305  21.802  0.00  0.00    +0.000 C 
ATOM     16  C   UNL     1       1.467   9.321  19.901  0.00  0.00    +0.000 C 
ATOM     17  C   UNL     1       1.418   7.821  20.201  0.00  0.00    +0.000 C 
ENDROOT
BRANCH   3  18
ATOM     18  O   UNL     1       2.361   5.318  21.061  0.00  0.00    +0.000 OA
ATOM     19  H   UNL     1       1.708   5.949  21.406  0.00  0.00    +0.000 HD
ENDBRANCH   3  18
BRANCH   1  20
ATOM     20  C   UNL     1       5.261   4.671  17.180  0.00  0.00    +0.000 C 
BRANCH  20  21
ATOM     21  C   UNL     1       6.633   5.307  16.984  0.00  0.00    +0.000 C 
BRANCH  21  22
ATOM     22  C   UNL     1       7.460   5.269  18.275  0.00  0.00    +0.000 C 
BRANCH  22  24
ATOM     23  C   UNL     1       7.647   7.688  17.555  0.00  0.00    +0.000 C 
ATOM     24  C   UNL     1       7.964   6.668  18.635  0.00  0.00    +0.000 C 
ENDBRANCH  22  24
ENDBRANCH  21  22
ENDBRANCH  20  21
ENDBRANCH   1  20
TORSDOF 5
ENDMDL
MODEL 6
REMARK VINA RESULT:      -7.3      3.614      6.631
REMARK  Name = 
REMARK  9 active torsions:
REMARK  status: ('A' for Active; 'I' for Inactive)
REMARK    1  A    between atoms: C_1  and  C_2
REMARK    2  A    between atoms: C_2  and  C_3
REMARK    3  A    between atoms: C_3  and  C_4
REMARK    4  A    between atoms: C_4  and  C_5
REMARK    5  A    between atoms: C_5  and  C_6
REMARK    6  A    between atoms: C_8  and  O_9
REMARK    7  A    between atoms: C_14  and  C_15
REMARK    8  A    between atoms: C_19  and  C_20
REMARK    9  A    between atoms: C_19  and  C_21
REMARK                            x       y       z     vdW  Elec       q    Type
REMARK                         _______ _______ _______ _____ _____    ______ ____
ROOT
ATOM      1  C   UNL     1       1.252   9.326  19.971  0.00  0.00    +0.000 A 
ATOM      2  C   UNL     1       1.908   9.312  18.739  0.00  0.00    +0.000 A 
ATOM      3  C   UNL     1       2.405   8.118  18.233  0.00  0.00    +0.000 A 
ATOM      4  C   UNL     1       2.283   6.918  18.944  0.00  0.00    +0.000 A 
ATOM      5  C   UNL     1       1.635   6.912  20.174  0.00  0.00    +0.000 A 
ATOM      6  C   UNL     1       1.121   8.115  20.684  0.00  0.00    +0.000 A 
ATOM      7  O   UNL     1       1.473   5.790  20.941  0.00  0.00    +0.000 OA
ATOM      8  C   UNL     1       1.912   4.497  20.438  0.00  0.00    +0.000 C 
ATOM      9  C   UNL     1       2.330   3.702  21.698  0.00  0.00    +0.000 C 
ATOM     10  C   UNL     1       0.713   3.785  19.807  0.00  0.00    +0.000 C 
ATOM     11  C   UNL     1       1.032   2.384  19.305  0.00  0.00    +0.000 C 
ATOM     12  C   UNL     1       2.464   2.084  18.855  0.00  0.00    +0.000 C 
ATOM     13  C   UNL     1       3.529   3.219  18.797  0.00  0.00    +0.000 C 
ATOM     14  C   UNL     1       4.812   2.765  19.546  0.00  0.00    +0.000 C 
ATOM     15  C   UNL     1       3.976   3.340  17.311  0.00  0.00    +0.000 C 
ATOM     16  C   UNL     1       3.086   4.590  19.428  0.00  0.00    +0.000 C 
ATOM     17  C   UNL     1       2.796   5.647  18.359  0.00  0.00    +0.000 C 
ENDROOT
BRANCH   3  18
ATOM     18  O   UNL     1       3.026   8.103  17.014  0.00  0.00    +0.000 OA
ATOM     19  H   UNL     1       3.098   7.183  16.709  0.00  0.00    +0.000 HD
ENDBRANCH   3  18
BRANCH   1  20
ATOM     20  C   UNL     1       0.665  10.630  20.468  0.00  0.00    +0.000 C 
BRANCH  20  21
ATOM     21  C   UNL     1      -0.107  11.395  19.398  0.00  0.00    +0.000 C 
BRANCH  21  22
ATOM     22  C   UNL     1      -1.475  10.758  19.126  0.00  0.00    +0.000 C 
BRANCH  22  24
ATOM     23  C   UNL     1      -2.955   9.863  17.278  0.00  0.00    +0.000 C 
ATOM     24  C   UNL     1      -1.535  10.192  17.706  0.00  0.00    +0.000 C 
ENDBRANCH  22  24
ENDBRANCH  21  22
ENDBRANCH  20  21
ENDBRANCH   1  20
TORSDOF 5
ENDMDL
MODEL 7
REMARK VINA RESULT:      -7.2      3.949      6.452
REMARK  Name = 
REMARK  9 active torsions:
REMARK  status: ('A' for Active; 'I' for Inactive)
REMARK    1  A    between atoms: C_1  and  C_2
REMARK    2  A    between atoms: C_2  and  C_3
REMARK    3  A    between atoms: C_3  and  C_4
REMARK    4  A    between atoms: C_4  and  C_5
REMARK    5  A    between atoms: C_5  and  C_6
REMARK    6  A    between atoms: C_8  and  O_9
REMARK    7  A    between atoms: C_14  and  C_15
REMARK    8  A    between atoms: C_19  and  C_20
REMARK    9  A    between atoms: C_19  and  C_21
REMARK                            x       y       z     vdW  Elec       q    Type
REMARK                         _______ _______ _______ _____ _____    ______ ____
ROOT
ATOM      1  C   UNL     1       1.620   9.734  18.803  0.00  0.00    +0.000 A 
ATOM      2  C   UNL     1       1.188   9.498  20.110  0.00  0.00    +0.000 A 
ATOM      3  C   UNL     1       1.320   8.231  20.664  0.00  0.00    +0.000 A 
ATOM      4  C   UNL     1       1.860   7.167  19.931  0.00  0.00    +0.000 A 
ATOM      5  C   UNL     1       2.293   7.382  18.628  0.00  0.00    +0.000 A 
ATOM      6  C   UNL     1       2.172   8.664  18.068  0.00  0.00    +0.000 A 
ATOM      7  O   UNL     1       2.828   6.403  17.835  0.00  0.00    +0.000 OA
ATOM      8  C   UNL     1       3.054   5.073  18.377  0.00  0.00    +0.000 C 
ATOM      9  C   UNL     1       2.871   4.118  17.174  0.00  0.00    +0.000 C 
ATOM     10  C   UNL     1       4.509   4.973  18.841  0.00  0.00    +0.000 C 
ATOM     11  C   UNL     1       4.889   3.596  19.365  0.00  0.00    +0.000 C 
ATOM     12  C   UNL     1       3.792   2.732  19.994  0.00  0.00    +0.000 C 
ATOM     13  C   UNL     1       2.357   3.303  20.201  0.00  0.00    +0.000 C 
ATOM     14  C   UNL     1       1.315   2.308  19.619  0.00  0.00    +0.000 C 
ATOM     15  C   UNL     1       2.085   3.290  21.733  0.00  0.00    +0.000 C 
ATOM     16  C   UNL     1       2.087   4.700  19.531  0.00  0.00    +0.000 C 
ATOM     17  C   UNL     1       2.020   5.828  20.565  0.00  0.00    +0.000 C 
ENDROOT
BRANCH   3  18
ATOM     18  O   UNL     1       0.918   8.008  21.953  0.00  0.00    +0.000 OA
ATOM     19  H   UNL     1       1.560   8.415  22.557  0.00  0.00    +0.000 HD
ENDBRANCH   3  18
BRANCH   1  20
ATOM     20  C   UNL     1       1.523  11.139  18.248  0.00  0.00    +0.000 C 
BRANCH  20  21
ATOM     21  C   UNL     1       0.510  12.014  18.981  0.00  0.00    +0.000 C 
BRANCH  21  22
ATOM     22  C   UNL     1      -0.785  12.173  18.175  0.00  0.00    +0.000 C 
BRANCH  22  24
ATOM     23  C   UNL     1      -1.835  10.048  17.289  0.00  0.00    +0.000 C 
ATOM     24  C   UNL     1      -1.743  11.014  18.457  0.00  0.00    +0.000 C 
ENDBRANCH  22  24
ENDBRANCH  21  22
ENDBRANCH  20  21
ENDBRANCH   1  20
TORSDOF 5
ENDMDL
MODEL 8
REMARK VINA RESULT:      -7.2      3.811      7.874
REMARK  Name = 
REMARK  9 active torsions:
REMARK  status: ('A' for Active; 'I' for Inactive)
REMARK    1  A    between atoms: C_1  and  C_2
REMARK    2  A    between atoms: C_2  and  C_3
REMARK    3  A    between atoms: C_3  and  C_4
REMARK    4  A    between atoms: C_4  and  C_5
REMARK    5  A    between atoms: C_5  and  C_6
REMARK    6  A    between atoms: C_8  and  O_9
REMARK    7  A    between atoms: C_14  and  C_15
REMARK    8  A    between atoms: C_19  and  C_20
REMARK    9  A    between atoms: C_19  and  C_21
REMARK                            x       y       z     vdW  Elec       q    Type
REMARK                         _______ _______ _______ _____ _____    ______ ____
ROOT
ATOM      1  C   UNL     1       0.958   9.190  20.655  0.00  0.00    +0.000 A 
ATOM      2  C   UNL     1       1.485   9.408  19.380  0.00  0.00    +0.000 A 
ATOM      3  C   UNL     1       2.004   8.344  18.655  0.00  0.00    +0.000 A 
ATOM      4  C   UNL     1       2.034   7.047  19.183  0.00  0.00    +0.000 A 
ATOM      5  C   UNL     1       1.518   6.811  20.452  0.00  0.00    +0.000 A 
ATOM      6  C   UNL     1       0.981   7.882  21.184  0.00  0.00    +0.000 A 
ATOM      7  O   UNL     1       1.510   5.580  21.051  0.00  0.00    +0.000 OA
ATOM      8  C   UNL     1       1.978   4.414  20.319  0.00  0.00    +0.000 C 
ATOM      9  C   UNL     1       2.574   3.481  21.400  0.00  0.00    +0.000 C 
ATOM     10  C   UNL     1       0.771   3.707  19.699  0.00  0.00    +0.000 C 
ATOM     11  C   UNL     1       1.128   2.424  18.963  0.00  0.00    +0.000 C 
ATOM     12  C   UNL     1       2.523   2.308  18.343  0.00  0.00    +0.000 C 
ATOM     13  C   UNL     1       3.500   3.522  18.361  0.00  0.00    +0.000 C 
ATOM     14  C   UNL     1       4.880   3.068  18.913  0.00  0.00    +0.000 C 
ATOM     15  C   UNL     1       3.783   3.892  16.877  0.00  0.00    +0.000 C 
ATOM     16  C   UNL     1       3.034   4.746  19.232  0.00  0.00    +0.000 C 
ATOM     17  C   UNL     1       2.567   5.920  18.367  0.00  0.00    +0.000 C 
ENDROOT
BRANCH   3  18
ATOM     18  O   UNL     1       2.497   8.555  17.397  0.00  0.00    +0.000 OA
ATOM     19  H   UNL     1       3.224   9.198  17.447  0.00  0.00    +0.000 HD
ENDBRANCH   3  18
BRANCH   1  20
ATOM     20  C   UNL     1       0.341  10.357  21.396  0.00  0.00    +0.000 C 
BRANCH  20  21
ATOM     21  C   UNL     1      -0.201   9.985  22.773  0.00  0.00    +0.000 C 
BRANCH  21  22
ATOM     22  C   UNL     1      -1.334  10.924  23.205  0.00  0.00    +0.000 C 
BRANCH  22  24
ATOM     23  C   UNL     1      -2.488  13.111  22.668  0.00  0.00    +0.000 C 
ATOM     24  C   UNL     1      -1.257  12.249  22.445  0.00  0.00    +0.000 C 
ENDBRANCH  22  24
ENDBRANCH  21  22
ENDBRANCH  20  21
ENDBRANCH   1  20
TORSDOF 5
ENDMDL
MODEL 9
REMARK VINA RESULT:      -7.2      3.958      7.883
REMARK  Name = 
REMARK  9 active torsions:
REMARK  status: ('A' for Active; 'I' for Inactive)
REMARK    1  A    between atoms: C_1  and  C_2
REMARK    2  A    between atoms: C_2  and  C_3
REMARK    3  A    between atoms: C_3  and  C_4
REMARK    4  A    between atoms: C_4  and  C_5
REMARK    5  A    between atoms: C_5  and  C_6
REMARK    6  A    between atoms: C_8  and  O_9
REMARK    7  A    between atoms: C_14  and  C_15
REMARK    8  A    between atoms: C_19  and  C_20
REMARK    9  A    between atoms: C_19  and  C_21
REMARK                            x       y       z     vdW  Elec       q    Type
REMARK                         _______ _______ _______ _____ _____    ______ ____
ROOT
ATOM      1  C   UNL     1       0.722   9.098  20.615  0.00  0.00    +0.000 A 
ATOM      2  C   UNL     1       0.969   9.836  19.455  0.00  0.00    +0.000 A 
ATOM      3  C   UNL     1       1.787   9.311  18.463  0.00  0.00    +0.000 A 
ATOM      4  C   UNL     1       2.395   8.058  18.605  0.00  0.00    +0.000 A 
ATOM      5  C   UNL     1       2.163   7.310  19.753  0.00  0.00    +0.000 A 
ATOM      6  C   UNL     1       1.327   7.831  20.754  0.00  0.00    +0.000 A 
ATOM      7  O   UNL     1       2.717   6.079  19.982  0.00  0.00    +0.000 OA
ATOM      8  C   UNL     1       3.529   5.447  18.954  0.00  0.00    +0.000 C 
ATOM      9  C   UNL     1       4.566   4.603  19.732  0.00  0.00    +0.000 C 
ATOM     10  C   UNL     1       2.645   4.487  18.154  0.00  0.00    +0.000 C 
ATOM     11  C   UNL     1       3.402   3.706  17.088  0.00  0.00    +0.000 C 
ATOM     12  C   UNL     1       4.646   4.347  16.469  0.00  0.00    +0.000 C 
ATOM     13  C   UNL     1       5.049   5.808  16.832  0.00  0.00    +0.000 C 
ATOM     14  C   UNL     1       6.548   5.845  17.241  0.00  0.00    +0.000 C 
ATOM     15  C   UNL     1       4.991   6.631  15.514  0.00  0.00    +0.000 C 
ATOM     16  C   UNL     1       4.233   6.456  18.010  0.00  0.00    +0.000 C 
ATOM     17  C   UNL     1       3.240   7.508  17.508  0.00  0.00    +0.000 C 
ENDROOT
BRANCH   3  18
ATOM     18  O   UNL     1       2.009  10.026  17.317  0.00  0.00    +0.000 OA
ATOM     19  H   UNL     1       2.646   9.545  16.764  0.00  0.00    +0.000 HD
ENDBRANCH   3  18
BRANCH   1  20
ATOM     20  C   UNL     1      -0.224   9.666  21.650  0.00  0.00    +0.000 C 
BRANCH  20  21
ATOM     21  C   UNL     1      -0.870  10.982  21.227  0.00  0.00    +0.000 C 
BRANCH  21  22
ATOM     22  C   UNL     1      -0.397  12.149  22.104  0.00  0.00    +0.000 C 
BRANCH  22  24
ATOM     23  C   UNL     1      -0.641  13.492  19.973  0.00  0.00    +0.000 C 
ATOM     24  C   UNL     1       0.168  13.279  21.242  0.00  0.00    +0.000 C 
ENDBRANCH  22  24
ENDBRANCH  21  22
ENDBRANCH  20  21
ENDBRANCH   1  20
TORSDOF 5
ENDMDL
