MODEL 1
REMARK VINA RESULT:      -8.3      0.000      0.000
REMARK  Name = 
REMARK  11 active torsions:
REMARK  status: ('A' for Active; 'I' for Inactive)
REMARK    1  A    between atoms: C_1  and  S_2
REMARK    2  A    between atoms: S_2  and  C_3
REMARK    3  A    between atoms: C_8  and  N_9
REMARK    4  A    between atoms: N_9  and  C_10
REMARK    5  A    between atoms: N_16  and  C_17
REMARK    6  A    between atoms: C_17  and  C_18
REMARK    7  A    between atoms: C_18  and  C_19
REMARK    8  A    between atoms: C_19  and  C_20
REMARK    9  A    between atoms: C_19  and  C_21
REMARK   10  A    between atoms: C_19  and  O_22
REMARK   11  A    between atoms: N_25  and  C_26
REMARK                            x       y       z     vdW  Elec       q    Type
REMARK                         _______ _______ _______ _____ _____    ______ ____
ROOT
ATOM      1  C   UNL     1       2.184   6.662  20.064  0.00  0.00    +0.000 A 
ATOM      2  C   UNL     1       1.624   5.427  20.469  0.00  0.00    +0.000 A 
ATOM      3  C   UNL     1       1.983   4.221  19.861  0.00  0.00    +0.000 A 
ATOM      4  C   UNL     1       2.858   4.291  18.802  0.00  0.00    +0.000 A 
ATOM      5  C   UNL     1       3.332   5.510  18.317  0.00  0.00    +0.000 A 
ATOM      6  C   UNL     1       3.001   6.708  18.924  0.00  0.00    +0.000 A 
ATOM      7  N   UNL     1       4.183   5.238  17.234  0.00  0.00    +0.000 N 
ATOM      8  C   UNL     1       4.288   3.838  17.080  0.00  0.00    +0.000 A 
ATOM      9  O   UNL     1       4.986   3.242  16.267  0.00  0.00    +0.000 OA
ATOM     10  N   UNL     1       3.441   3.267  18.049  0.00  0.00    +0.000 N 
ATOM     11  C   UNL     1       3.265   1.863  18.288  0.00  0.00    +0.000 C 
ENDROOT
BRANCH   1  12
ATOM     12  N   UNL     1       2.011   7.836  20.823  0.00  0.00    +0.000 N 
ATOM     13  H   UNL     1       2.836   8.123  21.338  0.00  0.00    +0.000 HD
BRANCH  12  19
ATOM     14  C   UNL     1      -0.297  10.423  21.604  0.00  0.00    +0.000 A 
ATOM     15  N   UNL     1      -0.523  11.092  20.465  0.00  0.00    +0.000 NA
ATOM     16  C   UNL     1       0.083  10.611  19.371  0.00  0.00    +0.000 A 
ATOM     17  C   UNL     1       0.904   9.509  19.366  0.00  0.00    +0.000 A 
ATOM     18 CL   UNL     1       1.418   8.917  17.834  0.00  0.00    +0.000 Cl
ATOM     19  C   UNL     1       1.158   8.931  20.613  0.00  0.00    +0.000 A 
ATOM     20  N   UNL     1       0.536   9.376  21.729  0.00  0.00    +0.000 NA
BRANCH  14  22
ATOM     21  C   UNL     1      -2.213  12.236  22.283  0.00  0.00    +0.000 C 
ATOM     22  S   UNL     1      -1.221  10.915  23.035  0.00  0.00    +0.000 S 
ENDBRANCH  14  22
ENDBRANCH  12  19
ENDBRANCH   1  12
BRANCH   7  23
ATOM     23  C   UNL     1       4.938   6.218  16.490  0.00  0.00    +0.000 C 
BRANCH  23  24
ATOM     24  C   UNL     1       5.711   7.183  17.399  0.00  0.00    +0.000 C 
BRANCH  24  25
ATOM     25  C   UNL     1       7.226   6.898  17.444  0.00  0.00    +0.000 C 
ATOM     26  C   UNL     1       8.008   8.197  17.677  0.00  0.00    +0.000 C 
ATOM     27  C   UNL     1       7.600   5.874  18.520  0.00  0.00    +0.000 C 
BRANCH  25  28
ATOM     28  O   UNL     1       7.635   6.357  16.186  0.00  0.00    +0.000 OA
ATOM     29  H   UNL     1       6.834   6.139  15.676  0.00  0.00    +0.000 HD
ENDBRANCH  25  28
ENDBRANCH  24  25
ENDBRANCH  23  24
ENDBRANCH   7  23
TORSDOF 7
ENDMDL
MODEL 2
REMARK VINA RESULT:      -8.1      1.785      2.121
REMARK  Name = 
REMARK  11 active torsions:
REMARK  status: ('A' for Active; 'I' for Inactive)
REMARK    1  A    between atoms: C_1  and  S_2
REMARK    2  A    between atoms: S_2  and  C_3
REMARK    3  A    between atoms: C_8  and  N_9
REMARK    4  A    between atoms: N_9  and  C_10
REMARK    5  A    between atoms: N_16  and  C_17
REMARK    6  A    between atoms: C_17  and  C_18
REMARK    7  A    between atoms: C_18  and  C_19
REMARK    8  A    between atoms: C_19  and  C_20
REMARK    9  A    between atoms: C_19  and  C_21
REMARK   10  A    between atoms: C_19  and  O_22
REMARK   11  A    between atoms: N_25  and  C_26
REMARK                            x       y       z     vdW  Elec       q    Type
REMARK                         _______ _______ _______ _____ _____    ______ ____
ROOT
ATOM      1  C   UNL     1       1.976   6.382  20.155  0.00  0.00    +0.000 A 
ATOM      2  C   UNL     1       1.528   5.086  20.501  0.00  0.00    +0.000 A 
ATOM      3  C   UNL     1       2.006   3.943  19.853  0.00  0.00    +0.000 A 
ATOM      4  C   UNL     1       2.884   4.137  18.813  0.00  0.00    +0.000 A 
ATOM      5  C   UNL     1       3.250   5.414  18.384  0.00  0.00    +0.000 A 
ATOM      6  C   UNL     1       2.801   6.550  19.032  0.00  0.00    +0.000 A 
ATOM      7  N   UNL     1       4.136   5.266  17.306  0.00  0.00    +0.000 N 
ATOM      8  C   UNL     1       4.373   3.888  17.098  0.00  0.00    +0.000 A 
ATOM      9  O   UNL     1       5.134   3.393  16.275  0.00  0.00    +0.000 OA
ATOM     10  N   UNL     1       3.570   3.203  18.030  0.00  0.00    +0.000 N 
ATOM     11  C   UNL     1       3.522   1.780  18.211  0.00  0.00    +0.000 C 
ENDROOT
BRANCH   1  12
ATOM     12  N   UNL     1       1.685   7.504  20.956  0.00  0.00    +0.000 N 
ATOM     13  H   UNL     1       2.293   7.609  21.760  0.00  0.00    +0.000 HD
BRANCH  12  19
ATOM     14  C   UNL     1       1.204  10.542  19.178  0.00  0.00    +0.000 A 
ATOM     15  N   UNL     1       0.134  11.139  19.720  0.00  0.00    +0.000 NA
ATOM     16  C   UNL     1      -0.413  10.518  20.774  0.00  0.00    +0.000 A 
ATOM     17  C   UNL     1       0.050   9.336  21.299  0.00  0.00    +0.000 A 
ATOM     18 CL   UNL     1      -0.647   8.804  22.780  0.00  0.00    +0.000 Cl
ATOM     19  C   UNL     1       1.110   8.737  20.611  0.00  0.00    +0.000 A 
ATOM     20  N   UNL     1       1.702   9.356  19.564  0.00  0.00    +0.000 NA
BRANCH  14  22
ATOM     21  C   UNL     1       2.117  13.060  18.677  0.00  0.00    +0.000 C 
ATOM     22  S   UNL     1       2.065  11.420  17.900  0.00  0.00    +0.000 S 
ENDBRANCH  14  22
ENDBRANCH  12  19
ENDBRANCH   1  12
BRANCH   7  23
ATOM     23  C   UNL     1       4.808   6.341  16.613  0.00  0.00    +0.000 C 
BRANCH  23  24
ATOM     24  C   UNL     1       5.667   7.200  17.550  0.00  0.00    +0.000 C 
BRANCH  24  25
ATOM     25  C   UNL     1       7.169   6.854  17.488  0.00  0.00    +0.000 C 
ATOM     26  C   UNL     1       8.016   8.121  17.656  0.00  0.00    +0.000 C 
ATOM     27  C   UNL     1       7.578   5.821  18.543  0.00  0.00    +0.000 C 
BRANCH  25  28
ATOM     28  O   UNL     1       7.465   6.291  16.209  0.00  0.00    +0.000 OA
ATOM     29  H   UNL     1       6.795   5.611  16.016  0.00  0.00    +0.000 HD
ENDBRANCH  25  28
ENDBRANCH  24  25
ENDBRANCH  23  24
ENDBRANCH   7  23
TORSDOF 7
ENDMDL
MODEL 3
REMARK VINA RESULT:      -8.0      2.436      3.181
REMARK  Name = 
REMARK  11 active torsions:
REMARK  status: ('A' for Active; 'I' for Inactive)
REMARK    1  A    between atoms: C_1  and  S_2
REMARK    2  A    between atoms: S_2  and  C_3
REMARK    3  A    between atoms: C_8  and  N_9
REMARK    4  A    between atoms: N_9  and  C_10
REMARK    5  A    between atoms: N_16  and  C_17
REMARK    6  A    between atoms: C_17  and  C_18
REMARK    7  A    between atoms: C_18  and  C_19
REMARK    8  A    between atoms: C_19  and  C_20
REMARK    9  A    between atoms: C_19  and  C_21
REMARK   10  A    between atoms: C_19  and  O_22
REMARK   11  A    between atoms: N_25  and  C_26
REMARK                            x       y       z     vdW  Elec       q    Type
REMARK                         _______ _______ _______ _____ _____    ______ ____
ROOT
ATOM      1  C   UNL     1       1.644   8.704  19.504  0.00  0.00    +0.000 A 
ATOM      2  C   UNL     1       1.066   8.052  20.619  0.00  0.00    +0.000 A 
ATOM      3  C   UNL     1       1.364   6.722  20.931  0.00  0.00    +0.000 A 
ATOM      4  C   UNL     1       2.196   6.050  20.067  0.00  0.00    +0.000 A 
ATOM      5  C   UNL     1       2.686   6.643  18.902  0.00  0.00    +0.000 A 
ATOM      6  C   UNL     1       2.415   7.964  18.595  0.00  0.00    +0.000 A 
ATOM      7  N   UNL     1       3.482   5.695  18.241  0.00  0.00    +0.000 N 
ATOM      8  C   UNL     1       3.541   4.523  19.028  0.00  0.00    +0.000 A 
ATOM      9  O   UNL     1       4.187   3.510  18.785  0.00  0.00    +0.000 OA
ATOM     10  N   UNL     1       2.718   4.755  20.147  0.00  0.00    +0.000 N 
ATOM     11  C   UNL     1       2.512   3.848  21.239  0.00  0.00    +0.000 C 
ENDROOT
BRANCH   1  12
ATOM     12  N   UNL     1       1.537  10.098  19.326  0.00  0.00    +0.000 N 
ATOM     13  H   UNL     1       2.420  10.563  19.152  0.00  0.00    +0.000 HD
BRANCH  12  19
ATOM     14  C   UNL     1      -1.597  10.814  17.810  0.00  0.00    +0.000 A 
ATOM     15  N   UNL     1      -1.746  12.144  17.848  0.00  0.00    +0.000 NA
ATOM     16  C   UNL     1      -0.715  12.837  18.352  0.00  0.00    +0.000 A 
ATOM     17  C   UNL     1       0.441  12.265  18.824  0.00  0.00    +0.000 A 
ATOM     18 CL   UNL     1       1.735  13.324  19.232  0.00  0.00    +0.000 Cl
ATOM     19  C   UNL     1       0.471  10.867  18.833  0.00  0.00    +0.000 A 
ATOM     20  N   UNL     1      -0.541  10.144  18.302  0.00  0.00    +0.000 NA
BRANCH  14  22
ATOM     21  C   UNL     1      -2.912  10.799  15.424  0.00  0.00    +0.000 C 
ATOM     22  S   UNL     1      -2.856   9.876  16.986  0.00  0.00    +0.000 S 
ENDBRANCH  14  22
ENDBRANCH  12  19
ENDBRANCH   1  12
BRANCH   7  23
ATOM     23  C   UNL     1       4.235   5.925  17.030  0.00  0.00    +0.000 C 
BRANCH  23  24
ATOM     24  C   UNL     1       5.697   6.298  17.306  0.00  0.00    +0.000 C 
BRANCH  24  25
ATOM     25  C   UNL     1       6.707   5.322  16.669  0.00  0.00    +0.000 C 
ATOM     26  C   UNL     1       7.597   4.694  17.748  0.00  0.00    +0.000 C 
ATOM     27  C   UNL     1       6.024   4.215  15.860  0.00  0.00    +0.000 C 
BRANCH  25  28
ATOM     28  O   UNL     1       7.548   6.045  15.768  0.00  0.00    +0.000 OA
ATOM     29  H   UNL     1       7.090   6.869  15.522  0.00  0.00    +0.000 HD
ENDBRANCH  25  28
ENDBRANCH  24  25
ENDBRANCH  23  24
ENDBRANCH   7  23
TORSDOF 7
ENDMDL
MODEL 4
REMARK VINA RESULT:      -8.0      4.500      8.335
REMARK  Name = 
REMARK  11 active torsions:
REMARK  status: ('A' for Active; 'I' for Inactive)
REMARK    1  A    between atoms: C_1  and  S_2
REMARK    2  A    between atoms: S_2  and  C_3
REMARK    3  A    between atoms: C_8  and  N_9
REMARK    4  A    between atoms: N_9  and  C_10
REMARK    5  A    between atoms: N_16  and  C_17
REMARK    6  A    between atoms: C_17  and  C_18
REMARK    7  A    between atoms: C_18  and  C_19
REMARK    8  A    between atoms: C_19  and  C_20
REMARK    9  A    between atoms: C_19  and  C_21
REMARK   10  A    between atoms: C_19  and  O_22
REMARK   11  A    between atoms: N_25  and  C_26
REMARK                            x       y       z     vdW  Elec       q    Type
REMARK                         _______ _______ _______ _____ _____    ______ ____
ROOT
ATOM      1  C   UNL     1       2.038   7.791  19.362  0.00  0.00    +0.000 A 
ATOM      2  C   UNL     1       2.054   7.613  20.765  0.00  0.00    +0.000 A 
ATOM      3  C   UNL     1       1.262   8.390  21.615  0.00  0.00    +0.000 A 
ATOM      4  C   UNL     1       0.511   9.385  21.034  0.00  0.00    +0.000 A 
ATOM      5  C   UNL     1       0.569   9.647  19.664  0.00  0.00    +0.000 A 
ATOM      6  C   UNL     1       1.333   8.872  18.811  0.00  0.00    +0.000 A 
ATOM      7  N   UNL     1      -0.294  10.722  19.397  0.00  0.00    +0.000 N 
ATOM      8  C   UNL     1      -0.941  11.094  20.597  0.00  0.00    +0.000 A 
ATOM      9  O   UNL     1      -1.798  11.960  20.728  0.00  0.00    +0.000 OA
ATOM     10  N   UNL     1      -0.412  10.266  21.606  0.00  0.00    +0.000 N 
ATOM     11  C   UNL     1      -0.811  10.263  22.985  0.00  0.00    +0.000 C 
ENDROOT
BRANCH   1  12
ATOM     12  N   UNL     1       2.643   6.862  18.492  0.00  0.00    +0.000 N 
ATOM     13  H   UNL     1       2.853   7.230  17.572  0.00  0.00    +0.000 HD
BRANCH  12  19
ATOM     14  C   UNL     1       5.612   4.924  18.735  0.00  0.00    +0.000 A 
ATOM     15  N   UNL     1       5.263   3.756  19.290  0.00  0.00    +0.000 NA
ATOM     16  C   UNL     1       3.956   3.590  19.537  0.00  0.00    +0.000 A 
ATOM     17  C   UNL     1       2.995   4.532  19.266  0.00  0.00    +0.000 A 
ATOM     18 CL   UNL     1       1.351   4.058  19.452  0.00  0.00    +0.000 Cl
ATOM     19  C   UNL     1       3.461   5.757  18.777  0.00  0.00    +0.000 A 
ATOM     20  N   UNL     1       4.769   5.941  18.489  0.00  0.00    +0.000 NA
BRANCH  14  22
ATOM     21  C   UNL     1       7.115   6.592  17.193  0.00  0.00    +0.000 C 
ATOM     22  S   UNL     1       7.300   5.112  18.226  0.00  0.00    +0.000 S 
ENDBRANCH  14  22
ENDBRANCH  12  19
ENDBRANCH   1  12
BRANCH   7  23
ATOM     23  C   UNL     1      -0.582  11.266  18.091  0.00  0.00    +0.000 C 
BRANCH  23  24
ATOM     24  C   UNL     1      -1.495  10.354  17.260  0.00  0.00    +0.000 C 
BRANCH  24  25
ATOM     25  C   UNL     1      -2.934  10.892  17.123  0.00  0.00    +0.000 C 
ATOM     26  C   UNL     1      -3.306  11.051  15.644  0.00  0.00    +0.000 C 
ATOM     27  C   UNL     1      -3.964   9.997  17.817  0.00  0.00    +0.000 C 
BRANCH  25  28
ATOM     28  O   UNL     1      -3.010  12.180  17.738  0.00  0.00    +0.000 OA
ATOM     29  H   UNL     1      -2.119  12.417  18.053  0.00  0.00    +0.000 HD
ENDBRANCH  25  28
ENDBRANCH  24  25
ENDBRANCH  23  24
ENDBRANCH   7  23
TORSDOF 7
ENDMDL
MODEL 5
REMARK VINA RESULT:      -8.0      2.201      2.902
REMARK  Name = 
REMARK  11 active torsions:
REMARK  status: ('A' for Active; 'I' for Inactive)
REMARK    1  A    between atoms: C_1  and  S_2
REMARK    2  A    between atoms: S_2  and  C_3
REMARK    3  A    between atoms: C_8  and  N_9
REMARK    4  A    between atoms: N_9  and  C_10
REMARK    5  A    between atoms: N_16  and  C_17
REMARK    6  A    between atoms: C_17  and  C_18
REMARK    7  A    between atoms: C_18  and  C_19
REMARK    8  A    between atoms: C_19  and  C_20
REMARK    9  A    between atoms: C_19  and  C_21
REMARK   10  A    between atoms: C_19  and  O_22
REMARK   11  A    between atoms: N_25  and  C_26
REMARK                            x       y       z     vdW  Elec       q    Type
REMARK                         _______ _______ _______ _____ _____    ______ ____
ROOT
ATOM      1  C   UNL     1       2.101   7.175  19.560  0.00  0.00    +0.000 A 
ATOM      2  C   UNL     1       1.203   6.427  20.358  0.00  0.00    +0.000 A 
ATOM      3  C   UNL     1       1.485   5.115  20.750  0.00  0.00    +0.000 A 
ATOM      4  C   UNL     1       2.645   4.555  20.271  0.00  0.00    +0.000 A 
ATOM      5  C   UNL     1       3.486   5.239  19.391  0.00  0.00    +0.000 A 
ATOM      6  C   UNL     1       3.229   6.544  19.014  0.00  0.00    +0.000 A 
ATOM      7  N   UNL     1       4.562   4.392  19.083  0.00  0.00    +0.000 N 
ATOM      8  C   UNL     1       4.425   3.195  19.821  0.00  0.00    +0.000 A 
ATOM      9  O   UNL     1       5.209   2.253  19.839  0.00  0.00    +0.000 OA
ATOM     10  N   UNL     1       3.217   3.306  20.536  0.00  0.00    +0.000 N 
ATOM     11  C   UNL     1       2.693   2.337  21.456  0.00  0.00    +0.000 C 
ENDROOT
BRANCH   1  12
ATOM     12  N   UNL     1       1.938   8.561  19.365  0.00  0.00    +0.000 N 
ATOM     13  H   UNL     1       2.349   8.911  18.508  0.00  0.00    +0.000 HD
BRANCH  12  19
ATOM     14  C   UNL     1      -0.787  10.834  19.175  0.00  0.00    +0.000 A 
ATOM     15  N   UNL     1      -1.143  11.112  20.436  0.00  0.00    +0.000 NA
ATOM     16  C   UNL     1      -0.390  10.556  21.395  0.00  0.00    +0.000 A 
ATOM     17  C   UNL     1       0.685   9.736  21.153  0.00  0.00    +0.000 A 
ATOM     18 CL   UNL     1       1.657   9.291  22.502  0.00  0.00    +0.000 Cl
ATOM     19  C   UNL     1       0.925   9.424  19.812  0.00  0.00    +0.000 A 
ATOM     20  N   UNL     1       0.202   9.995  18.822  0.00  0.00    +0.000 NA
BRANCH  14  22
ATOM     21  C   UNL     1      -2.151  10.261  16.888  0.00  0.00    +0.000 C 
ATOM     22  S   UNL     1      -1.641  11.693  17.879  0.00  0.00    +0.000 S 
ENDBRANCH  14  22
ENDBRANCH  12  19
ENDBRANCH   1  12
BRANCH   7  23
ATOM     23  C   UNL     1       5.697   4.738  18.260  0.00  0.00    +0.000 C 
BRANCH  23  24
ATOM     24  C   UNL     1       5.619   4.122  16.857  0.00  0.00    +0.000 C 
BRANCH  24  25
ATOM     25  C   UNL     1       5.922   5.129  15.730  0.00  0.00    +0.000 C 
ATOM     26  C   UNL     1       5.641   4.499  14.360  0.00  0.00    +0.000 C 
ATOM     27  C   UNL     1       5.122   6.427  15.871  0.00  0.00    +0.000 C 
BRANCH  25  28
ATOM     28  O   UNL     1       7.307   5.479  15.778  0.00  0.00    +0.000 OA
ATOM     29  H   UNL     1       7.423   6.320  15.300  0.00  0.00    +0.000 HD
ENDBRANCH  25  28
ENDBRANCH  24  25
ENDBRANCH  23  24
ENDBRANCH   7  23
TORSDOF 7
ENDMDL
MODEL 6
REMARK VINA RESULT:      -7.9      1.594      2.001
REMARK  Name = 
REMARK  11 active torsions:
REMARK  status: ('A' for Active; 'I' for Inactive)
REMARK    1  A    between atoms: C_1  and  S_2
REMARK    2  A    between atoms: S_2  and  C_3
REMARK    3  A    between atoms: C_8  and  N_9
REMARK    4  A    between atoms: N_9  and  C_10
REMARK    5  A    between atoms: N_16  and  C_17
REMARK    6  A    between atoms: C_17  and  C_18
REMARK    7  A    between atoms: C_18  and  C_19
REMARK    8  A    between atoms: C_19  and  C_20
REMARK    9  A    between atoms: C_19  and  C_21
REMARK   10  A    between atoms: C_19  and  O_22
REMARK   11  A    between atoms: N_25  and  C_26
REMARK                            x       y       z     vdW  Elec       q    Type
REMARK                         _______ _______ _______ _____ _____    ______ ____
ROOT
ATOM      1  C   UNL     1       1.950   6.827  20.237  0.00  0.00    +0.000 A 
ATOM      2  C   UNL     1       0.996   5.880  20.680  0.00  0.00    +0.000 A 
ATOM      3  C   UNL     1       1.086   4.528  20.335  0.00  0.00    +0.000 A 
ATOM      4  C   UNL     1       2.106   4.165  19.488  0.00  0.00    +0.000 A 
ATOM      5  C   UNL     1       2.988   5.104  18.952  0.00  0.00    +0.000 A 
ATOM      6  C   UNL     1       2.924   6.441  19.302  0.00  0.00    +0.000 A 
ATOM      7  N   UNL     1       3.891   4.420  18.123  0.00  0.00    +0.000 N 
ATOM      8  C   UNL     1       3.609   3.036  18.189  0.00  0.00    +0.000 A 
ATOM      9  O   UNL     1       4.229   2.136  17.635  0.00  0.00    +0.000 OA
ATOM     10  N   UNL     1       2.484   2.901  19.025  0.00  0.00    +0.000 N 
ATOM     11  C   UNL     1       1.870   1.663  19.412  0.00  0.00    +0.000 C 
ENDROOT
BRANCH   1  12
ATOM     12  N   UNL     1       2.003   8.129  20.772  0.00  0.00    +0.000 N 
ATOM     13  H   UNL     1       2.938   8.449  20.995  0.00  0.00    +0.000 HD
BRANCH  12  19
ATOM     14  C   UNL     1      -0.344  10.672  21.583  0.00  0.00    +0.000 A 
ATOM     15  N   UNL     1      -0.556  11.370  20.460  0.00  0.00    +0.000 NA
ATOM     16  C   UNL     1       0.074  10.925  19.363  0.00  0.00    +0.000 A 
ATOM     17  C   UNL     1       0.905   9.832  19.342  0.00  0.00    +0.000 A 
ATOM     18 CL   UNL     1       1.452   9.287  17.804  0.00  0.00    +0.000 Cl
ATOM     19  C   UNL     1       1.143   9.222  20.578  0.00  0.00    +0.000 A 
ATOM     20  N   UNL     1       0.497   9.629  21.694  0.00  0.00    +0.000 NA
BRANCH  14  22
ATOM     21  C   UNL     1      -1.107  12.918  22.921  0.00  0.00    +0.000 C 
ATOM     22  S   UNL     1      -1.298  11.116  23.010  0.00  0.00    +0.000 S 
ENDBRANCH  14  22
ENDBRANCH  12  19
ENDBRANCH   1  12
BRANCH   7  23
ATOM     23  C   UNL     1       5.012   5.009  17.429  0.00  0.00    +0.000 C 
BRANCH  23  24
ATOM     24  C   UNL     1       4.831   5.004  15.905  0.00  0.00    +0.000 C 
BRANCH  24  25
ATOM     25  C   UNL     1       5.952   4.252  15.160  0.00  0.00    +0.000 C 
ATOM     26  C   UNL     1       5.574   4.048  13.689  0.00  0.00    +0.000 C 
ATOM     27  C   UNL     1       7.302   4.972  15.247  0.00  0.00    +0.000 C 
BRANCH  25  28
ATOM     28  O   UNL     1       6.123   2.963  15.755  0.00  0.00    +0.000 OA
ATOM     29  H   UNL     1       5.946   3.045  16.709  0.00  0.00    +0.000 HD
ENDBRANCH  25  28
ENDBRANCH  24  25
ENDBRANCH  23  24
ENDBRANCH   7  23
TORSDOF 7
ENDMDL
MODEL 7
REMARK VINA RESULT:      -7.9      4.171      8.196
REMARK  Name = 
REMARK  11 active torsions:
REMARK  status: ('A' for Active; 'I' for Inactive)
REMARK    1  A    between atoms: C_1  and  S_2
REMARK    2  A    between atoms: S_2  and  C_3
REMARK    3  A    between atoms: C_8  and  N_9
REMARK    4  A    between atoms: N_9  and  C_10
REMARK    5  A    between atoms: N_16  and  C_17
REMARK    6  A    between atoms: C_17  and  C_18
REMARK    7  A    between atoms: C_18  and  C_19
REMARK    8  A    between atoms: C_19  and  C_20
REMARK    9  A    between atoms: C_19  and  C_21
REMARK   10  A    between atoms: C_19  and  O_22
REMARK   11  A    between atoms: N_25  and  C_26
REMARK                            x       y       z     vdW  Elec       q    Type
REMARK                         _______ _______ _______ _____ _____    ______ ____
ROOT
ATOM      1  C   UNL     1       1.954   7.861  19.446  0.00  0.00    +0.000 A 
ATOM      2  C   UNL     1       1.895   7.604  20.837  0.00  0.00    +0.000 A 
ATOM      3  C   UNL     1       1.131   8.395  21.700  0.00  0.00    +0.000 A 
ATOM      4  C   UNL     1       0.488   9.478  21.150  0.00  0.00    +0.000 A 
ATOM      5  C   UNL     1       0.626   9.812  19.802  0.00  0.00    +0.000 A 
ATOM      6  C   UNL     1       1.361   9.025  18.934  0.00  0.00    +0.000 A 
ATOM      7  N   UNL     1      -0.136  10.966  19.566  0.00  0.00    +0.000 N 
ATOM      8  C   UNL     1      -0.803  11.322  20.760  0.00  0.00    +0.000 A 
ATOM      9  O   UNL     1      -1.594  12.247  20.909  0.00  0.00    +0.000 OA
ATOM     10  N   UNL     1      -0.386  10.399  21.738  0.00  0.00    +0.000 N 
ATOM     11  C   UNL     1      -0.843  10.351  23.097  0.00  0.00    +0.000 C 
ENDROOT
BRANCH   1  12
ATOM     12  N   UNL     1       2.520   6.936  18.547  0.00  0.00    +0.000 N 
ATOM     13  H   UNL     1       2.707   7.313  17.626  0.00  0.00    +0.000 HD
BRANCH  12  19
ATOM     14  C   UNL     1       5.430   4.895  18.524  0.00  0.00    +0.000 A 
ATOM     15  N   UNL     1       5.119   3.777  19.194  0.00  0.00    +0.000 NA
ATOM     16  C   UNL     1       3.852   3.680  19.619  0.00  0.00    +0.000 A 
ATOM     17  C   UNL     1       2.895   4.644  19.417  0.00  0.00    +0.000 A 
ATOM     18 CL   UNL     1       1.276   4.249  19.846  0.00  0.00    +0.000 Cl
ATOM     19  C   UNL     1       3.331   5.817  18.793  0.00  0.00    +0.000 A 
ATOM     20  N   UNL     1       4.595   5.929  18.325  0.00  0.00    +0.000 NA
BRANCH  14  22
ATOM     21  C   UNL     1       7.846   6.056  19.010  0.00  0.00    +0.000 C 
ATOM     22  S   UNL     1       7.040   4.983  17.787  0.00  0.00    +0.000 S 
ENDBRANCH  14  22
ENDBRANCH  12  19
ENDBRANCH   1  12
BRANCH   7  23
ATOM     23  C   UNL     1      -0.324  11.605  18.284  0.00  0.00    +0.000 C 
BRANCH  23  24
ATOM     24  C   UNL     1      -1.801  11.685  17.876  0.00  0.00    +0.000 C 
BRANCH  24  25
ATOM     25  C   UNL     1      -2.264  10.490  17.019  0.00  0.00    +0.000 C 
ATOM     26  C   UNL     1      -3.319   9.670  17.771  0.00  0.00    +0.000 C 
ATOM     27  C   UNL     1      -2.824  10.923  15.660  0.00  0.00    +0.000 C 
BRANCH  25  28
ATOM     28  O   UNL     1      -1.144   9.640  16.762  0.00  0.00    +0.000 OA
ATOM     29  H   UNL     1      -0.332  10.168  16.873  0.00  0.00    +0.000 HD
ENDBRANCH  25  28
ENDBRANCH  24  25
ENDBRANCH  23  24
ENDBRANCH   7  23
TORSDOF 7
ENDMDL
MODEL 8
REMARK VINA RESULT:      -7.9      2.273      2.769
REMARK  Name = 
REMARK  11 active torsions:
REMARK  status: ('A' for Active; 'I' for Inactive)
REMARK    1  A    between atoms: C_1  and  S_2
REMARK    2  A    between atoms: S_2  and  C_3
REMARK    3  A    between atoms: C_8  and  N_9
REMARK    4  A    between atoms: N_9  and  C_10
REMARK    5  A    between atoms: N_16  and  C_17
REMARK    6  A    between atoms: C_17  and  C_18
REMARK    7  A    between atoms: C_18  and  C_19
REMARK    8  A    between atoms: C_19  and  C_20
REMARK    9  A    between atoms: C_19  and  C_21
REMARK   10  A    between atoms: C_19  and  O_22
REMARK   11  A    between atoms: N_25  and  C_26
REMARK                            x       y       z     vdW  Elec       q    Type
REMARK                         _______ _______ _______ _____ _____    ______ ____
ROOT
ATOM      1  C   UNL     1       2.092   7.022  19.690  0.00  0.00    +0.000 A 
ATOM      2  C   UNL     1       1.071   6.287  20.338  0.00  0.00    +0.000 A 
ATOM      3  C   UNL     1       1.255   4.957  20.728  0.00  0.00    +0.000 A 
ATOM      4  C   UNL     1       2.451   4.368  20.394  0.00  0.00    +0.000 A 
ATOM      5  C   UNL     1       3.425   5.042  19.656  0.00  0.00    +0.000 A 
ATOM      6  C   UNL     1       3.264   6.365  19.284  0.00  0.00    +0.000 A 
ATOM      7  N   UNL     1       4.506   4.166  19.473  0.00  0.00    +0.000 N 
ATOM      8  C   UNL     1       4.232   2.957  20.151  0.00  0.00    +0.000 A 
ATOM      9  O   UNL     1       4.976   1.988  20.249  0.00  0.00    +0.000 OA
ATOM     10  N   UNL     1       2.942   3.094  20.699  0.00  0.00    +0.000 N 
ATOM     11  C   UNL     1       2.268   2.122  21.512  0.00  0.00    +0.000 C 
ENDROOT
BRANCH   1  12
ATOM     12  N   UNL     1       2.001   8.417  19.515  0.00  0.00    +0.000 N 
ATOM     13  H   UNL     1       2.444   8.759  18.670  0.00  0.00    +0.000 HD
BRANCH  12  19
ATOM     14  C   UNL     1      -0.612  10.816  19.317  0.00  0.00    +0.000 A 
ATOM     15  N   UNL     1      -0.968  11.100  20.577  0.00  0.00    +0.000 NA
ATOM     16  C   UNL     1      -0.253  10.501  21.539  0.00  0.00    +0.000 A 
ATOM     17  C   UNL     1       0.785   9.633  21.300  0.00  0.00    +0.000 A 
ATOM     18 CL   UNL     1       1.721   9.133  22.655  0.00  0.00    +0.000 Cl
ATOM     19  C   UNL     1       1.025   9.322  19.959  0.00  0.00    +0.000 A 
ATOM     20  N   UNL     1       0.340   9.935  18.967  0.00  0.00    +0.000 NA
BRANCH  14  22
ATOM     21  C   UNL     1      -0.579  13.322  18.248  0.00  0.00    +0.000 C 
ATOM     22  S   UNL     1      -1.411  11.725  18.020  0.00  0.00    +0.000 S 
ENDBRANCH  14  22
ENDBRANCH  12  19
ENDBRANCH   1  12
BRANCH   7  23
ATOM     23  C   UNL     1       5.753   4.492  18.821  0.00  0.00    +0.000 C 
BRANCH  23  24
ATOM     24  C   UNL     1       5.679   4.338  17.296  0.00  0.00    +0.000 C 
BRANCH  24  25
ATOM     25  C   UNL     1       6.931   4.868  16.567  0.00  0.00    +0.000 C 
ATOM     26  C   UNL     1       6.793   4.667  15.053  0.00  0.00    +0.000 C 
ATOM     27  C   UNL     1       7.202   6.346  16.865  0.00  0.00    +0.000 C 
BRANCH  25  28
ATOM     28  O   UNL     1       8.073   4.132  17.009  0.00  0.00    +0.000 OA
ATOM     29  H   UNL     1       8.839   4.734  17.009  0.00  0.00    +0.000 HD
ENDBRANCH  25  28
ENDBRANCH  24  25
ENDBRANCH  23  24
ENDBRANCH   7  23
TORSDOF 7
ENDMDL
MODEL 9
REMARK VINA RESULT:      -7.9      2.340      3.058
REMARK  Name = 
REMARK  11 active torsions:
REMARK  status: ('A' for Active; 'I' for Inactive)
REMARK    1  A    between atoms: C_1  and  S_2
REMARK    2  A    between atoms: S_2  and  C_3
REMARK    3  A    between atoms: C_8  and  N_9
REMARK    4  A    between atoms: N_9  and  C_10
REMARK    5  A    between atoms: N_16  and  C_17
REMARK    6  A    between atoms: C_17  and  C_18
REMARK    7  A    between atoms: C_18  and  C_19
REMARK    8  A    between atoms: C_19  and  C_20
REMARK    9  A    between atoms: C_19  and  C_21
REMARK   10  A    between atoms: C_19  and  O_22
REMARK   11  A    between atoms: N_25  and  C_26
REMARK                            x       y       z     vdW  Elec       q    Type
REMARK                         _______ _______ _______ _____ _____    ______ ____
ROOT
ATOM      1  C   UNL     1       1.899   8.197  19.040  0.00  0.00    +0.000 A 
ATOM      2  C   UNL     1       1.318   7.836  20.279  0.00  0.00    +0.000 A 
ATOM      3  C   UNL     1       1.509   6.571  20.841  0.00  0.00    +0.000 A 
ATOM      4  C   UNL     1       2.234   5.663  20.106  0.00  0.00    +0.000 A 
ATOM      5  C   UNL     1       2.719   5.966  18.832  0.00  0.00    +0.000 A 
ATOM      6  C   UNL     1       2.555   7.221  18.275  0.00  0.00    +0.000 A 
ATOM      7  N   UNL     1       3.394   4.833  18.351  0.00  0.00    +0.000 N 
ATOM      8  C   UNL     1       3.383   3.838  19.354  0.00  0.00    +0.000 A 
ATOM      9  O   UNL     1       3.923   2.738  19.299  0.00  0.00    +0.000 OA
ATOM     10  N   UNL     1       2.640   4.364  20.427  0.00  0.00    +0.000 N 
ATOM     11  C   UNL     1       2.404   3.714  21.684  0.00  0.00    +0.000 C 
ENDROOT
BRANCH   1  12
ATOM     12  N   UNL     1       1.911   9.533  18.591  0.00  0.00    +0.000 N 
ATOM     13  H   UNL     1       2.628   9.733  17.904  0.00  0.00    +0.000 HD
BRANCH  12  19
ATOM     14  C   UNL     1      -1.373  10.763  18.016  0.00  0.00    +0.000 A 
ATOM     15  N   UNL     1      -1.343  12.075  18.283  0.00  0.00    +0.000 NA
ATOM     16  C   UNL     1      -0.147  12.581  18.613  0.00  0.00    +0.000 A 
ATOM     17  C   UNL     1       1.007  11.839  18.696  0.00  0.00    +0.000 A 
ATOM     18 CL   UNL     1       2.481  12.698  18.922  0.00  0.00    +0.000 Cl
ATOM     19  C   UNL     1       0.864  10.463  18.494  0.00  0.00    +0.000 A 
ATOM     20  N   UNL     1      -0.325   9.931  18.129  0.00  0.00    +0.000 NA
BRANCH  14  22
ATOM     21  C   UNL     1      -2.721  10.564  15.657  0.00  0.00    +0.000 C 
ATOM     22  S   UNL     1      -2.895  10.092  17.400  0.00  0.00    +0.000 S 
ENDBRANCH  14  22
ENDBRANCH  12  19
ENDBRANCH   1  12
BRANCH   7  23
ATOM     23  C   UNL     1       4.106   4.746  17.097  0.00  0.00    +0.000 C 
BRANCH  23  24
ATOM     24  C   UNL     1       5.625   4.865  17.272  0.00  0.00    +0.000 C 
BRANCH  24  25
ATOM     25  C   UNL     1       6.238   6.049  16.497  0.00  0.00    +0.000 C 
ATOM     26  C   UNL     1       5.195   6.673  15.562  0.00  0.00    +0.000 C 
ATOM     27  C   UNL     1       6.805   7.128  17.424  0.00  0.00    +0.000 C 
BRANCH  25  28
ATOM     28  O   UNL     1       7.320   5.571  15.695  0.00  0.00    +0.000 OA
ATOM     29  H   UNL     1       7.059   4.711  15.318  0.00  0.00    +0.000 HD
ENDBRANCH  25  28
ENDBRANCH  24  25
ENDBRANCH  23  24
ENDBRANCH   7  23
TORSDOF 7
ENDMDL
