MODEL 1
REMARK VINA RESULT:      -7.9      0.000      0.000
REMARK  Name = 
REMARK  4 active torsions:
REMARK  status: ('A' for Active; 'I' for Inactive)
REMARK    1  A    between atoms: C_1  and  C_2
REMARK    2  A    between atoms: C_4  and  C_5
REMARK    3  A    between atoms: C_12  and  C_13
REMARK    4  A    between atoms: C_13  and  N_14
REMARK                            x       y       z     vdW  Elec       q    Type
REMARK                         _______ _______ _______ _____ _____    ______ ____
ROOT
ATOM      1  C   UNL     1       7.847   7.577  17.870  0.00  0.00    +0.000 C 
ATOM      2  C   UNL     1       7.245   6.364  17.258  0.00  0.00    +0.000 A 
ATOM      3  N   UNL     1       7.401   6.179  15.896  0.00  0.00    +0.000 NA
ATOM      4  C   UNL     1       6.801   5.076  15.489  0.00  0.00    +0.000 A 
ATOM      5  S   UNL     1       6.048   4.184  16.754  0.00  0.00    +0.000 S 
ATOM      6  C   UNL     1       6.517   5.376  17.896  0.00  0.00    +0.000 A 
ENDROOT
BRANCH   4   7
ATOM      7  C   UNL     1       6.750   4.652  14.074  0.00  0.00    +0.000 A 
ATOM      8  C   UNL     1       5.762   3.730  13.684  0.00  0.00    +0.000 A 
ATOM      9  C   UNL     1       5.693   3.244  12.375  0.00  0.00    +0.000 A 
ATOM     10  C   UNL     1       6.614   3.676  11.426  0.00  0.00    +0.000 A 
ATOM     11  C   UNL     1       7.592   4.600  11.782  0.00  0.00    +0.000 A 
ATOM     12  C   UNL     1       7.659   5.087  13.094  0.00  0.00    +0.000 A 
ENDBRANCH   4   7
BRANCH   6  13
ATOM     13  C   UNL     1       6.131   5.247  19.338  0.00  0.00    +0.000 C 
BRANCH  13  14
ATOM     14  N   UNL     1       5.186   4.177  19.582  0.00  0.00    +0.000 N 
ATOM     15  C   UNL     1       3.891   4.411  19.994  0.00  0.00    +0.000 A 
ATOM     16  C   UNL     1       3.170   5.530  19.648  0.00  0.00    +0.000 A 
ATOM     17  C   UNL     1       1.867   5.579  20.083  0.00  0.00    +0.000 A 
ATOM     18  N   UNL     1       1.288   4.600  20.794  0.00  0.00    +0.000 NA
ATOM     19  C   UNL     1       2.052   3.539  21.054  0.00  0.00    +0.000 A 
ATOM     20  N   UNL     1       1.474   2.499  21.752  0.00  0.00    +0.000 N 
ATOM     21  N   UNL     1       3.338   3.417  20.709  0.00  0.00    +0.000 NA
ATOM     22  H   UNL     1       5.550   3.359  20.064  0.00  0.00    +0.000 HD
ATOM     23  H   UNL     1       0.686   2.835  22.285  0.00  0.00    +0.000 HD
ATOM     24  H   UNL     1       2.183   1.966  22.234  0.00  0.00    +0.000 HD
ENDBRANCH  13  14
ENDBRANCH   6  13
TORSDOF 3
ENDMDL
MODEL 2
REMARK VINA RESULT:      -7.8      0.095      1.053
REMARK  Name = 
REMARK  4 active torsions:
REMARK  status: ('A' for Active; 'I' for Inactive)
REMARK    1  A    between atoms: C_1  and  C_2
REMARK    2  A    between atoms: C_4  and  C_5
REMARK    3  A    between atoms: C_12  and  C_13
REMARK    4  A    between atoms: C_13  and  N_14
REMARK                            x       y       z     vdW  Elec       q    Type
REMARK                         _______ _______ _______ _____ _____    ______ ____
ROOT
ATOM      1  C   UNL     1       7.782   7.623  17.801  0.00  0.00    +0.000 C 
ATOM      2  C   UNL     1       7.206   6.381  17.221  0.00  0.00    +0.000 A 
ATOM      3  N   UNL     1       7.368   6.163  15.865  0.00  0.00    +0.000 NA
ATOM      4  C   UNL     1       6.791   5.037  15.486  0.00  0.00    +0.000 A 
ATOM      5  S   UNL     1       6.054   4.165  16.775  0.00  0.00    +0.000 S 
ATOM      6  C   UNL     1       6.497   5.396  17.884  0.00  0.00    +0.000 A 
ENDROOT
BRANCH   4   7
ATOM      7  C   UNL     1       6.751   4.575  14.083  0.00  0.00    +0.000 A 
ATOM      8  C   UNL     1       7.667   5.127  13.168  0.00  0.00    +0.000 A 
ATOM      9  C   UNL     1       7.648   4.777  11.815  0.00  0.00    +0.000 A 
ATOM     10  C   UNL     1       6.710   3.860  11.350  0.00  0.00    +0.000 A 
ATOM     11  C   UNL     1       5.803   3.288  12.238  0.00  0.00    +0.000 A 
ATOM     12  C   UNL     1       5.825   3.639  13.594  0.00  0.00    +0.000 A 
ENDBRANCH   4   7
BRANCH   6  13
ATOM     13  C   UNL     1       6.111   5.298  19.329  0.00  0.00    +0.000 C 
BRANCH  13  14
ATOM     14  N   UNL     1       5.192   4.212  19.601  0.00  0.00    +0.000 N 
ATOM     15  C   UNL     1       3.888   4.425  19.996  0.00  0.00    +0.000 A 
ATOM     16  C   UNL     1       3.141   5.513  19.607  0.00  0.00    +0.000 A 
ATOM     17  C   UNL     1       1.833   5.541  20.030  0.00  0.00    +0.000 A 
ATOM     18  N   UNL     1       1.274   4.572  20.770  0.00  0.00    +0.000 NA
ATOM     19  C   UNL     1       2.064   3.541  21.070  0.00  0.00    +0.000 A 
ATOM     20  N   UNL     1       1.508   2.510  21.799  0.00  0.00    +0.000 N 
ATOM     21  N   UNL     1       3.356   3.442  20.740  0.00  0.00    +0.000 NA
ATOM     22  H   UNL     1       5.573   3.421  20.113  0.00  0.00    +0.000 HD
ATOM     23  H   UNL     1       0.707   2.843  22.315  0.00  0.00    +0.000 HD
ATOM     24  H   UNL     1       2.226   2.012  22.304  0.00  0.00    +0.000 HD
ENDBRANCH  13  14
ENDBRANCH   6  13
TORSDOF 3
ENDMDL
MODEL 3
REMARK VINA RESULT:      -7.6      1.171      1.600
REMARK  Name = 
REMARK  4 active torsions:
REMARK  status: ('A' for Active; 'I' for Inactive)
REMARK    1  A    between atoms: C_1  and  C_2
REMARK    2  A    between atoms: C_4  and  C_5
REMARK    3  A    between atoms: C_12  and  C_13
REMARK    4  A    between atoms: C_13  and  N_14
REMARK                            x       y       z     vdW  Elec       q    Type
REMARK                         _______ _______ _______ _____ _____    ______ ____
ROOT
ATOM      1  C   UNL     1       7.851   5.943  18.901  0.00  0.00    +0.000 C 
ATOM      2  C   UNL     1       6.882   5.608  17.825  0.00  0.00    +0.000 A 
ATOM      3  N   UNL     1       7.386   5.242  16.589  0.00  0.00    +0.000 NA
ATOM      4  C   UNL     1       6.416   4.993  15.729  0.00  0.00    +0.000 A 
ATOM      5  S   UNL     1       4.836   5.152  16.395  0.00  0.00    +0.000 S 
ATOM      6  C   UNL     1       5.501   5.628  17.902  0.00  0.00    +0.000 A 
ENDROOT
BRANCH   4   7
ATOM      7  C   UNL     1       6.655   4.636  14.315  0.00  0.00    +0.000 A 
ATOM      8  C   UNL     1       7.621   5.362  13.593  0.00  0.00    +0.000 A 
ATOM      9  C   UNL     1       7.857   5.115  12.238  0.00  0.00    +0.000 A 
ATOM     10  C   UNL     1       7.129   4.130  11.576  0.00  0.00    +0.000 A 
ATOM     11  C   UNL     1       6.179   3.388  12.271  0.00  0.00    +0.000 A 
ATOM     12  C   UNL     1       5.945   3.636  13.630  0.00  0.00    +0.000 A 
ENDBRANCH   4   7
BRANCH   6  13
ATOM     13  C   UNL     1       4.609   5.988  19.052  0.00  0.00    +0.000 C 
BRANCH  13  14
ATOM     14  N   UNL     1       4.289   4.858  19.900  0.00  0.00    +0.000 N 
ATOM     15  C   UNL     1       3.045   4.263  19.905  0.00  0.00    +0.000 A 
ATOM     16  C   UNL     1       2.226   4.199  18.801  0.00  0.00    +0.000 A 
ATOM     17  C   UNL     1       1.046   3.509  18.953  0.00  0.00    +0.000 A 
ATOM     18  N   UNL     1       0.686   2.903  20.094  0.00  0.00    +0.000 NA
ATOM     19  C   UNL     1       1.558   2.989  21.100  0.00  0.00    +0.000 A 
ATOM     20  N   UNL     1       1.233   2.345  22.275  0.00  0.00    +0.000 N 
ATOM     21  N   UNL     1       2.708   3.670  21.061  0.00  0.00    +0.000 NA
ATOM     22  H   UNL     1       4.647   4.897  20.851  0.00  0.00    +0.000 HD
ATOM     23  H   UNL     1       0.234   2.217  22.336  0.00  0.00    +0.000 HD
ATOM     24  H   UNL     1       1.706   2.779  23.054  0.00  0.00    +0.000 HD
ENDBRANCH  13  14
ENDBRANCH   6  13
TORSDOF 3
ENDMDL
MODEL 4
REMARK VINA RESULT:      -7.6      1.207      1.293
REMARK  Name = 
REMARK  4 active torsions:
REMARK  status: ('A' for Active; 'I' for Inactive)
REMARK    1  A    between atoms: C_1  and  C_2
REMARK    2  A    between atoms: C_4  and  C_5
REMARK    3  A    between atoms: C_12  and  C_13
REMARK    4  A    between atoms: C_13  and  N_14
REMARK                            x       y       z     vdW  Elec       q    Type
REMARK                         _______ _______ _______ _____ _____    ______ ____
ROOT
ATOM      1  C   UNL     1       7.889   5.511  19.123  0.00  0.00    +0.000 C 
ATOM      2  C   UNL     1       6.918   5.405  18.004  0.00  0.00    +0.000 A 
ATOM      3  N   UNL     1       7.401   5.058  16.755  0.00  0.00    +0.000 NA
ATOM      4  C   UNL     1       6.434   5.023  15.857  0.00  0.00    +0.000 A 
ATOM      5  S   UNL     1       4.875   5.371  16.498  0.00  0.00    +0.000 S 
ATOM      6  C   UNL     1       5.554   5.629  18.052  0.00  0.00    +0.000 A 
ENDROOT
BRANCH   4   7
ATOM      7  C   UNL     1       6.664   4.738  14.425  0.00  0.00    +0.000 A 
ATOM      8  C   UNL     1       5.877   3.751  13.802  0.00  0.00    +0.000 A 
ATOM      9  C   UNL     1       6.079   3.393  12.466  0.00  0.00    +0.000 A 
ATOM     10  C   UNL     1       7.075   4.019  11.724  0.00  0.00    +0.000 A 
ATOM     11  C   UNL     1       7.857   5.009  12.312  0.00  0.00    +0.000 A 
ATOM     12  C   UNL     1       7.651   5.369  13.650  0.00  0.00    +0.000 A 
ENDBRANCH   4   7
BRANCH   6  13
ATOM     13  C   UNL     1       4.688   6.035  19.207  0.00  0.00    +0.000 C 
BRANCH  13  14
ATOM     14  N   UNL     1       4.293   4.920  20.043  0.00  0.00    +0.000 N 
ATOM     15  C   UNL     1       3.055   4.321  19.944  0.00  0.00    +0.000 A 
ATOM     16  C   UNL     1       2.340   4.233  18.771  0.00  0.00    +0.000 A 
ATOM     17  C   UNL     1       1.153   3.542  18.827  0.00  0.00    +0.000 A 
ATOM     18  N   UNL     1       0.691   2.956  19.941  0.00  0.00    +0.000 NA
ATOM     19  C   UNL     1       1.467   3.064  21.021  0.00  0.00    +0.000 A 
ATOM     20  N   UNL     1       1.036   2.440  22.173  0.00  0.00    +0.000 N 
ATOM     21  N   UNL     1       2.614   3.748  21.076  0.00  0.00    +0.000 NA
ATOM     22  H   UNL     1       4.562   4.977  21.021  0.00  0.00    +0.000 HD
ATOM     23  H   UNL     1       0.035   2.310  22.144  0.00  0.00    +0.000 HD
ATOM     24  H   UNL     1       1.434   2.891  22.984  0.00  0.00    +0.000 HD
ENDBRANCH  13  14
ENDBRANCH   6  13
TORSDOF 3
ENDMDL
MODEL 5
REMARK VINA RESULT:      -7.5      1.287      1.710
REMARK  Name = 
REMARK  4 active torsions:
REMARK  status: ('A' for Active; 'I' for Inactive)
REMARK    1  A    between atoms: C_1  and  C_2
REMARK    2  A    between atoms: C_4  and  C_5
REMARK    3  A    between atoms: C_12  and  C_13
REMARK    4  A    between atoms: C_13  and  N_14
REMARK                            x       y       z     vdW  Elec       q    Type
REMARK                         _______ _______ _______ _____ _____    ______ ____
ROOT
ATOM      1  C   UNL     1       7.843   7.695  17.946  0.00  0.00    +0.000 C 
ATOM      2  C   UNL     1       7.256   6.480  17.324  0.00  0.00    +0.000 A 
ATOM      3  N   UNL     1       7.445   6.289  15.967  0.00  0.00    +0.000 NA
ATOM      4  C   UNL     1       6.855   5.185  15.549  0.00  0.00    +0.000 A 
ATOM      5  S   UNL     1       6.071   4.298  16.799  0.00  0.00    +0.000 S 
ATOM      6  C   UNL     1       6.512   5.494  17.947  0.00  0.00    +0.000 A 
ENDROOT
BRANCH   4   7
ATOM      7  C   UNL     1       6.839   4.756  14.134  0.00  0.00    +0.000 A 
ATOM      8  C   UNL     1       5.936   3.749  13.748  0.00  0.00    +0.000 A 
ATOM      9  C   UNL     1       5.907   3.257  12.440  0.00  0.00    +0.000 A 
ATOM     10  C   UNL     1       6.784   3.767  11.488  0.00  0.00    +0.000 A 
ATOM     11  C   UNL     1       7.676   4.775  11.841  0.00  0.00    +0.000 A 
ATOM     12  C   UNL     1       7.703   5.269  13.152  0.00  0.00    +0.000 A 
ENDBRANCH   4   7
BRANCH   6  13
ATOM     13  C   UNL     1       6.091   5.370  19.380  0.00  0.00    +0.000 C 
BRANCH  13  14
ATOM     14  N   UNL     1       4.656   5.265  19.545  0.00  0.00    +0.000 N 
ATOM     15  C   UNL     1       3.974   4.078  19.374  0.00  0.00    +0.000 A 
ATOM     16  C   UNL     1       4.514   2.842  19.645  0.00  0.00    +0.000 A 
ATOM     17  C   UNL     1       3.679   1.761  19.489  0.00  0.00    +0.000 A 
ATOM     18  N   UNL     1       2.396   1.866  19.112  0.00  0.00    +0.000 NA
ATOM     19  C   UNL     1       1.950   3.106  18.905  0.00  0.00    +0.000 A 
ATOM     20  N   UNL     1       0.624   3.250  18.552  0.00  0.00    +0.000 N 
ATOM     21  N   UNL     1       2.694   4.213  18.991  0.00  0.00    +0.000 NA
ATOM     22  H   UNL     1       4.104   6.028  19.162  0.00  0.00    +0.000 HD
ATOM     23  H   UNL     1       0.280   2.395  18.141  0.00  0.00    +0.000 HD
ATOM     24  H   UNL     1       0.490   4.111  18.043  0.00  0.00    +0.000 HD
ENDBRANCH  13  14
ENDBRANCH   6  13
TORSDOF 3
ENDMDL
MODEL 6
REMARK VINA RESULT:      -7.4      1.291      2.004
REMARK  Name = 
REMARK  4 active torsions:
REMARK  status: ('A' for Active; 'I' for Inactive)
REMARK    1  A    between atoms: C_1  and  C_2
REMARK    2  A    between atoms: C_4  and  C_5
REMARK    3  A    between atoms: C_12  and  C_13
REMARK    4  A    between atoms: C_13  and  N_14
REMARK                            x       y       z     vdW  Elec       q    Type
REMARK                         _______ _______ _______ _____ _____    ______ ____
ROOT
ATOM      1  C   UNL     1       7.878   7.636  17.929  0.00  0.00    +0.000 C 
ATOM      2  C   UNL     1       7.243   6.435  17.328  0.00  0.00    +0.000 A 
ATOM      3  N   UNL     1       7.449   6.197  15.981  0.00  0.00    +0.000 NA
ATOM      4  C   UNL     1       6.811   5.112  15.581  0.00  0.00    +0.000 A 
ATOM      5  S   UNL     1       5.958   4.302  16.837  0.00  0.00    +0.000 S 
ATOM      6  C   UNL     1       6.437   5.506  17.962  0.00  0.00    +0.000 A 
ENDROOT
BRANCH   4   7
ATOM      7  C   UNL     1       6.802   4.645  14.179  0.00  0.00    +0.000 A 
ATOM      8  C   UNL     1       7.689   5.244  13.265  0.00  0.00    +0.000 A 
ATOM      9  C   UNL     1       7.693   4.890  11.913  0.00  0.00    +0.000 A 
ATOM     10  C   UNL     1       6.808   3.923  11.447  0.00  0.00    +0.000 A 
ATOM     11  C   UNL     1       5.931   3.304  12.333  0.00  0.00    +0.000 A 
ATOM     12  C   UNL     1       5.929   3.659  13.688  0.00  0.00    +0.000 A 
ENDBRANCH   4   7
BRANCH   6  13
ATOM     13  C   UNL     1       5.981   5.444  19.388  0.00  0.00    +0.000 C 
BRANCH  13  14
ATOM     14  N   UNL     1       4.546   5.305  19.523  0.00  0.00    +0.000 N 
ATOM     15  C   UNL     1       3.902   4.092  19.389  0.00  0.00    +0.000 A 
ATOM     16  C   UNL     1       4.469   2.886  19.728  0.00  0.00    +0.000 A 
ATOM     17  C   UNL     1       3.668   1.775  19.601  0.00  0.00    +0.000 A 
ATOM     18  N   UNL     1       2.393   1.826  19.189  0.00  0.00    +0.000 NA
ATOM     19  C   UNL     1       1.919   3.042  18.915  0.00  0.00    +0.000 A 
ATOM     20  N   UNL     1       0.599   3.132  18.523  0.00  0.00    +0.000 N 
ATOM     21  N   UNL     1       2.629   4.173  18.969  0.00  0.00    +0.000 NA
ATOM     22  H   UNL     1       3.983   6.034  19.092  0.00  0.00    +0.000 HD
ATOM     23  H   UNL     1       0.289   2.250  18.143  0.00  0.00    +0.000 HD
ATOM     24  H   UNL     1       0.454   3.965  17.973  0.00  0.00    +0.000 HD
ENDBRANCH  13  14
ENDBRANCH   6  13
TORSDOF 3
ENDMDL
MODEL 7
REMARK VINA RESULT:      -7.4      2.614      8.092
REMARK  Name = 
REMARK  4 active torsions:
REMARK  status: ('A' for Active; 'I' for Inactive)
REMARK    1  A    between atoms: C_1  and  C_2
REMARK    2  A    between atoms: C_4  and  C_5
REMARK    3  A    between atoms: C_12  and  C_13
REMARK    4  A    between atoms: C_13  and  N_14
REMARK                            x       y       z     vdW  Elec       q    Type
REMARK                         _______ _______ _______ _____ _____    ______ ____
ROOT
ATOM      1  C   UNL     1       3.453   3.088  19.676  0.00  0.00    +0.000 C 
ATOM      2  C   UNL     1       3.445   4.471  19.133  0.00  0.00    +0.000 A 
ATOM      3  N   UNL     1       2.633   5.406  19.751  0.00  0.00    +0.000 NA
ATOM      4  C   UNL     1       2.711   6.580  19.153  0.00  0.00    +0.000 A 
ATOM      5  S   UNL     1       3.811   6.617  17.829  0.00  0.00    +0.000 S 
ATOM      6  C   UNL     1       4.157   4.952  18.050  0.00  0.00    +0.000 A 
ENDROOT
BRANCH   4   7
ATOM      7  C   UNL     1       1.910   7.754  19.559  0.00  0.00    +0.000 A 
ATOM      8  C   UNL     1       1.684   8.772  18.614  0.00  0.00    +0.000 A 
ATOM      9  C   UNL     1       0.984   9.935  18.947  0.00  0.00    +0.000 A 
ATOM     10  C   UNL     1       0.490  10.101  20.237  0.00  0.00    +0.000 A 
ATOM     11  C   UNL     1       0.686   9.102  21.186  0.00  0.00    +0.000 A 
ATOM     12  C   UNL     1       1.387   7.936  20.850  0.00  0.00    +0.000 A 
ENDBRANCH   4   7
BRANCH   6  13
ATOM     13  C   UNL     1       5.109   4.241  17.135  0.00  0.00    +0.000 C 
BRANCH  13  14
ATOM     14  N   UNL     1       5.880   5.142  16.303  0.00  0.00    +0.000 N 
ATOM     15  C   UNL     1       6.305   4.801  15.036  0.00  0.00    +0.000 A 
ATOM     16  C   UNL     1       5.613   3.955  14.200  0.00  0.00    +0.000 A 
ATOM     17  C   UNL     1       6.136   3.773  12.942  0.00  0.00    +0.000 A 
ATOM     18  N   UNL     1       7.250   4.383  12.509  0.00  0.00    +0.000 NA
ATOM     19  C   UNL     1       7.834   5.211  13.376  0.00  0.00    +0.000 A 
ATOM     20  N   UNL     1       8.962   5.881  12.948  0.00  0.00    +0.000 N 
ATOM     21  N   UNL     1       7.425   5.422  14.631  0.00  0.00    +0.000 NA
ATOM     22  H   UNL     1       6.611   5.669  16.772  0.00  0.00    +0.000 HD
ATOM     23  H   UNL     1       9.395   5.380  12.187  0.00  0.00    +0.000 HD
ATOM     24  H   UNL     1       9.535   6.139  13.737  0.00  0.00    +0.000 HD
ENDBRANCH  13  14
ENDBRANCH   6  13
TORSDOF 3
ENDMDL
MODEL 8
REMARK VINA RESULT:      -7.3      2.644      8.175
REMARK  Name = 
REMARK  4 active torsions:
REMARK  status: ('A' for Active; 'I' for Inactive)
REMARK    1  A    between atoms: C_1  and  C_2
REMARK    2  A    between atoms: C_4  and  C_5
REMARK    3  A    between atoms: C_12  and  C_13
REMARK    4  A    between atoms: C_13  and  N_14
REMARK                            x       y       z     vdW  Elec       q    Type
REMARK                         _______ _______ _______ _____ _____    ______ ____
ROOT
ATOM      1  C   UNL     1       2.870   2.963  19.092  0.00  0.00    +0.000 C 
ATOM      2  C   UNL     1       3.075   4.398  18.765  0.00  0.00    +0.000 A 
ATOM      3  N   UNL     1       2.333   5.335  19.461  0.00  0.00    +0.000 NA
ATOM      4  C   UNL     1       2.602   6.562  19.054  0.00  0.00    +0.000 A 
ATOM      5  S   UNL     1       3.808   6.639  17.828  0.00  0.00    +0.000 S 
ATOM      6  C   UNL     1       3.930   4.928  17.817  0.00  0.00    +0.000 A 
ENDROOT
BRANCH   4   7
ATOM      7  C   UNL     1       1.917   7.762  19.578  0.00  0.00    +0.000 A 
ATOM      8  C   UNL     1       1.491   7.760  20.920  0.00  0.00    +0.000 A 
ATOM      9  C   UNL     1       0.788   8.838  21.463  0.00  0.00    +0.000 A 
ATOM     10  C   UNL     1       0.499   9.946  20.673  0.00  0.00    +0.000 A 
ATOM     11  C   UNL     1       0.923   9.980  19.348  0.00  0.00    +0.000 A 
ATOM     12  C   UNL     1       1.630   8.899  18.805  0.00  0.00    +0.000 A 
ENDBRANCH   4   7
BRANCH   6  13
ATOM     13  C   UNL     1       4.863   4.235  16.870  0.00  0.00    +0.000 C 
BRANCH  13  14
ATOM     14  N   UNL     1       5.652   5.152  16.073  0.00  0.00    +0.000 N 
ATOM     15  C   UNL     1       6.187   4.802  14.851  0.00  0.00    +0.000 A 
ATOM     16  C   UNL     1       5.599   3.904  13.990  0.00  0.00    +0.000 A 
ATOM     17  C   UNL     1       6.223   3.717  12.779  0.00  0.00    +0.000 A 
ATOM     18  N   UNL     1       7.336   4.369  12.413  0.00  0.00    +0.000 NA
ATOM     19  C   UNL     1       7.815   5.245  13.298  0.00  0.00    +0.000 A 
ATOM     20  N   UNL     1       8.939   5.958  12.935  0.00  0.00    +0.000 N 
ATOM     21  N   UNL     1       7.304   5.465  14.513  0.00  0.00    +0.000 NA
ATOM     22  H   UNL     1       6.321   5.725  16.581  0.00  0.00    +0.000 HD
ATOM     23  H   UNL     1       9.452   5.460  12.223  0.00  0.00    +0.000 HD
ATOM     24  H   UNL     1       9.440   6.262  13.758  0.00  0.00    +0.000 HD
ENDBRANCH  13  14
ENDBRANCH   6  13
TORSDOF 3
ENDMDL
MODEL 9
REMARK VINA RESULT:      -7.3      1.569      2.221
REMARK  Name = 
REMARK  4 active torsions:
REMARK  status: ('A' for Active; 'I' for Inactive)
REMARK    1  A    between atoms: C_1  and  C_2
REMARK    2  A    between atoms: C_4  and  C_5
REMARK    3  A    between atoms: C_12  and  C_13
REMARK    4  A    between atoms: C_13  and  N_14
REMARK                            x       y       z     vdW  Elec       q    Type
REMARK                         _______ _______ _______ _____ _____    ______ ____
ROOT
ATOM      1  C   UNL     1       3.865   7.410  17.424  0.00  0.00    +0.000 C 
ATOM      2  C   UNL     1       4.847   6.362  17.039  0.00  0.00    +0.000 A 
ATOM      3  N   UNL     1       5.058   6.135  15.691  0.00  0.00    +0.000 NA
ATOM      4  C   UNL     1       5.936   5.168  15.498  0.00  0.00    +0.000 A 
ATOM      5  S   UNL     1       6.581   4.511  16.953  0.00  0.00    +0.000 S 
ATOM      6  C   UNL     1       5.586   5.554  17.884  0.00  0.00    +0.000 A 
ENDROOT
BRANCH   4   7
ATOM      7  C   UNL     1       6.315   4.669  14.160  0.00  0.00    +0.000 A 
ATOM      8  C   UNL     1       7.418   5.256  13.511  0.00  0.00    +0.000 A 
ATOM      9  C   UNL     1       7.796   4.872  12.222  0.00  0.00    +0.000 A 
ATOM     10  C   UNL     1       7.077   3.885  11.554  0.00  0.00    +0.000 A 
ATOM     11  C   UNL     1       5.992   3.277  12.179  0.00  0.00    +0.000 A 
ATOM     12  C   UNL     1       5.615   3.663  13.472  0.00  0.00    +0.000 A 
ENDBRANCH   4   7
BRANCH   6  13
ATOM     13  C   UNL     1       5.609   5.497  19.381  0.00  0.00    +0.000 C 
BRANCH  13  14
ATOM     14  N   UNL     1       4.318   5.189  19.960  0.00  0.00    +0.000 N 
ATOM     15  C   UNL     1       3.618   4.042  19.647  0.00  0.00    +0.000 A 
ATOM     16  C   UNL     1       4.218   2.850  19.312  0.00  0.00    +0.000 A 
ATOM     17  C   UNL     1       3.380   1.782  19.096  0.00  0.00    +0.000 A 
ATOM     18  N   UNL     1       2.045   1.854  19.212  0.00  0.00    +0.000 NA
ATOM     19  C   UNL     1       1.556   3.041  19.573  0.00  0.00    +0.000 A 
ATOM     20  N   UNL     1       0.189   3.138  19.735  0.00  0.00    +0.000 N 
ATOM     21  N   UNL     1       2.285   4.145  19.765  0.00  0.00    +0.000 NA
ATOM     22  H   UNL     1       3.668   5.966  20.045  0.00  0.00    +0.000 HD
ATOM     23  H   UNL     1      -0.275   2.415  19.205  0.00  0.00    +0.000 HD
ATOM     24  H   UNL     1      -0.111   4.092  19.604  0.00  0.00    +0.000 HD
ENDBRANCH  13  14
ENDBRANCH   6  13
TORSDOF 3
ENDMDL
