MODEL 1
REMARK VINA RESULT:      -7.9      0.000      0.000
REMARK  Name = 
REMARK  8 active torsions:
REMARK  status: ('A' for Active; 'I' for Inactive)
REMARK    1  A    between atoms: C_1  and  N_2
REMARK    2  A    between atoms: N_2  and  C_3
REMARK    3  A    between atoms: N_2  and  C_4
REMARK    4  A    between atoms: C_4  and  C_5
REMARK    5  A    between atoms: C_5  and  N_6
REMARK    6  A    between atoms: N_6  and  C_20
REMARK    7  A    between atoms: C_7  and  C_9
REMARK    8  A    between atoms: C_13  and  N_14
REMARK                            x       y       z     vdW  Elec       q    Type
REMARK                         _______ _______ _______ _____ _____    ______ ____
ROOT
ATOM      1  N   UNL     1       3.268   5.470  18.200  0.00  0.00    +0.000 N 
ATOM      2  C   UNL     1       3.471   6.865  18.069  0.00  0.00    +0.000 C 
ATOM      3  O   UNL     1       4.515   7.329  17.609  0.00  0.00    +0.000 OA
ENDROOT
BRANCH   2   4
ATOM      4  C   UNL     1       2.446   7.866  18.497  0.00  0.00    +0.000 A 
ATOM      5  C   UNL     1       1.809   8.641  17.517  0.00  0.00    +0.000 A 
ATOM      6  C   UNL     1       0.808   9.561  17.868  0.00  0.00    +0.000 A 
ATOM      7  C   UNL     1       0.436   9.725  19.205  0.00  0.00    +0.000 A 
ATOM      8  C   UNL     1       1.060   8.950  20.190  0.00  0.00    +0.000 A 
ATOM      9  C   UNL     1       2.023   7.993  19.823  0.00  0.00    +0.000 A 
BRANCH   8  10
ATOM     10  N   UNL     1       0.757   9.121  21.560  0.00  0.00    +0.000 N 
ATOM     11  C   UNL     1      -0.449   9.058  22.211  0.00  0.00    +0.000 A 
ATOM     12  N   UNL     1      -0.272   9.335  23.482  0.00  0.00    +0.000 NA
ATOM     13  N   UNL     1       1.069   9.569  23.630  0.00  0.00    +0.000 NA
ATOM     14  N   UNL     1       1.707   9.423  22.477  0.00  0.00    +0.000 NA
ENDBRANCH   8  10
ENDBRANCH   2   4
BRANCH   1  15
ATOM     15  C   UNL     1       2.102   4.855  18.848  0.00  0.00    +0.000 C 
ATOM     16  C   UNL     1       1.695   3.500  18.274  0.00  0.00    +0.000 C 
ATOM     17  C   UNL     1       0.628   3.020  19.244  0.00  0.00    +0.000 C 
ATOM     18  C   UNL     1       1.025   3.603  20.603  0.00  0.00    +0.000 C 
ATOM     19  C   UNL     1       2.194   4.562  20.348  0.00  0.00    +0.000 C 
ENDBRANCH   1  15
BRANCH   1  20
ATOM     20  C   UNL     1       4.340   4.593  17.663  0.00  0.00    +0.000 C 
BRANCH  20  21
ATOM     21  C   UNL     1       5.379   4.119  18.714  0.00  0.00    +0.000 C 
BRANCH  21  23
ATOM     22  C   UNL     1       6.952   4.669  16.960  0.00  0.00    +0.000 C 
ATOM     23  N   UNL     1       6.780   4.502  18.409  0.00  0.00    +0.000 NA
ATOM     24  C   UNL     1       7.178   5.734  19.094  0.00  0.00    +0.000 C 
ENDBRANCH  21  23
ENDBRANCH  20  21
ENDBRANCH   1  20
TORSDOF 6
ENDMDL
MODEL 2
REMARK VINA RESULT:      -7.5      0.832      1.054
REMARK  Name = 
REMARK  8 active torsions:
REMARK  status: ('A' for Active; 'I' for Inactive)
REMARK    1  A    between atoms: C_1  and  N_2
REMARK    2  A    between atoms: N_2  and  C_3
REMARK    3  A    between atoms: N_2  and  C_4
REMARK    4  A    between atoms: C_4  and  C_5
REMARK    5  A    between atoms: C_5  and  N_6
REMARK    6  A    between atoms: N_6  and  C_20
REMARK    7  A    between atoms: C_7  and  C_9
REMARK    8  A    between atoms: C_13  and  N_14
REMARK                            x       y       z     vdW  Elec       q    Type
REMARK                         _______ _______ _______ _____ _____    ______ ____
ROOT
ATOM      1  N   UNL     1       3.409   5.365  18.541  0.00  0.00    +0.000 N 
ATOM      2  C   UNL     1       3.598   6.746  18.294  0.00  0.00    +0.000 C 
ATOM      3  O   UNL     1       4.643   7.183  17.811  0.00  0.00    +0.000 OA
ENDROOT
BRANCH   2   4
ATOM      4  C   UNL     1       2.554   7.767  18.619  0.00  0.00    +0.000 A 
ATOM      5  C   UNL     1       1.941   8.464  17.567  0.00  0.00    +0.000 A 
ATOM      6  C   UNL     1       0.924   9.398  17.822  0.00  0.00    +0.000 A 
ATOM      7  C   UNL     1       0.512   9.655  19.133  0.00  0.00    +0.000 A 
ATOM      8  C   UNL     1       1.112   8.957  20.188  0.00  0.00    +0.000 A 
ATOM      9  C   UNL     1       2.092   7.985  19.919  0.00  0.00    +0.000 A 
BRANCH   8  10
ATOM     10  N   UNL     1       0.768   9.224  21.533  0.00  0.00    +0.000 N 
ATOM     11  C   UNL     1      -0.447   9.542  22.086  0.00  0.00    +0.000 A 
ATOM     12  N   UNL     1      -0.296   9.760  23.371  0.00  0.00    +0.000 NA
ATOM     13  N   UNL     1       1.035   9.569  23.628  0.00  0.00    +0.000 NA
ATOM     14  N   UNL     1       1.688   9.225  22.527  0.00  0.00    +0.000 NA
ENDBRANCH   8  10
ENDBRANCH   2   4
BRANCH   1  15
ATOM     15  C   UNL     1       2.240   4.793  19.222  0.00  0.00    +0.000 C 
ATOM     16  C   UNL     1       1.665   3.545  18.558  0.00  0.00    +0.000 C 
ATOM     17  C   UNL     1       0.630   3.064  19.563  0.00  0.00    +0.000 C 
ATOM     18  C   UNL     1       1.180   3.469  20.934  0.00  0.00    +0.000 C 
ATOM     19  C   UNL     1       2.413   4.342  20.675  0.00  0.00    +0.000 C 
ENDBRANCH   1  15
BRANCH   1  20
ATOM     20  C   UNL     1       4.500   4.460  18.098  0.00  0.00    +0.000 C 
BRANCH  20  21
ATOM     21  C   UNL     1       4.501   4.138  16.581  0.00  0.00    +0.000 C 
BRANCH  21  23
ATOM     22  C   UNL     1       5.891   4.922  14.762  0.00  0.00    +0.000 C 
ATOM     23  N   UNL     1       5.852   4.082  15.966  0.00  0.00    +0.000 NA
ATOM     24  C   UNL     1       6.900   4.507  16.895  0.00  0.00    +0.000 C 
ENDBRANCH  21  23
ENDBRANCH  20  21
ENDBRANCH   1  20
TORSDOF 6
ENDMDL
MODEL 3
REMARK VINA RESULT:      -7.2      2.435      4.634
REMARK  Name = 
REMARK  8 active torsions:
REMARK  status: ('A' for Active; 'I' for Inactive)
REMARK    1  A    between atoms: C_1  and  N_2
REMARK    2  A    between atoms: N_2  and  C_3
REMARK    3  A    between atoms: N_2  and  C_4
REMARK    4  A    between atoms: C_4  and  C_5
REMARK    5  A    between atoms: C_5  and  N_6
REMARK    6  A    between atoms: N_6  and  C_20
REMARK    7  A    between atoms: C_7  and  C_9
REMARK    8  A    between atoms: C_13  and  N_14
REMARK                            x       y       z     vdW  Elec       q    Type
REMARK                         _______ _______ _______ _____ _____    ______ ____
ROOT
ATOM      1  N   UNL     1       5.171   4.692  17.071  0.00  0.00    +0.000 N 
ATOM      2  C   UNL     1       3.798   4.477  17.343  0.00  0.00    +0.000 C 
ATOM      3  O   UNL     1       3.118   3.694  16.678  0.00  0.00    +0.000 OA
ENDROOT
BRANCH   2   4
ATOM      4  C   UNL     1       3.078   5.197  18.438  0.00  0.00    +0.000 A 
ATOM      5  C   UNL     1       2.797   4.508  19.628  0.00  0.00    +0.000 A 
ATOM      6  C   UNL     1       2.164   5.157  20.700  0.00  0.00    +0.000 A 
ATOM      7  C   UNL     1       1.793   6.500  20.594  0.00  0.00    +0.000 A 
ATOM      8  C   UNL     1       2.077   7.198  19.415  0.00  0.00    +0.000 A 
ATOM      9  C   UNL     1       2.760   6.555  18.367  0.00  0.00    +0.000 A 
BRANCH   8  10
ATOM     10  N   UNL     1       1.672   8.542  19.241  0.00  0.00    +0.000 N 
ATOM     11  C   UNL     1       1.804   9.368  18.155  0.00  0.00    +0.000 A 
ATOM     12  N   UNL     1       1.332  10.556  18.453  0.00  0.00    +0.000 NA
ATOM     13  N   UNL     1       0.889  10.468  19.746  0.00  0.00    +0.000 NA
ATOM     14  N   UNL     1       1.072   9.248  20.229  0.00  0.00    +0.000 NA
ENDBRANCH   8  10
ENDBRANCH   2   4
BRANCH   1  15
ATOM     15  C   UNL     1       6.006   5.694  17.744  0.00  0.00    +0.000 C 
ATOM     16  C   UNL     1       7.349   5.169  18.247  0.00  0.00    +0.000 C 
ATOM     17  C   UNL     1       8.068   6.432  18.697  0.00  0.00    +0.000 C 
ATOM     18  C   UNL     1       7.556   7.539  17.771  0.00  0.00    +0.000 C 
ATOM     19  C   UNL     1       6.416   6.933  16.944  0.00  0.00    +0.000 C 
ENDBRANCH   1  15
BRANCH   1  20
ATOM     20  C   UNL     1       5.771   3.852  16.003  0.00  0.00    +0.000 C 
BRANCH  20  21
ATOM     21  C   UNL     1       5.609   4.413  14.566  0.00  0.00    +0.000 C 
BRANCH  21  23
ATOM     22  C   UNL     1       5.937   3.366  12.410  0.00  0.00    +0.000 C 
ATOM     23  N   UNL     1       6.613   3.912  13.594  0.00  0.00    +0.000 NA
ATOM     24  C   UNL     1       7.555   4.955  13.184  0.00  0.00    +0.000 C 
ENDBRANCH  21  23
ENDBRANCH  20  21
ENDBRANCH   1  20
TORSDOF 6
ENDMDL
MODEL 4
REMARK VINA RESULT:      -7.2      1.606      3.436
REMARK  Name = 
REMARK  8 active torsions:
REMARK  status: ('A' for Active; 'I' for Inactive)
REMARK    1  A    between atoms: C_1  and  N_2
REMARK    2  A    between atoms: N_2  and  C_3
REMARK    3  A    between atoms: N_2  and  C_4
REMARK    4  A    between atoms: C_4  and  C_5
REMARK    5  A    between atoms: C_5  and  N_6
REMARK    6  A    between atoms: N_6  and  C_20
REMARK    7  A    between atoms: C_7  and  C_9
REMARK    8  A    between atoms: C_13  and  N_14
REMARK                            x       y       z     vdW  Elec       q    Type
REMARK                         _______ _______ _______ _____ _____    ______ ____
ROOT
ATOM      1  N   UNL     1       3.948   5.110  17.966  0.00  0.00    +0.000 N 
ATOM      2  C   UNL     1       2.622   5.604  18.021  0.00  0.00    +0.000 C 
ATOM      3  O   UNL     1       1.655   4.906  17.714  0.00  0.00    +0.000 OA
ENDROOT
BRANCH   2   4
ATOM      4  C   UNL     1       2.308   7.007  18.434  0.00  0.00    +0.000 A 
ATOM      5  C   UNL     1       2.534   8.047  17.521  0.00  0.00    +0.000 A 
ATOM      6  C   UNL     1       2.211   9.373  17.850  0.00  0.00    +0.000 A 
ATOM      7  C   UNL     1       1.668   9.680  19.100  0.00  0.00    +0.000 A 
ATOM      8  C   UNL     1       1.430   8.647  20.015  0.00  0.00    +0.000 A 
ATOM      9  C   UNL     1       1.706   7.316  19.657  0.00  0.00    +0.000 A 
BRANCH   8  10
ATOM     10  N   UNL     1       0.933   8.916  21.311  0.00  0.00    +0.000 N 
ATOM     11  C   UNL     1      -0.322   8.727  21.830  0.00  0.00    +0.000 A 
ATOM     12  N   UNL     1      -0.351   9.167  23.067  0.00  0.00    +0.000 NA
ATOM     13  N   UNL     1       0.910   9.632  23.328  0.00  0.00    +0.000 NA
ATOM     14  N   UNL     1       1.703   9.468  22.279  0.00  0.00    +0.000 NA
ENDBRANCH   8  10
ENDBRANCH   2   4
BRANCH   1  15
ATOM     15  C   UNL     1       5.149   5.922  18.202  0.00  0.00    +0.000 C 
ATOM     16  C   UNL     1       6.300   5.175  18.872  0.00  0.00    +0.000 C 
ATOM     17  C   UNL     1       7.447   6.170  18.801  0.00  0.00    +0.000 C 
ATOM     18  C   UNL     1       7.208   6.970  17.517  0.00  0.00    +0.000 C 
ATOM     19  C   UNL     1       5.831   6.553  16.986  0.00  0.00    +0.000 C 
ENDBRANCH   1  15
BRANCH   1  20
ATOM     20  C   UNL     1       4.104   3.677  17.612  0.00  0.00    +0.000 C 
BRANCH  20  21
ATOM     21  C   UNL     1       3.461   2.685  18.617  0.00  0.00    +0.000 C 
BRANCH  21  23
ATOM     22  C   UNL     1       2.669   2.982  20.883  0.00  0.00    +0.000 C 
ATOM     23  N   UNL     1       3.861   2.897  20.031  0.00  0.00    +0.000 NA
ATOM     24  C   UNL     1       4.741   1.834  20.522  0.00  0.00    +0.000 C 
ENDBRANCH  21  23
ENDBRANCH  20  21
ENDBRANCH   1  20
TORSDOF 6
ENDMDL
MODEL 5
REMARK VINA RESULT:      -7.1      2.905      7.185
REMARK  Name = 
REMARK  8 active torsions:
REMARK  status: ('A' for Active; 'I' for Inactive)
REMARK    1  A    between atoms: C_1  and  N_2
REMARK    2  A    between atoms: N_2  and  C_3
REMARK    3  A    between atoms: N_2  and  C_4
REMARK    4  A    between atoms: C_4  and  C_5
REMARK    5  A    between atoms: C_5  and  N_6
REMARK    6  A    between atoms: N_6  and  C_20
REMARK    7  A    between atoms: C_7  and  C_9
REMARK    8  A    between atoms: C_13  and  N_14
REMARK                            x       y       z     vdW  Elec       q    Type
REMARK                         _______ _______ _______ _____ _____    ______ ____
ROOT
ATOM      1  N   UNL     1       3.352   5.286  19.765  0.00  0.00    +0.000 N 
ATOM      2  C   UNL     1       4.518   4.551  19.438  0.00  0.00    +0.000 C 
ATOM      3  O   UNL     1       4.735   3.434  19.910  0.00  0.00    +0.000 OA
ENDROOT
BRANCH   2   4
ATOM      4  C   UNL     1       5.569   5.086  18.518  0.00  0.00    +0.000 A 
ATOM      5  C   UNL     1       6.527   5.973  19.031  0.00  0.00    +0.000 A 
ATOM      6  C   UNL     1       7.558   6.465  18.215  0.00  0.00    +0.000 A 
ATOM      7  C   UNL     1       7.641   6.084  16.873  0.00  0.00    +0.000 A 
ATOM      8  C   UNL     1       6.695   5.192  16.355  0.00  0.00    +0.000 A 
ATOM      9  C   UNL     1       5.698   4.663  17.193  0.00  0.00    +0.000 A 
BRANCH   8  10
ATOM     10  N   UNL     1       6.706   4.821  14.990  0.00  0.00    +0.000 N 
ATOM     11  C   UNL     1       5.948   3.894  14.323  0.00  0.00    +0.000 A 
ATOM     12  N   UNL     1       6.331   3.840  13.069  0.00  0.00    +0.000 NA
ATOM     13  N   UNL     1       7.341   4.756  12.948  0.00  0.00    +0.000 NA
ATOM     14  N   UNL     1       7.566   5.372  14.100  0.00  0.00    +0.000 NA
ENDBRANCH   8  10
ENDBRANCH   2   4
BRANCH   1  15
ATOM     15  C   UNL     1       3.091   6.666  19.334  0.00  0.00    +0.000 C 
ATOM     16  C   UNL     1       2.591   6.800  17.897  0.00  0.00    +0.000 C 
ATOM     17  C   UNL     1       2.213   8.270  17.798  0.00  0.00    +0.000 C 
ATOM     18  C   UNL     1       1.748   8.662  19.204  0.00  0.00    +0.000 C 
ATOM     19  C   UNL     1       2.053   7.471  20.119  0.00  0.00    +0.000 C 
ENDBRANCH   1  15
BRANCH   1  20
ATOM     20  C   UNL     1       2.359   4.600  20.629  0.00  0.00    +0.000 C 
BRANCH  20  21
ATOM     21  C   UNL     1       1.107   4.067  19.885  0.00  0.00    +0.000 C 
BRANCH  21  23
ATOM     22  C   UNL     1       1.726   2.365  18.280  0.00  0.00    +0.000 C 
ATOM     23  N   UNL     1       1.134   2.610  19.602  0.00  0.00    +0.000 NA
ATOM     24  C   UNL     1       1.878   1.863  20.618  0.00  0.00    +0.000 C 
ENDBRANCH  21  23
ENDBRANCH  20  21
ENDBRANCH   1  20
TORSDOF 6
ENDMDL
MODEL 6
REMARK VINA RESULT:      -7.1      1.030      1.491
REMARK  Name = 
REMARK  8 active torsions:
REMARK  status: ('A' for Active; 'I' for Inactive)
REMARK    1  A    between atoms: C_1  and  N_2
REMARK    2  A    between atoms: N_2  and  C_3
REMARK    3  A    between atoms: N_2  and  C_4
REMARK    4  A    between atoms: C_4  and  C_5
REMARK    5  A    between atoms: C_5  and  N_6
REMARK    6  A    between atoms: N_6  and  C_20
REMARK    7  A    between atoms: C_7  and  C_9
REMARK    8  A    between atoms: C_13  and  N_14
REMARK                            x       y       z     vdW  Elec       q    Type
REMARK                         _______ _______ _______ _____ _____    ______ ____
ROOT
ATOM      1  N   UNL     1       3.468   5.290  18.654  0.00  0.00    +0.000 N 
ATOM      2  C   UNL     1       3.658   6.663  18.362  0.00  0.00    +0.000 C 
ATOM      3  O   UNL     1       4.707   7.085  17.875  0.00  0.00    +0.000 OA
ENDROOT
BRANCH   2   4
ATOM      4  C   UNL     1       2.610   7.692  18.643  0.00  0.00    +0.000 A 
ATOM      5  C   UNL     1       2.061   8.408  17.568  0.00  0.00    +0.000 A 
ATOM      6  C   UNL     1       1.043   9.351  17.780  0.00  0.00    +0.000 A 
ATOM      7  C   UNL     1       0.566   9.599  19.070  0.00  0.00    +0.000 A 
ATOM      8  C   UNL     1       1.100   8.884  20.147  0.00  0.00    +0.000 A 
ATOM      9  C   UNL     1       2.082   7.903  19.919  0.00  0.00    +0.000 A 
BRANCH   8  10
ATOM     10  N   UNL     1       0.689   9.140  21.475  0.00  0.00    +0.000 N 
ATOM     11  C   UNL     1       1.435   9.434  22.588  0.00  0.00    +0.000 A 
ATOM     12  N   UNL     1       0.641   9.545  23.627  0.00  0.00    +0.000 NA
ATOM     13  N   UNL     1      -0.625   9.323  23.155  0.00  0.00    +0.000 NA
ATOM     14  N   UNL     1      -0.612   9.096  21.849  0.00  0.00    +0.000 NA
ENDBRANCH   8  10
ENDBRANCH   2   4
BRANCH   1  15
ATOM     15  C   UNL     1       2.293   4.740  19.342  0.00  0.00    +0.000 C 
ATOM     16  C   UNL     1       1.593   3.606  18.597  0.00  0.00    +0.000 C 
ATOM     17  C   UNL     1       0.574   3.105  19.609  0.00  0.00    +0.000 C 
ATOM     18  C   UNL     1       1.219   3.336  20.979  0.00  0.00    +0.000 C 
ATOM     19  C   UNL     1       2.501   4.140  20.734  0.00  0.00    +0.000 C 
ENDBRANCH   1  15
BRANCH   1  20
ATOM     20  C   UNL     1       4.564   4.372  18.251  0.00  0.00    +0.000 C 
BRANCH  20  21
ATOM     21  C   UNL     1       4.598   4.024  16.740  0.00  0.00    +0.000 C 
BRANCH  21  23
ATOM     22  C   UNL     1       6.958   4.524  16.558  0.00  0.00    +0.000 C 
ATOM     23  N   UNL     1       5.634   4.751  15.965  0.00  0.00    +0.000 NA
ATOM     24  C   UNL     1       5.653   4.352  14.556  0.00  0.00    +0.000 C 
ENDBRANCH  21  23
ENDBRANCH  20  21
ENDBRANCH   1  20
TORSDOF 6
ENDMDL
MODEL 7
REMARK VINA RESULT:      -7.1      2.089      2.898
REMARK  Name = 
REMARK  8 active torsions:
REMARK  status: ('A' for Active; 'I' for Inactive)
REMARK    1  A    between atoms: C_1  and  N_2
REMARK    2  A    between atoms: N_2  and  C_3
REMARK    3  A    between atoms: N_2  and  C_4
REMARK    4  A    between atoms: C_4  and  C_5
REMARK    5  A    between atoms: C_5  and  N_6
REMARK    6  A    between atoms: N_6  and  C_20
REMARK    7  A    between atoms: C_7  and  C_9
REMARK    8  A    between atoms: C_13  and  N_14
REMARK                            x       y       z     vdW  Elec       q    Type
REMARK                         _______ _______ _______ _____ _____    ______ ____
ROOT
ATOM      1  N   UNL     1       2.875   5.599  18.244  0.00  0.00    +0.000 N 
ATOM      2  C   UNL     1       2.982   7.011  18.258  0.00  0.00    +0.000 C 
ATOM      3  O   UNL     1       3.834   7.605  17.595  0.00  0.00    +0.000 OA
ENDROOT
BRANCH   2   4
ATOM      4  C   UNL     1       2.085   7.873  19.088  0.00  0.00    +0.000 A 
ATOM      5  C   UNL     1       1.926   7.569  20.448  0.00  0.00    +0.000 A 
ATOM      6  C   UNL     1       1.129   8.376  21.275  0.00  0.00    +0.000 A 
ATOM      7  C   UNL     1       0.473   9.494  20.753  0.00  0.00    +0.000 A 
ATOM      8  C   UNL     1       0.633   9.811  19.398  0.00  0.00    +0.000 A 
ATOM      9  C   UNL     1       1.475   9.027  18.590  0.00  0.00    +0.000 A 
BRANCH   8  10
ATOM     10  N   UNL     1      -0.056  10.898  18.813  0.00  0.00    +0.000 N 
ATOM     11  C   UNL     1       0.281  12.226  18.756  0.00  0.00    +0.000 A 
ATOM     12  N   UNL     1      -0.680  12.893  18.159  0.00  0.00    +0.000 NA
ATOM     13  N   UNL     1      -1.631  11.964  17.832  0.00  0.00    +0.000 NA
ATOM     14  N   UNL     1      -1.257  10.748  18.205  0.00  0.00    +0.000 NA
ENDBRANCH   8  10
ENDBRANCH   2   4
BRANCH   1  15
ATOM     15  C   UNL     1       1.966   4.825  19.098  0.00  0.00    +0.000 C 
ATOM     16  C   UNL     1       1.412   3.557  18.452  0.00  0.00    +0.000 C 
ATOM     17  C   UNL     1       0.694   2.868  19.602  0.00  0.00    +0.000 C 
ATOM     18  C   UNL     1       1.481   3.252  20.859  0.00  0.00    +0.000 C 
ATOM     19  C   UNL     1       2.510   4.305  20.430  0.00  0.00    +0.000 C 
ENDBRANCH   1  15
BRANCH   1  20
ATOM     20  C   UNL     1       3.782   4.878  17.315  0.00  0.00    +0.000 C 
BRANCH  20  21
ATOM     21  C   UNL     1       5.172   4.525  17.906  0.00  0.00    +0.000 C 
BRANCH  21  23
ATOM     22  C   UNL     1       7.583   4.655  17.745  0.00  0.00    +0.000 C 
ATOM     23  N   UNL     1       6.319   4.883  17.034  0.00  0.00    +0.000 NA
ATOM     24  C   UNL     1       6.318   4.126  15.780  0.00  0.00    +0.000 C 
ENDBRANCH  21  23
ENDBRANCH  20  21
ENDBRANCH   1  20
TORSDOF 6
ENDMDL
MODEL 8
REMARK VINA RESULT:      -7.0      2.448      7.328
REMARK  Name = 
REMARK  8 active torsions:
REMARK  status: ('A' for Active; 'I' for Inactive)
REMARK    1  A    between atoms: C_1  and  N_2
REMARK    2  A    between atoms: N_2  and  C_3
REMARK    3  A    between atoms: N_2  and  C_4
REMARK    4  A    between atoms: C_4  and  C_5
REMARK    5  A    between atoms: C_5  and  N_6
REMARK    6  A    between atoms: N_6  and  C_20
REMARK    7  A    between atoms: C_7  and  C_9
REMARK    8  A    between atoms: C_13  and  N_14
REMARK                            x       y       z     vdW  Elec       q    Type
REMARK                         _______ _______ _______ _____ _____    ______ ____
ROOT
ATOM      1  N   UNL     1       2.619   6.314  18.511  0.00  0.00    +0.000 N 
ATOM      2  C   UNL     1       3.739   6.899  17.871  0.00  0.00    +0.000 C 
ATOM      3  O   UNL     1       3.767   8.094  17.575  0.00  0.00    +0.000 OA
ENDROOT
BRANCH   2   4
ATOM      4  C   UNL     1       4.950   6.105  17.495  0.00  0.00    +0.000 A 
ATOM      5  C   UNL     1       5.776   5.610  18.515  0.00  0.00    +0.000 A 
ATOM      6  C   UNL     1       6.898   4.823  18.210  0.00  0.00    +0.000 A 
ATOM      7  C   UNL     1       7.214   4.526  16.882  0.00  0.00    +0.000 A 
ATOM      8  C   UNL     1       6.390   5.007  15.858  0.00  0.00    +0.000 A 
ATOM      9  C   UNL     1       5.239   5.750  16.175  0.00  0.00    +0.000 A 
BRANCH   8  10
ATOM     10  N   UNL     1       6.701   4.780  14.497  0.00  0.00    +0.000 N 
ATOM     11  C   UNL     1       6.186   3.864  13.617  0.00  0.00    +0.000 A 
ATOM     12  N   UNL     1       6.807   3.971  12.465  0.00  0.00    +0.000 NA
ATOM     13  N   UNL     1       7.722   4.976  12.627  0.00  0.00    +0.000 NA
ATOM     14  N   UNL     1       7.655   5.488  13.847  0.00  0.00    +0.000 NA
ENDBRANCH   8  10
ENDBRANCH   2   4
BRANCH   1  15
ATOM     15  C   UNL     1       2.471   4.878  18.783  0.00  0.00    +0.000 C 
ATOM     16  C   UNL     1       1.628   4.548  20.013  0.00  0.00    +0.000 C 
ATOM     17  C   UNL     1       1.474   3.037  19.930  0.00  0.00    +0.000 C 
ATOM     18  C   UNL     1       1.476   2.712  18.433  0.00  0.00    +0.000 C 
ATOM     19  C   UNL     1       1.827   4.012  17.699  0.00  0.00    +0.000 C 
ENDBRANCH   1  15
BRANCH   1  20
ATOM     20  C   UNL     1       1.521   7.237  18.894  0.00  0.00    +0.000 C 
BRANCH  20  21
ATOM     21  C   UNL     1       1.716   7.950  20.258  0.00  0.00    +0.000 C 
BRANCH  21  23
ATOM     22  C   UNL     1       0.830   9.779  18.947  0.00  0.00    +0.000 C 
ATOM     23  N   UNL     1       1.237   9.354  20.292  0.00  0.00    +0.000 NA
ATOM     24  C   UNL     1       0.121   9.536  21.222  0.00  0.00    +0.000 C 
ENDBRANCH  21  23
ENDBRANCH  20  21
ENDBRANCH   1  20
TORSDOF 6
ENDMDL
MODEL 9
REMARK VINA RESULT:      -7.0      2.091      2.808
REMARK  Name = 
REMARK  8 active torsions:
REMARK  status: ('A' for Active; 'I' for Inactive)
REMARK    1  A    between atoms: C_1  and  N_2
REMARK    2  A    between atoms: N_2  and  C_3
REMARK    3  A    between atoms: N_2  and  C_4
REMARK    4  A    between atoms: C_4  and  C_5
REMARK    5  A    between atoms: C_5  and  N_6
REMARK    6  A    between atoms: N_6  and  C_20
REMARK    7  A    between atoms: C_7  and  C_9
REMARK    8  A    between atoms: C_13  and  N_14
REMARK                            x       y       z     vdW  Elec       q    Type
REMARK                         _______ _______ _______ _____ _____    ______ ____
ROOT
ATOM      1  N   UNL     1       2.899   5.561  18.222  0.00  0.00    +0.000 N 
ATOM      2  C   UNL     1       2.984   6.974  18.238  0.00  0.00    +0.000 C 
ATOM      3  O   UNL     1       3.841   7.581  17.595  0.00  0.00    +0.000 OA
ENDROOT
BRANCH   2   4
ATOM      4  C   UNL     1       2.055   7.821  19.049  0.00  0.00    +0.000 A 
ATOM      5  C   UNL     1       2.001   7.626  20.437  0.00  0.00    +0.000 A 
ATOM      6  C   UNL     1       1.177   8.428  21.242  0.00  0.00    +0.000 A 
ATOM      7  C   UNL     1       0.389   9.431  20.670  0.00  0.00    +0.000 A 
ATOM      8  C   UNL     1       0.444   9.640  19.287  0.00  0.00    +0.000 A 
ATOM      9  C   UNL     1       1.312   8.867  18.496  0.00  0.00    +0.000 A 
BRANCH   8  10
ATOM     10  N   UNL     1      -0.375  10.605  18.658  0.00  0.00    +0.000 N 
ATOM     11  C   UNL     1      -1.398  10.441  17.759  0.00  0.00    +0.000 A 
ATOM     12  N   UNL     1      -1.849  11.618  17.394  0.00  0.00    +0.000 NA
ATOM     13  N   UNL     1      -1.099  12.535  18.082  0.00  0.00    +0.000 NA
ATOM     14  N   UNL     1      -0.216  11.934  18.866  0.00  0.00    +0.000 NA
ENDBRANCH   8  10
ENDBRANCH   2   4
BRANCH   1  15
ATOM     15  C   UNL     1       1.982   4.772  19.055  0.00  0.00    +0.000 C 
ATOM     16  C   UNL     1       1.469   3.492  18.399  0.00  0.00    +0.000 C 
ATOM     17  C   UNL     1       0.734   2.794  19.533  0.00  0.00    +0.000 C 
ATOM     18  C   UNL     1       1.482   3.195  20.807  0.00  0.00    +0.000 C 
ATOM     19  C   UNL     1       2.503   4.265  20.402  0.00  0.00    +0.000 C 
ENDBRANCH   1  15
BRANCH   1  20
ATOM     20  C   UNL     1       3.837   4.854  17.313  0.00  0.00    +0.000 C 
BRANCH  20  21
ATOM     21  C   UNL     1       5.172   4.415  17.969  0.00  0.00    +0.000 C 
BRANCH  21  23
ATOM     22  C   UNL     1       5.923   3.937  15.720  0.00  0.00    +0.000 C 
ATOM     23  N   UNL     1       6.336   4.407  17.048  0.00  0.00    +0.000 NA
ATOM     24  C   UNL     1       6.957   5.728  16.929  0.00  0.00    +0.000 C 
ENDBRANCH  21  23
ENDBRANCH  20  21
ENDBRANCH   1  20
TORSDOF 6
ENDMDL
