MODEL 1
REMARK VINA RESULT:      -8.3      0.000      0.000
REMARK  Name = 
REMARK  10 active torsions:
REMARK  status: ('A' for Active; 'I' for Inactive)
REMARK    1  A    between atoms: C_1  and  C_2
REMARK    2  A    between atoms: C_2  and  C_3
REMARK    3  A    between atoms: C_2  and  C_4
REMARK    4  A    between atoms: C_2  and  O_5
REMARK    5  A    between atoms: O_5  and  C_6
REMARK    6  A    between atoms: N_8  and  C_9
REMARK    7  A    between atoms: C_9  and  C_10
REMARK    8  A    between atoms: C_9  and  C_17
REMARK    9  A    between atoms: C_10  and  C_11
REMARK   10  A    between atoms: C_23  and  C_24
REMARK                            x       y       z     vdW  Elec       q    Type
REMARK                         _______ _______ _______ _____ _____    ______ ____
ROOT
ATOM      1  C   UNL     1       3.860   6.420  18.074  0.00  0.00    +0.000 C 
ENDROOT
BRANCH   1   2
ATOM      2  C   UNL     1       4.106   5.307  19.127  0.00  0.00    +0.000 C 
ATOM      3  O   UNL     1       5.160   5.287  19.775  0.00  0.00    +0.000 OA
ATOM      4  N   UNL     1       3.170   4.296  19.301  0.00  0.00    +0.000 N 
ATOM      5  C   UNL     1       1.835   4.189  18.735  0.00  0.00    +0.000 C 
ATOM      6  C   UNL     1       0.992   3.695  19.901  0.00  0.00    +0.000 C 
ATOM      7  C   UNL     1       1.923   2.749  20.647  0.00  0.00    +0.000 C 
ATOM      8  C   UNL     1       3.342   3.272  20.354  0.00  0.00    +0.000 C 
BRANCH   8   9
ATOM      9  C   UNL     1       4.253   2.096  19.938  0.00  0.00    +0.000 C 
ATOM     10  N   UNL     1       4.025   1.558  18.701  0.00  0.00    +0.000 N 
ATOM     11  O   UNL     1       5.228   1.717  20.586  0.00  0.00    +0.000 OA
ATOM     12  H   UNL     1       3.570   2.145  18.006  0.00  0.00    +0.000 HD
ATOM     13  H   UNL     1       4.725   0.906  18.369  0.00  0.00    +0.000 HD
ENDBRANCH   8   9
ENDBRANCH   1   2
BRANCH   1  16
ATOM     14  C   UNL     1       5.592   6.572  16.329  0.00  0.00    +0.000 C 
ATOM     15  O   UNL     1       6.295   7.283  17.035  0.00  0.00    +0.000 OA
ATOM     16  N   UNL     1       4.400   6.057  16.759  0.00  0.00    +0.000 N 
ATOM     17  H   UNL     1       3.819   5.545  16.105  0.00  0.00    +0.000 HD
BRANCH  14  18
ATOM     18  O   UNL     1       5.861   6.232  15.042  0.00  0.00    +0.000 OA
BRANCH  18  20
ATOM     19  C   UNL     1       5.465   3.945  14.149  0.00  0.00    +0.000 C 
ATOM     20  C   UNL     1       6.470   4.932  14.766  0.00  0.00    +0.000 C 
ATOM     21  C   UNL     1       7.131   4.350  16.025  0.00  0.00    +0.000 C 
ATOM     22  C   UNL     1       7.574   5.180  13.723  0.00  0.00    +0.000 C 
ENDBRANCH  18  20
ENDBRANCH  14  18
ENDBRANCH   1  16
BRANCH   1  23
ATOM     23  C   UNL     1       2.370   6.834  18.026  0.00  0.00    +0.000 C 
BRANCH  23  24
ATOM     24  C   UNL     1       1.912   7.920  18.979  0.00  0.00    +0.000 A 
ATOM     25  C   UNL     1       1.578   9.192  18.495  0.00  0.00    +0.000 A 
ATOM     26  C   UNL     1       1.059  10.168  19.350  0.00  0.00    +0.000 A 
ATOM     27  C   UNL     1       0.873   9.891  20.703  0.00  0.00    +0.000 A 
ATOM     28  C   UNL     1       1.214   8.638  21.204  0.00  0.00    +0.000 A 
ATOM     29  C   UNL     1       1.726   7.658  20.347  0.00  0.00    +0.000 A 
ENDBRANCH  23  24
ENDBRANCH   1  23
TORSDOF 7
ENDMDL
MODEL 2
REMARK VINA RESULT:      -8.2      2.715      6.726
REMARK  Name = 
REMARK  10 active torsions:
REMARK  status: ('A' for Active; 'I' for Inactive)
REMARK    1  A    between atoms: C_1  and  C_2
REMARK    2  A    between atoms: C_2  and  C_3
REMARK    3  A    between atoms: C_2  and  C_4
REMARK    4  A    between atoms: C_2  and  O_5
REMARK    5  A    between atoms: O_5  and  C_6
REMARK    6  A    between atoms: N_8  and  C_9
REMARK    7  A    between atoms: C_9  and  C_10
REMARK    8  A    between atoms: C_9  and  C_17
REMARK    9  A    between atoms: C_10  and  C_11
REMARK   10  A    between atoms: C_23  and  C_24
REMARK                            x       y       z     vdW  Elec       q    Type
REMARK                         _______ _______ _______ _____ _____    ______ ____
ROOT
ATOM      1  C   UNL     1       3.264   7.333  18.154  0.00  0.00    +0.000 C 
ENDROOT
BRANCH   1   2
ATOM      2  C   UNL     1       2.190   8.451  18.216  0.00  0.00    +0.000 C 
ATOM      3  O   UNL     1       1.882   9.073  17.191  0.00  0.00    +0.000 OA
ATOM      4  N   UNL     1       1.615   8.797  19.432  0.00  0.00    +0.000 N 
ATOM      5  C   UNL     1       1.746   8.132  20.719  0.00  0.00    +0.000 C 
ATOM      6  C   UNL     1       0.330   8.145  21.272  0.00  0.00    +0.000 C 
ATOM      7  C   UNL     1      -0.231   9.480  20.804  0.00  0.00    +0.000 C 
ATOM      8  C   UNL     1       0.532   9.800  19.504  0.00  0.00    +0.000 C 
BRANCH   8   9
ATOM      9  C   UNL     1       1.034  11.260  19.543  0.00  0.00    +0.000 C 
ATOM     10  N   UNL     1       1.128  11.902  18.339  0.00  0.00    +0.000 N 
ATOM     11  O   UNL     1       1.221  11.898  20.578  0.00  0.00    +0.000 OA
ATOM     12  H   UNL     1       0.550  11.564  17.574  0.00  0.00    +0.000 HD
ATOM     13  H   UNL     1       1.296  12.900  18.384  0.00  0.00    +0.000 HD
ENDBRANCH   8   9
ENDBRANCH   1   2
BRANCH   1  16
ATOM     14  C   UNL     1       3.129   5.023  18.999  0.00  0.00    +0.000 C 
ATOM     15  O   UNL     1       4.005   5.234  19.827  0.00  0.00    +0.000 OA
ATOM     16  N   UNL     1       2.659   5.995  18.160  0.00  0.00    +0.000 N 
ATOM     17  H   UNL     1       1.994   5.745  17.437  0.00  0.00    +0.000 HD
BRANCH  14  18
ATOM     18  O   UNL     1       2.541   3.820  18.768  0.00  0.00    +0.000 OA
BRANCH  18  20
ATOM     19  C   UNL     1       0.790   4.372  20.446  0.00  0.00    +0.000 C 
ATOM     20  C   UNL     1       1.629   3.274  19.772  0.00  0.00    +0.000 C 
ATOM     21  C   UNL     1       2.386   2.429  20.807  0.00  0.00    +0.000 C 
ATOM     22  C   UNL     1       0.659   2.345  19.021  0.00  0.00    +0.000 C 
ENDBRANCH  18  20
ENDBRANCH  14  18
ENDBRANCH   1  16
BRANCH   1  23
ATOM     23  C   UNL     1       4.241   7.551  16.975  0.00  0.00    +0.000 C 
BRANCH  23  24
ATOM     24  C   UNL     1       5.346   6.530  16.781  0.00  0.00    +0.000 A 
ATOM     25  C   UNL     1       6.409   6.456  17.692  0.00  0.00    +0.000 A 
ATOM     26  C   UNL     1       7.377   5.454  17.579  0.00  0.00    +0.000 A 
ATOM     27  C   UNL     1       7.302   4.517  16.551  0.00  0.00    +0.000 A 
ATOM     28  C   UNL     1       6.262   4.586  15.628  0.00  0.00    +0.000 A 
ATOM     29  C   UNL     1       5.289   5.583  15.745  0.00  0.00    +0.000 A 
ENDBRANCH  23  24
ENDBRANCH   1  23
TORSDOF 7
ENDMDL
MODEL 3
REMARK VINA RESULT:      -8.1      2.891      6.545
REMARK  Name = 
REMARK  10 active torsions:
REMARK  status: ('A' for Active; 'I' for Inactive)
REMARK    1  A    between atoms: C_1  and  C_2
REMARK    2  A    between atoms: C_2  and  C_3
REMARK    3  A    between atoms: C_2  and  C_4
REMARK    4  A    between atoms: C_2  and  O_5
REMARK    5  A    between atoms: O_5  and  C_6
REMARK    6  A    between atoms: N_8  and  C_9
REMARK    7  A    between atoms: C_9  and  C_10
REMARK    8  A    between atoms: C_9  and  C_17
REMARK    9  A    between atoms: C_10  and  C_11
REMARK   10  A    between atoms: C_23  and  C_24
REMARK                            x       y       z     vdW  Elec       q    Type
REMARK                         _______ _______ _______ _____ _____    ______ ____
ROOT
ATOM      1  C   UNL     1       2.988   7.365  18.355  0.00  0.00    +0.000 C 
ENDROOT
BRANCH   1   2
ATOM      2  C   UNL     1       2.010   8.569  18.345  0.00  0.00    +0.000 C 
ATOM      3  O   UNL     1       1.770   9.166  17.287  0.00  0.00    +0.000 OA
ATOM      4  N   UNL     1       1.447   9.017  19.532  0.00  0.00    +0.000 N 
ATOM      5  C   UNL     1       1.501   8.405  20.850  0.00  0.00    +0.000 C 
ATOM      6  C   UNL     1       0.082   8.560  21.375  0.00  0.00    +0.000 C 
ATOM      7  C   UNL     1      -0.358   9.914  20.835  0.00  0.00    +0.000 C 
ATOM      8  C   UNL     1       0.449  10.109  19.538  0.00  0.00    +0.000 C 
BRANCH   8   9
ATOM      9  C   UNL     1       1.070  11.522  19.520  0.00  0.00    +0.000 C 
ATOM     10  N   UNL     1       1.201  12.114  18.294  0.00  0.00    +0.000 N 
ATOM     11  O   UNL     1       1.323  12.177  20.531  0.00  0.00    +0.000 OA
ATOM     12  H   UNL     1       0.586  11.798  17.548  0.00  0.00    +0.000 HD
ATOM     13  H   UNL     1       1.451  13.095  18.303  0.00  0.00    +0.000 HD
ENDBRANCH   8   9
ENDBRANCH   1   2
BRANCH   1  16
ATOM     14  C   UNL     1       2.441   5.199  19.392  0.00  0.00    +0.000 C 
ATOM     15  O   UNL     1       3.116   5.457  20.380  0.00  0.00    +0.000 OA
ATOM     16  N   UNL     1       2.273   6.082  18.362  0.00  0.00    +0.000 N 
ATOM     17  H   UNL     1       1.775   5.784  17.532  0.00  0.00    +0.000 HD
BRANCH  14  18
ATOM     18  O   UNL     1       1.810   4.018  19.160  0.00  0.00    +0.000 OA
BRANCH  18  20
ATOM     19  C   UNL     1       3.897   2.671  19.285  0.00  0.00    +0.000 C 
ATOM     20  C   UNL     1       2.564   2.919  18.559  0.00  0.00    +0.000 C 
ATOM     21  C   UNL     1       2.776   3.149  17.055  0.00  0.00    +0.000 C 
ATOM     22  C   UNL     1       1.703   1.655  18.727  0.00  0.00    +0.000 C 
ENDBRANCH  18  20
ENDBRANCH  14  18
ENDBRANCH   1  16
BRANCH   1  23
ATOM     23  C   UNL     1       4.030   7.472  17.216  0.00  0.00    +0.000 C 
BRANCH  23  24
ATOM     24  C   UNL     1       5.057   6.362  17.098  0.00  0.00    +0.000 A 
ATOM     25  C   UNL     1       5.270   5.724  15.868  0.00  0.00    +0.000 A 
ATOM     26  C   UNL     1       6.282   4.771  15.725  0.00  0.00    +0.000 A 
ATOM     27  C   UNL     1       7.092   4.437  16.809  0.00  0.00    +0.000 A 
ATOM     28  C   UNL     1       6.884   5.050  18.041  0.00  0.00    +0.000 A 
ATOM     29  C   UNL     1       5.875   6.009  18.183  0.00  0.00    +0.000 A 
ENDBRANCH  23  24
ENDBRANCH   1  23
TORSDOF 7
ENDMDL
MODEL 4
REMARK VINA RESULT:      -8.1      2.271      6.288
REMARK  Name = 
REMARK  10 active torsions:
REMARK  status: ('A' for Active; 'I' for Inactive)
REMARK    1  A    between atoms: C_1  and  C_2
REMARK    2  A    between atoms: C_2  and  C_3
REMARK    3  A    between atoms: C_2  and  C_4
REMARK    4  A    between atoms: C_2  and  O_5
REMARK    5  A    between atoms: O_5  and  C_6
REMARK    6  A    between atoms: N_8  and  C_9
REMARK    7  A    between atoms: C_9  and  C_10
REMARK    8  A    between atoms: C_9  and  C_17
REMARK    9  A    between atoms: C_10  and  C_11
REMARK   10  A    between atoms: C_23  and  C_24
REMARK                            x       y       z     vdW  Elec       q    Type
REMARK                         _______ _______ _______ _____ _____    ______ ____
ROOT
ATOM      1  C   UNL     1       2.989   6.653  18.247  0.00  0.00    +0.000 C 
ENDROOT
BRANCH   1   2
ATOM      2  C   UNL     1       4.289   6.613  17.401  0.00  0.00    +0.000 C 
ATOM      3  O   UNL     1       4.342   7.205  16.315  0.00  0.00    +0.000 OA
ATOM      4  N   UNL     1       5.377   5.866  17.832  0.00  0.00    +0.000 N 
ATOM      5  C   UNL     1       5.569   5.197  19.109  0.00  0.00    +0.000 C 
ATOM      6  C   UNL     1       7.016   5.510  19.462  0.00  0.00    +0.000 C 
ATOM      7  C   UNL     1       7.730   5.487  18.117  0.00  0.00    +0.000 C 
ATOM      8  C   UNL     1       6.654   5.879  17.087  0.00  0.00    +0.000 C 
BRANCH   8   9
ATOM      9  C   UNL     1       6.693   4.896  15.897  0.00  0.00    +0.000 C 
ATOM     10  N   UNL     1       7.511   5.236  14.854  0.00  0.00    +0.000 N 
ATOM     11  O   UNL     1       6.146   3.794  15.894  0.00  0.00    +0.000 OA
ATOM     12  H   UNL     1       8.289   5.862  15.046  0.00  0.00    +0.000 HD
ATOM     13  H   UNL     1       7.659   4.515  14.159  0.00  0.00    +0.000 HD
ENDBRANCH   8   9
ENDBRANCH   1   2
BRANCH   1  16
ATOM     14  C   UNL     1       1.765   8.568  19.196  0.00  0.00    +0.000 C 
ATOM     15  O   UNL     1       1.928   8.156  20.337  0.00  0.00    +0.000 OA
ATOM     16  N   UNL     1       2.283   7.932  18.102  0.00  0.00    +0.000 N 
ATOM     17  H   UNL     1       2.045   8.268  17.176  0.00  0.00    +0.000 HD
BRANCH  14  18
ATOM     18  O   UNL     1       1.034   9.660  18.853  0.00  0.00    +0.000 OA
BRANCH  18  20
ATOM     19  C   UNL     1      -0.261   9.238  20.934  0.00  0.00    +0.000 C 
ATOM     20  C   UNL     1       0.133  10.247  19.843  0.00  0.00    +0.000 C 
ATOM     21  C   UNL     1      -1.105  10.862  19.171  0.00  0.00    +0.000 C 
ATOM     22  C   UNL     1       0.914  11.384  20.525  0.00  0.00    +0.000 C 
ENDBRANCH  18  20
ENDBRANCH  14  18
ENDBRANCH   1  16
BRANCH   1  23
ATOM     23  C   UNL     1       2.090   5.427  17.960  0.00  0.00    +0.000 C 
BRANCH  23  24
ATOM     24  C   UNL     1       1.851   4.451  19.096  0.00  0.00    +0.000 A 
ATOM     25  C   UNL     1       1.386   3.156  18.830  0.00  0.00    +0.000 A 
ATOM     26  C   UNL     1       1.259   2.218  19.859  0.00  0.00    +0.000 A 
ATOM     27  C   UNL     1       1.588   2.562  21.169  0.00  0.00    +0.000 A 
ATOM     28  C   UNL     1       2.036   3.849  21.453  0.00  0.00    +0.000 A 
ATOM     29  C   UNL     1       2.170   4.785  20.423  0.00  0.00    +0.000 A 
ENDBRANCH  23  24
ENDBRANCH   1  23
TORSDOF 7
ENDMDL
MODEL 5
REMARK VINA RESULT:      -8.1      2.319      6.165
REMARK  Name = 
REMARK  10 active torsions:
REMARK  status: ('A' for Active; 'I' for Inactive)
REMARK    1  A    between atoms: C_1  and  C_2
REMARK    2  A    between atoms: C_2  and  C_3
REMARK    3  A    between atoms: C_2  and  C_4
REMARK    4  A    between atoms: C_2  and  O_5
REMARK    5  A    between atoms: O_5  and  C_6
REMARK    6  A    between atoms: N_8  and  C_9
REMARK    7  A    between atoms: C_9  and  C_10
REMARK    8  A    between atoms: C_9  and  C_17
REMARK    9  A    between atoms: C_10  and  C_11
REMARK   10  A    between atoms: C_23  and  C_24
REMARK                            x       y       z     vdW  Elec       q    Type
REMARK                         _______ _______ _______ _____ _____    ______ ____
ROOT
ATOM      1  C   UNL     1       3.092   6.657  18.139  0.00  0.00    +0.000 C 
ENDROOT
BRANCH   1   2
ATOM      2  C   UNL     1       4.419   6.532  17.346  0.00  0.00    +0.000 C 
ATOM      3  O   UNL     1       4.524   7.048  16.226  0.00  0.00    +0.000 OA
ATOM      4  N   UNL     1       5.473   5.792  17.865  0.00  0.00    +0.000 N 
ATOM      5  C   UNL     1       5.603   5.206  19.190  0.00  0.00    +0.000 C 
ATOM      6  C   UNL     1       7.043   5.510  19.574  0.00  0.00    +0.000 C 
ATOM      7  C   UNL     1       7.804   5.382  18.262  0.00  0.00    +0.000 C 
ATOM      8  C   UNL     1       6.776   5.727  17.168  0.00  0.00    +0.000 C 
BRANCH   8   9
ATOM      9  C   UNL     1       6.832   4.666  16.048  0.00  0.00    +0.000 C 
ATOM     10  N   UNL     1       5.977   3.605  16.172  0.00  0.00    +0.000 N 
ATOM     11  O   UNL     1       7.491   4.788  15.016  0.00  0.00    +0.000 OA
ATOM     12  H   UNL     1       5.140   3.734  16.734  0.00  0.00    +0.000 HD
ATOM     13  H   UNL     1       5.901   3.006  15.359  0.00  0.00    +0.000 HD
ENDBRANCH   8   9
ENDBRANCH   1   2
BRANCH   1  16
ATOM     14  C   UNL     1       1.868   8.638  18.941  0.00  0.00    +0.000 C 
ATOM     15  O   UNL     1       1.944   8.262  20.103  0.00  0.00    +0.000 OA
ATOM     16  N   UNL     1       2.436   7.950  17.906  0.00  0.00    +0.000 N 
ATOM     17  H   UNL     1       2.270   8.261  16.955  0.00  0.00    +0.000 HD
BRANCH  14  18
ATOM     18  O   UNL     1       1.195   9.739  18.515  0.00  0.00    +0.000 OA
BRANCH  18  20
ATOM     19  C   UNL     1       0.843  11.671  20.040  0.00  0.00    +0.000 C 
ATOM     20  C   UNL     1       0.256  10.390  19.426  0.00  0.00    +0.000 C 
ATOM     21  C   UNL     1      -0.231   9.417  20.511  0.00  0.00    +0.000 C 
ATOM     22  C   UNL     1      -0.962  10.799  18.578  0.00  0.00    +0.000 C 
ENDBRANCH  18  20
ENDBRANCH  14  18
ENDBRANCH   1  16
BRANCH   1  23
ATOM     23  C   UNL     1       2.161   5.449  17.877  0.00  0.00    +0.000 C 
BRANCH  23  24
ATOM     24  C   UNL     1       1.894   4.506  19.034  0.00  0.00    +0.000 A 
ATOM     25  C   UNL     1       1.424   3.207  18.795  0.00  0.00    +0.000 A 
ATOM     26  C   UNL     1       1.271   2.298  19.846  0.00  0.00    +0.000 A 
ATOM     27  C   UNL     1       1.579   2.675  21.152  0.00  0.00    +0.000 A 
ATOM     28  C   UNL     1       2.032   3.965  21.409  0.00  0.00    +0.000 A 
ATOM     29  C   UNL     1       2.192   4.873  20.357  0.00  0.00    +0.000 A 
ENDBRANCH  23  24
ENDBRANCH   1  23
TORSDOF 7
ENDMDL
MODEL 6
REMARK VINA RESULT:      -8.1      2.319      6.081
REMARK  Name = 
REMARK  10 active torsions:
REMARK  status: ('A' for Active; 'I' for Inactive)
REMARK    1  A    between atoms: C_1  and  C_2
REMARK    2  A    between atoms: C_2  and  C_3
REMARK    3  A    between atoms: C_2  and  C_4
REMARK    4  A    between atoms: C_2  and  O_5
REMARK    5  A    between atoms: O_5  and  C_6
REMARK    6  A    between atoms: N_8  and  C_9
REMARK    7  A    between atoms: C_9  and  C_10
REMARK    8  A    between atoms: C_9  and  C_17
REMARK    9  A    between atoms: C_10  and  C_11
REMARK   10  A    between atoms: C_23  and  C_24
REMARK                            x       y       z     vdW  Elec       q    Type
REMARK                         _______ _______ _______ _____ _____    ______ ____
ROOT
ATOM      1  C   UNL     1       3.134   6.878  18.138  0.00  0.00    +0.000 C 
ENDROOT
BRANCH   1   2
ATOM      2  C   UNL     1       4.412   6.596  17.305  0.00  0.00    +0.000 C 
ATOM      3  O   UNL     1       4.514   7.041  16.155  0.00  0.00    +0.000 OA
ATOM      4  N   UNL     1       5.419   5.794  17.826  0.00  0.00    +0.000 N 
ATOM      5  C   UNL     1       5.554   5.269  19.175  0.00  0.00    +0.000 C 
ATOM      6  C   UNL     1       7.030   5.465  19.488  0.00  0.00    +0.000 C 
ATOM      7  C   UNL     1       7.721   5.202  18.158  0.00  0.00    +0.000 C 
ATOM      8  C   UNL     1       6.681   5.579  17.085  0.00  0.00    +0.000 C 
BRANCH   8   9
ATOM      9  C   UNL     1       6.600   4.460  16.025  0.00  0.00    +0.000 C 
ATOM     10  N   UNL     1       5.796   3.395  16.325  0.00  0.00    +0.000 N 
ATOM     11  O   UNL     1       7.099   4.536  14.903  0.00  0.00    +0.000 OA
ATOM     12  H   UNL     1       5.046   3.541  16.996  0.00  0.00    +0.000 HD
ATOM     13  H   UNL     1       5.617   2.751  15.565  0.00  0.00    +0.000 HD
ENDBRANCH   8   9
ENDBRANCH   1   2
BRANCH   1  16
ATOM     14  C   UNL     1       1.936   8.868  18.956  0.00  0.00    +0.000 C 
ATOM     15  O   UNL     1       1.700   8.333  20.031  0.00  0.00    +0.000 OA
ATOM     16  N   UNL     1       2.670   8.261  17.975  0.00  0.00    +0.000 N 
ATOM     17  H   UNL     1       2.763   8.715  17.074  0.00  0.00    +0.000 HD
BRANCH  14  18
ATOM     18  O   UNL     1       1.484  10.091  18.572  0.00  0.00    +0.000 OA
BRANCH  18  20
ATOM     19  C   UNL     1      -0.165  11.949  18.676  0.00  0.00    +0.000 C 
ATOM     20  C   UNL     1       0.088  10.440  18.826  0.00  0.00    +0.000 C 
ATOM     21  C   UNL     1      -0.373   9.926  20.199  0.00  0.00    +0.000 C 
ATOM     22  C   UNL     1      -0.745   9.722  17.749  0.00  0.00    +0.000 C 
ENDBRANCH  18  20
ENDBRANCH  14  18
ENDBRANCH   1  16
BRANCH   1  23
ATOM     23  C   UNL     1       2.031   5.830  17.855  0.00  0.00    +0.000 C 
BRANCH  23  24
ATOM     24  C   UNL     1       1.865   4.699  18.851  0.00  0.00    +0.000 A 
ATOM     25  C   UNL     1       2.069   4.925  20.219  0.00  0.00    +0.000 A 
ATOM     26  C   UNL     1       1.821   3.916  21.154  0.00  0.00    +0.000 A 
ATOM     27  C   UNL     1       1.371   2.665  20.736  0.00  0.00    +0.000 A 
ATOM     28  C   UNL     1       1.178   2.419  19.380  0.00  0.00    +0.000 A 
ATOM     29  C   UNL     1       1.419   3.430  18.444  0.00  0.00    +0.000 A 
ENDBRANCH  23  24
ENDBRANCH   1  23
TORSDOF 7
ENDMDL
MODEL 7
REMARK VINA RESULT:      -8.0      2.726      6.750
REMARK  Name = 
REMARK  10 active torsions:
REMARK  status: ('A' for Active; 'I' for Inactive)
REMARK    1  A    between atoms: C_1  and  C_2
REMARK    2  A    between atoms: C_2  and  C_3
REMARK    3  A    between atoms: C_2  and  C_4
REMARK    4  A    between atoms: C_2  and  O_5
REMARK    5  A    between atoms: O_5  and  C_6
REMARK    6  A    between atoms: N_8  and  C_9
REMARK    7  A    between atoms: C_9  and  C_10
REMARK    8  A    between atoms: C_9  and  C_17
REMARK    9  A    between atoms: C_10  and  C_11
REMARK   10  A    between atoms: C_23  and  C_24
REMARK                            x       y       z     vdW  Elec       q    Type
REMARK                         _______ _______ _______ _____ _____    ______ ____
ROOT
ATOM      1  C   UNL     1       3.223   7.347  18.228  0.00  0.00    +0.000 C 
ENDROOT
BRANCH   1   2
ATOM      2  C   UNL     1       2.143   8.460  18.263  0.00  0.00    +0.000 C 
ATOM      3  O   UNL     1       1.836   9.060  17.225  0.00  0.00    +0.000 OA
ATOM      4  N   UNL     1       1.561   8.827  19.469  0.00  0.00    +0.000 N 
ATOM      5  C   UNL     1       1.689   8.189  20.769  0.00  0.00    +0.000 C 
ATOM      6  C   UNL     1       0.270   8.205  21.316  0.00  0.00    +0.000 C 
ATOM      7  C   UNL     1      -0.296   9.528  20.819  0.00  0.00    +0.000 C 
ATOM      8  C   UNL     1       0.471   9.826  19.517  0.00  0.00    +0.000 C 
BRANCH   8   9
ATOM      9  C   UNL     1       0.965  11.288  19.528  0.00  0.00    +0.000 C 
ATOM     10  N   UNL     1       1.007  11.926  18.318  0.00  0.00    +0.000 N 
ATOM     11  O   UNL     1       1.190  11.933  20.552  0.00  0.00    +0.000 OA
ATOM     12  H   UNL     1       0.401  11.580  17.579  0.00  0.00    +0.000 HD
ATOM     13  H   UNL     1       1.170  12.924  18.352  0.00  0.00    +0.000 HD
ENDBRANCH   8   9
ENDBRANCH   1   2
BRANCH   1  16
ATOM     14  C   UNL     1       3.080   5.024  19.033  0.00  0.00    +0.000 C 
ATOM     15  O   UNL     1       3.936   5.225  19.884  0.00  0.00    +0.000 OA
ATOM     16  N   UNL     1       2.624   6.007  18.200  0.00  0.00    +0.000 N 
ATOM     17  H   UNL     1       1.977   5.765  17.458  0.00  0.00    +0.000 HD
BRANCH  14  18
ATOM     18  O   UNL     1       2.502   3.822  18.770  0.00  0.00    +0.000 OA
BRANCH  18  20
ATOM     19  C   UNL     1       2.373   2.523  20.886  0.00  0.00    +0.000 C 
ATOM     20  C   UNL     1       1.604   3.237  19.764  0.00  0.00    +0.000 C 
ATOM     21  C   UNL     1       0.577   2.304  19.103  0.00  0.00    +0.000 C 
ATOM     22  C   UNL     1       0.836   4.408  20.402  0.00  0.00    +0.000 C 
ENDBRANCH  18  20
ENDBRANCH  14  18
ENDBRANCH   1  16
BRANCH   1  23
ATOM     23  C   UNL     1       4.241   7.581  17.087  0.00  0.00    +0.000 C 
BRANCH  23  24
ATOM     24  C   UNL     1       5.259   6.490  16.820  0.00  0.00    +0.000 A 
ATOM     25  C   UNL     1       5.198   5.738  15.639  0.00  0.00    +0.000 A 
ATOM     26  C   UNL     1       6.190   4.800  15.337  0.00  0.00    +0.000 A 
ATOM     27  C   UNL     1       7.253   4.594  16.214  0.00  0.00    +0.000 A 
ATOM     28  C   UNL     1       7.320   5.321  17.400  0.00  0.00    +0.000 A 
ATOM     29  C   UNL     1       6.332   6.265  17.698  0.00  0.00    +0.000 A 
ENDBRANCH  23  24
ENDBRANCH   1  23
TORSDOF 7
ENDMDL
MODEL 8
REMARK VINA RESULT:      -8.0      0.778      1.140
REMARK  Name = 
REMARK  10 active torsions:
REMARK  status: ('A' for Active; 'I' for Inactive)
REMARK    1  A    between atoms: C_1  and  C_2
REMARK    2  A    between atoms: C_2  and  C_3
REMARK    3  A    between atoms: C_2  and  C_4
REMARK    4  A    between atoms: C_2  and  O_5
REMARK    5  A    between atoms: O_5  and  C_6
REMARK    6  A    between atoms: N_8  and  C_9
REMARK    7  A    between atoms: C_9  and  C_10
REMARK    8  A    between atoms: C_9  and  C_17
REMARK    9  A    between atoms: C_10  and  C_11
REMARK   10  A    between atoms: C_23  and  C_24
REMARK                            x       y       z     vdW  Elec       q    Type
REMARK                         _______ _______ _______ _____ _____    ______ ____
ROOT
ATOM      1  C   UNL     1       3.738   6.460  18.104  0.00  0.00    +0.000 C 
ENDROOT
BRANCH   1   2
ATOM      2  C   UNL     1       3.809   5.221  19.035  0.00  0.00    +0.000 C 
ATOM      3  O   UNL     1       4.670   5.160  19.923  0.00  0.00    +0.000 OA
ATOM      4  N   UNL     1       2.946   4.152  18.838  0.00  0.00    +0.000 N 
ATOM      5  C   UNL     1       1.804   4.061  17.942  0.00  0.00    +0.000 C 
ATOM      6  C   UNL     1       0.745   3.366  18.784  0.00  0.00    +0.000 C 
ATOM      7  C   UNL     1       1.540   2.370  19.617  0.00  0.00    +0.000 C 
ATOM      8  C   UNL     1       2.939   2.997  19.762  0.00  0.00    +0.000 C 
BRANCH   8   9
ATOM      9  C   UNL     1       4.018   1.939  19.447  0.00  0.00    +0.000 C 
ATOM     10  N   UNL     1       5.122   1.936  20.255  0.00  0.00    +0.000 N 
ATOM     11  O   UNL     1       3.881   1.040  18.617  0.00  0.00    +0.000 OA
ATOM     12  H   UNL     1       5.028   2.332  21.187  0.00  0.00    +0.000 HD
ATOM     13  H   UNL     1       5.741   1.142  20.151  0.00  0.00    +0.000 HD
ENDBRANCH   8   9
ENDBRANCH   1   2
BRANCH   1  16
ATOM     14  C   UNL     1       5.645   6.526  16.547  0.00  0.00    +0.000 C 
ATOM     15  O   UNL     1       6.384   6.981  17.411  0.00  0.00    +0.000 OA
ATOM     16  N   UNL     1       4.342   6.193  16.793  0.00  0.00    +0.000 N 
ATOM     17  H   UNL     1       3.753   5.901  16.022  0.00  0.00    +0.000 HD
BRANCH  14  18
ATOM     18  O   UNL     1       5.986   6.330  15.247  0.00  0.00    +0.000 OA
BRANCH  18  20
ATOM     19  C   UNL     1       7.566   5.136  13.744  0.00  0.00    +0.000 C 
ATOM     20  C   UNL     1       6.492   5.022  14.838  0.00  0.00    +0.000 C 
ATOM     21  C   UNL     1       5.347   4.093  14.407  0.00  0.00    +0.000 C 
ATOM     22  C   UNL     1       7.160   4.404  16.079  0.00  0.00    +0.000 C 
ENDBRANCH  18  20
ENDBRANCH  14  18
ENDBRANCH   1  16
BRANCH   1  23
ATOM     23  C   UNL     1       2.296   7.012  18.006  0.00  0.00    +0.000 C 
BRANCH  23  24
ATOM     24  C   UNL     1       1.858   8.020  19.051  0.00  0.00    +0.000 A 
ATOM     25  C   UNL     1       1.450   9.304  18.668  0.00  0.00    +0.000 A 
ATOM     26  C   UNL     1       0.949  10.206  19.612  0.00  0.00    +0.000 A 
ATOM     27  C   UNL     1       0.855   9.840  20.953  0.00  0.00    +0.000 A 
ATOM     28  C   UNL     1       1.271   8.574  21.353  0.00  0.00    +0.000 A 
ATOM     29  C   UNL     1       1.765   7.668  20.408  0.00  0.00    +0.000 A 
ENDBRANCH  23  24
ENDBRANCH   1  23
TORSDOF 7
ENDMDL
MODEL 9
REMARK VINA RESULT:      -7.9      2.334      6.180
REMARK  Name = 
REMARK  10 active torsions:
REMARK  status: ('A' for Active; 'I' for Inactive)
REMARK    1  A    between atoms: C_1  and  C_2
REMARK    2  A    between atoms: C_2  and  C_3
REMARK    3  A    between atoms: C_2  and  C_4
REMARK    4  A    between atoms: C_2  and  O_5
REMARK    5  A    between atoms: O_5  and  C_6
REMARK    6  A    between atoms: N_8  and  C_9
REMARK    7  A    between atoms: C_9  and  C_10
REMARK    8  A    between atoms: C_9  and  C_17
REMARK    9  A    between atoms: C_10  and  C_11
REMARK   10  A    between atoms: C_23  and  C_24
REMARK                            x       y       z     vdW  Elec       q    Type
REMARK                         _______ _______ _______ _____ _____    ______ ____
ROOT
ATOM      1  C   UNL     1       2.925   6.741  18.189  0.00  0.00    +0.000 C 
ENDROOT
BRANCH   1   2
ATOM      2  C   UNL     1       4.282   6.806  17.439  0.00  0.00    +0.000 C 
ATOM      3  O   UNL     1       4.390   7.483  16.409  0.00  0.00    +0.000 OA
ATOM      4  N   UNL     1       5.361   6.057  17.888  0.00  0.00    +0.000 N 
ATOM      5  C   UNL     1       5.486   5.293  19.119  0.00  0.00    +0.000 C 
ATOM      6  C   UNL     1       6.893   5.616  19.599  0.00  0.00    +0.000 C 
ATOM      7  C   UNL     1       7.699   5.722  18.312  0.00  0.00    +0.000 C 
ATOM      8  C   UNL     1       6.686   6.165  17.240  0.00  0.00    +0.000 C 
BRANCH   8   9
ATOM      9  C   UNL     1       6.841   5.282  15.983  0.00  0.00    +0.000 C 
ATOM     10  N   UNL     1       6.091   5.638  14.894  0.00  0.00    +0.000 N 
ATOM     11  O   UNL     1       7.674   4.385  15.868  0.00  0.00    +0.000 OA
ATOM     12  H   UNL     1       5.784   6.605  14.826  0.00  0.00    +0.000 HD
ATOM     13  H   UNL     1       6.318   5.162  14.030  0.00  0.00    +0.000 HD
ENDBRANCH   8   9
ENDBRANCH   1   2
BRANCH   1  16
ATOM     14  C   UNL     1       1.522   8.597  18.998  0.00  0.00    +0.000 C 
ATOM     15  O   UNL     1       1.699   8.273  20.165  0.00  0.00    +0.000 OA
ATOM     16  N   UNL     1       2.114   7.942  17.954  0.00  0.00    +0.000 N 
ATOM     17  H   UNL     1       1.866   8.198  17.005  0.00  0.00    +0.000 HD
BRANCH  14  18
ATOM     18  O   UNL     1       0.706   9.597  18.576  0.00  0.00    +0.000 OA
BRANCH  18  20
ATOM     19  C   UNL     1       2.219  11.561  18.380  0.00  0.00    +0.000 C 
ATOM     20  C   UNL     1       0.964  10.961  19.034  0.00  0.00    +0.000 C 
ATOM     21  C   UNL     1       1.042  11.026  20.567  0.00  0.00    +0.000 C 
ATOM     22  C   UNL     1      -0.241  11.807  18.587  0.00  0.00    +0.000 C 
ENDBRANCH  18  20
ENDBRANCH  14  18
ENDBRANCH   1  16
BRANCH   1  23
ATOM     23  C   UNL     1       2.169   5.427  17.879  0.00  0.00    +0.000 C 
BRANCH  23  24
ATOM     24  C   UNL     1       2.047   4.408  18.995  0.00  0.00    +0.000 A 
ATOM     25  C   UNL     1       2.079   4.819  20.335  0.00  0.00    +0.000 A 
ATOM     26  C   UNL     1       1.867   3.901  21.368  0.00  0.00    +0.000 A 
ATOM     27  C   UNL     1       1.625   2.560  21.078  0.00  0.00    +0.000 A 
ATOM     28  C   UNL     1       1.605   2.132  19.754  0.00  0.00    +0.000 A 
ATOM     29  C   UNL     1       1.811   3.051  18.720  0.00  0.00    +0.000 A 
ENDBRANCH  23  24
ENDBRANCH   1  23
TORSDOF 7
ENDMDL
