MODEL 1
REMARK VINA RESULT:      -7.3      0.000      0.000
REMARK  Name = 
REMARK  5 active torsions:
REMARK  status: ('A' for Active; 'I' for Inactive)
REMARK    1  A    between atoms: C_8  and  C_9
REMARK    2  A    between atoms: C_9  and  C_10
REMARK    3  A    between atoms: C_10  and  O_11
REMARK    4  A    between atoms: O_11  and  C_12
REMARK    5  A    between atoms: C_17  and  N_18
REMARK                            x       y       z     vdW  Elec       q    Type
REMARK                         _______ _______ _______ _____ _____    ______ ____
ROOT
ATOM      1  C   UNL     1       2.638   5.305  18.632  0.00  0.00    +0.000 C 
ATOM      2  C   UNL     1       1.597   4.398  17.951  0.00  0.00    +0.000 C 
ATOM      3  C   UNL     1       1.679   2.966  18.459  0.00  0.00    +0.000 C 
ATOM      4  C   UNL     1       3.074   2.378  18.292  0.00  0.00    +0.000 C 
ATOM      5  C   UNL     1       4.171   3.280  18.846  0.00  0.00    +0.000 C 
ATOM      6  C   UNL     1       4.098   4.765  18.397  0.00  0.00    +0.000 C 
ENDROOT
BRANCH   6   7
ATOM      7  N   UNL     1       4.719   5.119  17.096  0.00  0.00    +0.000 NA
ATOM      8  C   UNL     1       5.689   4.244  16.436  0.00  0.00    +0.000 C 
ATOM      9  C   UNL     1       7.143   4.603  16.775  0.00  0.00    +0.000 C 
ATOM     10  O   UNL     1       7.430   5.956  16.407  0.00  0.00    +0.000 OA
ATOM     11  C   UNL     1       6.543   6.864  17.079  0.00  0.00    +0.000 C 
ATOM     12  C   UNL     1       5.058   6.524  16.825  0.00  0.00    +0.000 C 
ENDBRANCH   6   7
BRANCH   1  13
ATOM     13  O   UNL     1       2.355   5.405  20.055  0.00  0.00    +0.000 OA
BRANCH  13  14
ATOM     14  C   UNL     1       1.360   6.402  20.324  0.00  0.00    +0.000 C 
BRANCH  14  15
ATOM     15  C   UNL     1       1.956   7.752  20.723  0.00  0.00    +0.000 C 
BRANCH  15  23
ATOM     16 CL   UNL     1       2.425   8.588  17.748  0.00  0.00    +0.000 Cl
ATOM     17  C   UNL     1       1.237   9.277  18.800  0.00  0.00    +0.000 A 
ATOM     18  C   UNL     1       0.385  10.238  18.239  0.00  0.00    +0.000 A 
ATOM     19  C   UNL     1      -0.625  10.808  19.002  0.00  0.00    +0.000 A 
ATOM     20  C   UNL     1      -0.792  10.412  20.325  0.00  0.00    +0.000 A 
ATOM     21  C   UNL     1       0.059   9.456  20.891  0.00  0.00    +0.000 A 
ATOM     22 CL   UNL     1      -0.275   8.996  22.528  0.00  0.00    +0.000 Cl
ATOM     23  C   UNL     1       1.102   8.868  20.142  0.00  0.00    +0.000 A 
ENDBRANCH  15  23
ENDBRANCH  14  15
ENDBRANCH  13  14
ENDBRANCH   1  13
TORSDOF 5
ENDMDL
MODEL 2
REMARK VINA RESULT:      -7.3      0.263      1.917
REMARK  Name = 
REMARK  5 active torsions:
REMARK  status: ('A' for Active; 'I' for Inactive)
REMARK    1  A    between atoms: C_8  and  C_9
REMARK    2  A    between atoms: C_9  and  C_10
REMARK    3  A    between atoms: C_10  and  O_11
REMARK    4  A    between atoms: O_11  and  C_12
REMARK    5  A    between atoms: C_17  and  N_18
REMARK                            x       y       z     vdW  Elec       q    Type
REMARK                         _______ _______ _______ _____ _____    ______ ____
ROOT
ATOM      1  C   UNL     1       2.683   5.461  18.777  0.00  0.00    +0.000 C 
ATOM      2  C   UNL     1       1.627   4.606  18.053  0.00  0.00    +0.000 C 
ATOM      3  C   UNL     1       1.716   3.141  18.456  0.00  0.00    +0.000 C 
ATOM      4  C   UNL     1       3.106   2.565  18.220  0.00  0.00    +0.000 C 
ATOM      5  C   UNL     1       4.215   3.424  18.815  0.00  0.00    +0.000 C 
ATOM      6  C   UNL     1       4.138   4.937  18.476  0.00  0.00    +0.000 C 
ENDROOT
BRANCH   6   7
ATOM      7  N   UNL     1       4.733   5.383  17.191  0.00  0.00    +0.000 NA
ATOM      8  C   UNL     1       5.578   4.504  16.381  0.00  0.00    +0.000 C 
ATOM      9  C   UNL     1       7.074   4.675  16.677  0.00  0.00    +0.000 C 
ATOM     10  O   UNL     1       7.484   6.028  16.452  0.00  0.00    +0.000 OA
ATOM     11  C   UNL     1       6.725   6.931  17.274  0.00  0.00    +0.000 C 
ATOM     12  C   UNL     1       5.204   6.771  17.065  0.00  0.00    +0.000 C 
ENDBRANCH   6   7
BRANCH   1  13
ATOM     13  O   UNL     1       2.429   5.459  20.210  0.00  0.00    +0.000 OA
BRANCH  13  14
ATOM     14  C   UNL     1       1.458   6.451  20.571  0.00  0.00    +0.000 C 
BRANCH  14  15
ATOM     15  C   UNL     1       2.057   7.849  20.722  0.00  0.00    +0.000 C 
BRANCH  15  23
ATOM     16 CL   UNL     1       0.112   9.144  22.797  0.00  0.00    +0.000 Cl
ATOM     17  C   UNL     1       0.166   9.526  21.110  0.00  0.00    +0.000 A 
ATOM     18  C   UNL     1      -0.692  10.544  20.670  0.00  0.00    +0.000 A 
ATOM     19  C   UNL     1      -0.679  10.943  19.340  0.00  0.00    +0.000 A 
ATOM     20  C   UNL     1       0.198  10.332  18.450  0.00  0.00    +0.000 A 
ATOM     21  C   UNL     1       1.053   9.312  18.884  0.00  0.00    +0.000 A 
ATOM     22 CL   UNL     1       2.141   8.662  17.703  0.00  0.00    +0.000 Cl
ATOM     23  C   UNL     1       1.053   8.879  20.227  0.00  0.00    +0.000 A 
ENDBRANCH  15  23
ENDBRANCH  14  15
ENDBRANCH  13  14
ENDBRANCH   1  13
TORSDOF 5
ENDMDL
MODEL 3
REMARK VINA RESULT:      -7.2      0.790      2.201
REMARK  Name = 
REMARK  5 active torsions:
REMARK  status: ('A' for Active; 'I' for Inactive)
REMARK    1  A    between atoms: C_8  and  C_9
REMARK    2  A    between atoms: C_9  and  C_10
REMARK    3  A    between atoms: C_10  and  O_11
REMARK    4  A    between atoms: O_11  and  C_12
REMARK    5  A    between atoms: C_17  and  N_18
REMARK                            x       y       z     vdW  Elec       q    Type
REMARK                         _______ _______ _______ _____ _____    ______ ____
ROOT
ATOM      1  C   UNL     1       3.043   5.608  19.073  0.00  0.00    +0.000 C 
ATOM      2  C   UNL     1       2.342   4.941  17.876  0.00  0.00    +0.000 C 
ATOM      3  C   UNL     1       2.364   3.423  17.985  0.00  0.00    +0.000 C 
ATOM      4  C   UNL     1       3.780   2.880  18.130  0.00  0.00    +0.000 C 
ATOM      5  C   UNL     1       4.575   3.577  19.227  0.00  0.00    +0.000 C 
ATOM      6  C   UNL     1       4.539   5.129  19.191  0.00  0.00    +0.000 C 
ENDROOT
BRANCH   6   7
ATOM      7  N   UNL     1       5.511   5.816  18.304  0.00  0.00    +0.000 NA
ATOM      8  C   UNL     1       5.297   5.935  16.861  0.00  0.00    +0.000 C 
ATOM      9  C   UNL     1       5.970   4.809  16.064  0.00  0.00    +0.000 C 
ATOM     10  O   UNL     1       7.379   4.786  16.311  0.00  0.00    +0.000 OA
ATOM     11  C   UNL     1       7.646   4.607  17.711  0.00  0.00    +0.000 C 
ATOM     12  C   UNL     1       6.949   5.678  18.578  0.00  0.00    +0.000 C 
ENDBRANCH   6   7
BRANCH   1  13
ATOM     13  O   UNL     1       2.318   5.318  20.301  0.00  0.00    +0.000 OA
BRANCH  13  14
ATOM     14  C   UNL     1       1.373   6.352  20.609  0.00  0.00    +0.000 C 
BRANCH  14  15
ATOM     15  C   UNL     1       2.015   7.733  20.730  0.00  0.00    +0.000 C 
BRANCH  15  23
ATOM     16 CL   UNL     1      -0.165   9.033  22.553  0.00  0.00    +0.000 Cl
ATOM     17  C   UNL     1       0.100   9.421  20.888  0.00  0.00    +0.000 A 
ATOM     18  C   UNL     1      -0.690  10.446  20.350  0.00  0.00    +0.000 A 
ATOM     19  C   UNL     1      -0.510  10.850  19.034  0.00  0.00    +0.000 A 
ATOM     20  C   UNL     1       0.467  10.237  18.256  0.00  0.00    +0.000 A 
ATOM     21  C   UNL     1       1.256   9.210  18.788  0.00  0.00    +0.000 A 
ATOM     22 CL   UNL     1       2.479   8.558  17.749  0.00  0.00    +0.000 Cl
ATOM     23  C   UNL     1       1.087   8.772  20.119  0.00  0.00    +0.000 A 
ENDBRANCH  15  23
ENDBRANCH  14  15
ENDBRANCH  13  14
ENDBRANCH   1  13
TORSDOF 5
ENDMDL
MODEL 4
REMARK VINA RESULT:      -6.8      0.762      1.339
REMARK  Name = 
REMARK  5 active torsions:
REMARK  status: ('A' for Active; 'I' for Inactive)
REMARK    1  A    between atoms: C_8  and  C_9
REMARK    2  A    between atoms: C_9  and  C_10
REMARK    3  A    between atoms: C_10  and  O_11
REMARK    4  A    between atoms: O_11  and  C_12
REMARK    5  A    between atoms: C_17  and  N_18
REMARK                            x       y       z     vdW  Elec       q    Type
REMARK                         _______ _______ _______ _____ _____    ______ ____
ROOT
ATOM      1  C   UNL     1       3.193   5.512  19.041  0.00  0.00    +0.000 C 
ATOM      2  C   UNL     1       2.274   5.077  17.886  0.00  0.00    +0.000 C 
ATOM      3  C   UNL     1       1.891   3.608  17.992  0.00  0.00    +0.000 C 
ATOM      4  C   UNL     1       3.114   2.701  18.056  0.00  0.00    +0.000 C 
ATOM      5  C   UNL     1       4.126   3.140  19.107  0.00  0.00    +0.000 C 
ATOM      6  C   UNL     1       4.508   4.645  19.073  0.00  0.00    +0.000 C 
ENDROOT
BRANCH   6   7
ATOM      7  N   UNL     1       5.580   5.059  18.134  0.00  0.00    +0.000 NA
ATOM      8  C   UNL     1       5.746   6.450  17.709  0.00  0.00    +0.000 C 
ATOM      9  C   UNL     1       5.019   6.762  16.393  0.00  0.00    +0.000 C 
ATOM     10  O   UNL     1       5.486   5.910  15.342  0.00  0.00    +0.000 OA
ATOM     11  C   UNL     1       5.288   4.529  15.683  0.00  0.00    +0.000 C 
ATOM     12  C   UNL     1       5.948   4.160  17.029  0.00  0.00    +0.000 C 
ENDBRANCH   6   7
BRANCH   1  13
ATOM     13  O   UNL     1       2.485   5.408  20.307  0.00  0.00    +0.000 OA
BRANCH  13  14
ATOM     14  C   UNL     1       1.482   6.425  20.432  0.00  0.00    +0.000 C 
BRANCH  14  15
ATOM     15  C   UNL     1       2.065   7.814  20.690  0.00  0.00    +0.000 C 
BRANCH  15  23
ATOM     16 CL   UNL     1       2.345   8.624  17.684  0.00  0.00    +0.000 Cl
ATOM     17  C   UNL     1       1.166   9.259  18.780  0.00  0.00    +0.000 A 
ATOM     18  C   UNL     1       0.232  10.156  18.246  0.00  0.00    +0.000 A 
ATOM     19  C   UNL     1      -0.775  10.677  19.047  0.00  0.00    +0.000 A 
ATOM     20  C   UNL     1      -0.857  10.295  20.381  0.00  0.00    +0.000 A 
ATOM     21  C   UNL     1       0.077   9.402  20.921  0.00  0.00    +0.000 A 
ATOM     22 CL   UNL     1      -0.154   8.952  22.578  0.00  0.00    +0.000 Cl
ATOM     23  C   UNL     1       1.118   8.866  20.133  0.00  0.00    +0.000 A 
ENDBRANCH  15  23
ENDBRANCH  14  15
ENDBRANCH  13  14
ENDBRANCH   1  13
TORSDOF 5
ENDMDL
MODEL 5
REMARK VINA RESULT:      -6.7      1.554      2.132
REMARK  Name = 
REMARK  5 active torsions:
REMARK  status: ('A' for Active; 'I' for Inactive)
REMARK    1  A    between atoms: C_8  and  C_9
REMARK    2  A    between atoms: C_9  and  C_10
REMARK    3  A    between atoms: C_10  and  O_11
REMARK    4  A    between atoms: O_11  and  C_12
REMARK    5  A    between atoms: C_17  and  N_18
REMARK                            x       y       z     vdW  Elec       q    Type
REMARK                         _______ _______ _______ _____ _____    ______ ____
ROOT
ATOM      1  C   UNL     1       3.094   4.051  17.452  0.00  0.00    +0.000 C 
ATOM      2  C   UNL     1       2.733   2.555  17.467  0.00  0.00    +0.000 C 
ATOM      3  C   UNL     1       2.694   1.999  18.883  0.00  0.00    +0.000 C 
ATOM      4  C   UNL     1       4.006   2.228  19.624  0.00  0.00    +0.000 C 
ATOM      5  C   UNL     1       4.485   3.673  19.554  0.00  0.00    +0.000 C 
ATOM      6  C   UNL     1       4.491   4.302  18.135  0.00  0.00    +0.000 C 
ENDROOT
BRANCH   6   7
ATOM      7  N   UNL     1       5.682   4.060  17.283  0.00  0.00    +0.000 NA
ATOM      8  C   UNL     1       6.997   4.613  17.611  0.00  0.00    +0.000 C 
ATOM      9  C   UNL     1       7.268   5.956  16.919  0.00  0.00    +0.000 C 
ATOM     10  O   UNL     1       7.177   5.821  15.497  0.00  0.00    +0.000 OA
ATOM     11  C   UNL     1       5.879   5.339  15.115  0.00  0.00    +0.000 C 
ATOM     12  C   UNL     1       5.518   4.014  15.822  0.00  0.00    +0.000 C 
ENDBRANCH   6   7
BRANCH   1  13
ATOM     13  O   UNL     1       2.056   4.821  18.119  0.00  0.00    +0.000 OA
BRANCH  13  14
ATOM     14  C   UNL     1       2.050   6.186  17.680  0.00  0.00    +0.000 C 
BRANCH  14  15
ATOM     15  C   UNL     1       2.890   7.104  18.567  0.00  0.00    +0.000 C 
BRANCH  15  23
ATOM     16 CL   UNL     1       1.951   9.977  17.770  0.00  0.00    +0.000 Cl
ATOM     17  C   UNL     1       1.486   9.143  19.212  0.00  0.00    +0.000 A 
ATOM     18  C   UNL     1       0.565   9.794  20.044  0.00  0.00    +0.000 A 
ATOM     19  C   UNL     1       0.105   9.175  21.198  0.00  0.00    +0.000 A 
ATOM     20  C   UNL     1       0.557   7.899  21.518  0.00  0.00    +0.000 A 
ATOM     21  C   UNL     1       1.480   7.246  20.693  0.00  0.00    +0.000 A 
ATOM     22 CL   UNL     1       1.929   5.639  21.157  0.00  0.00    +0.000 Cl
ATOM     23  C   UNL     1       1.973   7.856  19.519  0.00  0.00    +0.000 A 
ENDBRANCH  15  23
ENDBRANCH  14  15
ENDBRANCH  13  14
ENDBRANCH   1  13
TORSDOF 5
ENDMDL
MODEL 6
REMARK VINA RESULT:      -6.7      3.191      4.981
REMARK  Name = 
REMARK  5 active torsions:
REMARK  status: ('A' for Active; 'I' for Inactive)
REMARK    1  A    between atoms: C_8  and  C_9
REMARK    2  A    between atoms: C_9  and  C_10
REMARK    3  A    between atoms: C_10  and  O_11
REMARK    4  A    between atoms: O_11  and  C_12
REMARK    5  A    between atoms: C_17  and  N_18
REMARK                            x       y       z     vdW  Elec       q    Type
REMARK                         _______ _______ _______ _____ _____    ______ ____
ROOT
ATOM      1  C   UNL     1       5.197   5.509  17.226  0.00  0.00    +0.000 C 
ATOM      2  C   UNL     1       5.581   4.787  18.530  0.00  0.00    +0.000 C 
ATOM      3  C   UNL     1       6.523   5.626  19.382  0.00  0.00    +0.000 C 
ATOM      4  C   UNL     1       7.779   6.028  18.619  0.00  0.00    +0.000 C 
ATOM      5  C   UNL     1       7.477   6.649  17.260  0.00  0.00    +0.000 C 
ATOM      6  C   UNL     1       6.477   5.857  16.376  0.00  0.00    +0.000 C 
ENDROOT
BRANCH   6   7
ATOM      7  N   UNL     1       7.022   4.754  15.545  0.00  0.00    +0.000 NA
ATOM      8  C   UNL     1       7.997   4.995  14.479  0.00  0.00    +0.000 C 
ATOM      9  C   UNL     1       7.343   5.176  13.102  0.00  0.00    +0.000 C 
ATOM     10  O   UNL     1       6.567   4.025  12.754  0.00  0.00    +0.000 OA
ATOM     11  C   UNL     1       5.550   3.781  13.739  0.00  0.00    +0.000 C 
ATOM     12  C   UNL     1       6.137   3.644  15.161  0.00  0.00    +0.000 C 
ENDBRANCH   6   7
BRANCH   1  13
ATOM     13  O   UNL     1       4.444   6.716  17.527  0.00  0.00    +0.000 OA
BRANCH  13  14
ATOM     14  C   UNL     1       3.463   6.481  18.547  0.00  0.00    +0.000 C 
BRANCH  14  15
ATOM     15  C   UNL     1       2.230   5.739  18.033  0.00  0.00    +0.000 C 
BRANCH  15  23
ATOM     16 CL   UNL     1       2.708   2.858  16.921  0.00  0.00    +0.000 Cl
ATOM     17  C   UNL     1       2.162   3.229  18.520  0.00  0.00    +0.000 A 
ATOM     18  C   UNL     1       1.989   2.145  19.391  0.00  0.00    +0.000 A 
ATOM     19  C   UNL     1       1.597   2.360  20.706  0.00  0.00    +0.000 A 
ATOM     20  C   UNL     1       1.387   3.659  21.155  0.00  0.00    +0.000 A 
ATOM     21  C   UNL     1       1.555   4.745  20.288  0.00  0.00    +0.000 A 
ATOM     22 CL   UNL     1       1.322   6.321  20.969  0.00  0.00    +0.000 Cl
ATOM     23  C   UNL     1       1.942   4.556  18.943  0.00  0.00    +0.000 A 
ENDBRANCH  15  23
ENDBRANCH  14  15
ENDBRANCH  13  14
ENDBRANCH   1  13
TORSDOF 5
ENDMDL
MODEL 7
REMARK VINA RESULT:      -6.7      1.165      1.396
REMARK  Name = 
REMARK  5 active torsions:
REMARK  status: ('A' for Active; 'I' for Inactive)
REMARK    1  A    between atoms: C_8  and  C_9
REMARK    2  A    between atoms: C_9  and  C_10
REMARK    3  A    between atoms: C_10  and  O_11
REMARK    4  A    between atoms: O_11  and  C_12
REMARK    5  A    between atoms: C_17  and  N_18
REMARK                            x       y       z     vdW  Elec       q    Type
REMARK                         _______ _______ _______ _____ _____    ______ ____
ROOT
ATOM      1  C   UNL     1       3.000   6.107  18.953  0.00  0.00    +0.000 C 
ATOM      2  C   UNL     1       2.130   5.472  17.853  0.00  0.00    +0.000 C 
ATOM      3  C   UNL     1       1.939   3.979  18.077  0.00  0.00    +0.000 C 
ATOM      4  C   UNL     1       3.269   3.242  18.183  0.00  0.00    +0.000 C 
ATOM      5  C   UNL     1       4.229   3.885  19.176  0.00  0.00    +0.000 C 
ATOM      6  C   UNL     1       4.414   5.419  19.022  0.00  0.00    +0.000 C 
ENDROOT
BRANCH   6   7
ATOM      7  N   UNL     1       5.414   5.892  18.031  0.00  0.00    +0.000 NA
ATOM      8  C   UNL     1       5.304   5.574  16.606  0.00  0.00    +0.000 C 
ATOM      9  C   UNL     1       6.095   4.319  16.212  0.00  0.00    +0.000 C 
ATOM     10  O   UNL     1       7.481   4.471  16.536  0.00  0.00    +0.000 OA
ATOM     11  C   UNL     1       7.649   4.723  17.940  0.00  0.00    +0.000 C 
ATOM     12  C   UNL     1       6.832   5.944  18.415  0.00  0.00    +0.000 C 
ENDBRANCH   6   7
BRANCH   1  13
ATOM     13  O   UNL     1       2.325   6.012  20.238  0.00  0.00    +0.000 OA
BRANCH  13  14
ATOM     14  C   UNL     1       2.107   7.308  20.813  0.00  0.00    +0.000 C 
BRANCH  14  15
ATOM     15  C   UNL     1       0.661   7.786  20.684  0.00  0.00    +0.000 C 
BRANCH  15  23
ATOM     16 CL   UNL     1       1.270   9.074  17.902  0.00  0.00    +0.000 Cl
ATOM     17  C   UNL     1       0.879   9.951  19.341  0.00  0.00    +0.000 A 
ATOM     18  C   UNL     1       0.768  11.343  19.216  0.00  0.00    +0.000 A 
ATOM     19  C   UNL     1       0.413  12.118  20.312  0.00  0.00    +0.000 A 
ATOM     20  C   UNL     1       0.160  11.502  21.533  0.00  0.00    +0.000 A 
ATOM     21  C   UNL     1       0.274  10.113  21.664  0.00  0.00    +0.000 A 
ATOM     22 CL   UNL     1      -0.119   9.449  23.215  0.00  0.00    +0.000 Cl
ATOM     23  C   UNL     1       0.644   9.302  20.569  0.00  0.00    +0.000 A 
ENDBRANCH  15  23
ENDBRANCH  14  15
ENDBRANCH  13  14
ENDBRANCH   1  13
TORSDOF 5
ENDMDL
MODEL 8
REMARK VINA RESULT:      -6.5      3.220      5.299
REMARK  Name = 
REMARK  5 active torsions:
REMARK  status: ('A' for Active; 'I' for Inactive)
REMARK    1  A    between atoms: C_8  and  C_9
REMARK    2  A    between atoms: C_9  and  C_10
REMARK    3  A    between atoms: C_10  and  O_11
REMARK    4  A    between atoms: O_11  and  C_12
REMARK    5  A    between atoms: C_17  and  N_18
REMARK                            x       y       z     vdW  Elec       q    Type
REMARK                         _______ _______ _______ _____ _____    ______ ____
ROOT
ATOM      1  C   UNL     1       5.169   5.462  16.959  0.00  0.00    +0.000 C 
ATOM      2  C   UNL     1       5.532   4.749  18.275  0.00  0.00    +0.000 C 
ATOM      3  C   UNL     1       6.416   5.615  19.160  0.00  0.00    +0.000 C 
ATOM      4  C   UNL     1       7.683   6.062  18.441  0.00  0.00    +0.000 C 
ATOM      5  C   UNL     1       7.406   6.678  17.074  0.00  0.00    +0.000 C 
ATOM      6  C   UNL     1       6.464   5.855  16.154  0.00  0.00    +0.000 C 
ENDROOT
BRANCH   6   7
ATOM      7  N   UNL     1       7.073   4.775  15.339  0.00  0.00    +0.000 NA
ATOM      8  C   UNL     1       8.058   5.053  14.292  0.00  0.00    +0.000 C 
ATOM      9  C   UNL     1       7.423   5.200  12.902  0.00  0.00    +0.000 C 
ATOM     10  O   UNL     1       6.706   4.014  12.544  0.00  0.00    +0.000 OA
ATOM     11  C   UNL     1       5.682   3.730  13.511  0.00  0.00    +0.000 C 
ATOM     12  C   UNL     1       6.246   3.624  14.944  0.00  0.00    +0.000 C 
ENDBRANCH   6   7
BRANCH   1  13
ATOM     13  O   UNL     1       4.365   6.641  17.238  0.00  0.00    +0.000 OA
BRANCH  13  14
ATOM     14  C   UNL     1       3.520   6.443  18.379  0.00  0.00    +0.000 C 
BRANCH  14  15
ATOM     15  C   UNL     1       2.222   5.709  18.044  0.00  0.00    +0.000 C 
BRANCH  15  23
ATOM     16 CL   UNL     1       1.351   6.342  20.978  0.00  0.00    +0.000 Cl
ATOM     17  C   UNL     1       1.619   4.756  20.339  0.00  0.00    +0.000 A 
ATOM     18  C   UNL     1       1.357   3.681  21.200  0.00  0.00    +0.000 A 
ATOM     19  C   UNL     1       1.503   2.375  20.752  0.00  0.00    +0.000 A 
ATOM     20  C   UNL     1       1.901   2.141  19.440  0.00  0.00    +0.000 A 
ATOM     21  C   UNL     1       2.167   3.211  18.578  0.00  0.00    +0.000 A 
ATOM     22 CL   UNL     1       2.600   2.803  16.951  0.00  0.00    +0.000 Cl
ATOM     23  C   UNL     1       2.038   4.549  19.010  0.00  0.00    +0.000 A 
ENDBRANCH  15  23
ENDBRANCH  14  15
ENDBRANCH  13  14
ENDBRANCH   1  13
TORSDOF 5
ENDMDL
MODEL 9
REMARK VINA RESULT:      -6.5      1.886      3.865
REMARK  Name = 
REMARK  5 active torsions:
REMARK  status: ('A' for Active; 'I' for Inactive)
REMARK    1  A    between atoms: C_8  and  C_9
REMARK    2  A    between atoms: C_9  and  C_10
REMARK    3  A    between atoms: C_10  and  O_11
REMARK    4  A    between atoms: O_11  and  C_12
REMARK    5  A    between atoms: C_17  and  N_18
REMARK                            x       y       z     vdW  Elec       q    Type
REMARK                         _______ _______ _______ _____ _____    ______ ____
ROOT
ATOM      1  C   UNL     1       4.163   5.390  18.073  0.00  0.00    +0.000 C 
ATOM      2  C   UNL     1       5.434   5.536  18.928  0.00  0.00    +0.000 C 
ATOM      3  C   UNL     1       6.690   5.581  18.069  0.00  0.00    +0.000 C 
ATOM      4  C   UNL     1       6.807   4.362  17.162  0.00  0.00    +0.000 C 
ATOM      5  C   UNL     1       5.537   4.089  16.365  0.00  0.00    +0.000 C 
ATOM      6  C   UNL     1       4.222   4.087  17.190  0.00  0.00    +0.000 C 
ENDROOT
BRANCH   6   7
ATOM      7  N   UNL     1       3.845   2.824  17.874  0.00  0.00    +0.000 NA
ATOM      8  C   UNL     1       2.554   2.172  17.643  0.00  0.00    +0.000 C 
ATOM      9  C   UNL     1       1.488   2.581  18.669  0.00  0.00    +0.000 C 
ATOM     10  O   UNL     1       1.919   2.272  19.998  0.00  0.00    +0.000 OA
ATOM     11  C   UNL     1       3.155   2.940  20.299  0.00  0.00    +0.000 C 
ATOM     12  C   UNL     1       4.259   2.615  19.270  0.00  0.00    +0.000 C 
ENDBRANCH   6   7
BRANCH   1  13
ATOM     13  O   UNL     1       3.990   6.565  17.233  0.00  0.00    +0.000 OA
BRANCH  13  14
ATOM     14  C   UNL     1       3.525   7.689  17.993  0.00  0.00    +0.000 C 
BRANCH  14  15
ATOM     15  C   UNL     1       2.002   7.748  18.105  0.00  0.00    +0.000 C 
BRANCH  15  23
ATOM     16 CL   UNL     1       1.435  10.819  17.969  0.00  0.00    +0.000 Cl
ATOM     17  C   UNL     1       1.324   9.848  19.397  0.00  0.00    +0.000 A 
ATOM     18  C   UNL     1       0.881  10.493  20.561  0.00  0.00    +0.000 A 
ATOM     19  C   UNL     1       0.721   9.777  21.739  0.00  0.00    +0.000 A 
ATOM     20  C   UNL     1       0.993   8.413  21.755  0.00  0.00    +0.000 A 
ATOM     21  C   UNL     1       1.440   7.766  20.597  0.00  0.00    +0.000 A 
ATOM     22 CL   UNL     1       1.694   6.057  20.717  0.00  0.00    +0.000 Cl
ATOM     23  C   UNL     1       1.623   8.471  19.388  0.00  0.00    +0.000 A 
ENDBRANCH  15  23
ENDBRANCH  14  15
ENDBRANCH  13  14
ENDBRANCH   1  13
TORSDOF 5
ENDMDL
