MODEL 1
REMARK VINA RESULT:      -7.4      0.000      0.000
REMARK  Name = 
REMARK  8 active torsions:
REMARK  status: ('A' for Active; 'I' for Inactive)
REMARK    1  A    between atoms: C_1  and  C_2
REMARK    2  A    between atoms: C_2  and  C_3
REMARK    3  A    between atoms: C_3  and  O_4
REMARK    4  A    between atoms: O_4  and  C_5
REMARK    5  A    between atoms: C_8  and  C_9
REMARK    6  A    between atoms: C_15  and  C_16
REMARK    7  A    between atoms: C_20  and  C_21
REMARK    8  A    between atoms: N_23  and  C_24
REMARK                            x       y       z     vdW  Elec       q    Type
REMARK                         _______ _______ _______ _____ _____    ______ ____
ROOT
ATOM      1  C   UNL     1       1.805   6.882  20.395  0.00  0.00    +0.000 A 
ATOM      2  C   UNL     1       0.927   7.659  21.166  0.00  0.00    +0.000 A 
ATOM      3  C   UNL     1       0.560   8.945  20.774  0.00  0.00    +0.000 A 
ATOM      4  C   UNL     1       1.059   9.505  19.601  0.00  0.00    +0.000 A 
ATOM      5  C   UNL     1       1.931   8.733  18.819  0.00  0.00    +0.000 A 
ATOM      6  C   UNL     1       2.330   7.433  19.205  0.00  0.00    +0.000 A 
ENDROOT
BRANCH   6   7
ATOM      7  C   UNL     1       3.343   6.756  18.320  0.00  0.00    +0.000 A 
ATOM      8  N   UNL     1       4.516   7.300  18.117  0.00  0.00    +0.000 NA
ATOM      9  C   UNL     1       5.352   6.545  17.359  0.00  0.00    +0.000 A 
ATOM     10  C   UNL     1       5.103   5.312  16.809  0.00  0.00    +0.000 A 
ATOM     11  C   UNL     1       6.296   4.921  16.175  0.00  0.00    +0.000 A 
ATOM     12  C   UNL     1       6.595   3.656  15.464  0.00  0.00    +0.000 C 
ATOM     13  N   UNL     1       7.242   5.870  16.292  0.00  0.00    +0.000 NA
ATOM     14  N   UNL     1       6.640   6.846  17.016  0.00  0.00    +0.000 N 
ATOM     15  C   UNL     1       7.374   8.034  17.373  0.00  0.00    +0.000 C 
ATOM     16  C   UNL     1       3.811   4.727  17.009  0.00  0.00    +0.000 A 
ATOM     17  O   UNL     1       3.461   3.638  16.572  0.00  0.00    +0.000 OA
ATOM     18  N   UNL     1       2.982   5.527  17.773  0.00  0.00    +0.000 N 
ATOM     19  H   UNL     1       2.059   5.151  17.957  0.00  0.00    +0.000 HD
ENDBRANCH   6   7
BRANCH   4  20
ATOM     20  C   UNL     1       0.687  10.861  19.169  0.00  0.00    +0.000 A 
ATOM     21  N   UNL     1       1.540  11.849  18.998  0.00  0.00    +0.000 NA
ATOM     22  C   UNL     1       0.875  12.983  18.575  0.00  0.00    +0.000 A 
ATOM     23  C   UNL     1      -0.491  12.860  18.451  0.00  0.00    +0.000 A 
ATOM     24  S   UNL     1      -0.966  11.276  18.881  0.00  0.00    +0.000 S 
ENDBRANCH   4  20
BRANCH   1  25
ATOM     25  O   UNL     1       2.170   5.602  20.769  0.00  0.00    +0.000 OA
BRANCH  25  26
ATOM     26  C   UNL     1       1.178   4.588  20.553  0.00  0.00    +0.000 C 
BRANCH  26  28
ATOM     27  C   UNL     1       1.033   2.573  19.086  0.00  0.00    +0.000 C 
ATOM     28  C   UNL     1       1.825   3.258  20.193  0.00  0.00    +0.000 C 
ENDBRANCH  26  28
ENDBRANCH  25  26
ENDBRANCH   1  25
TORSDOF 5
ENDMDL
MODEL 2
REMARK VINA RESULT:      -7.2      3.917      8.014
REMARK  Name = 
REMARK  8 active torsions:
REMARK  status: ('A' for Active; 'I' for Inactive)
REMARK    1  A    between atoms: C_1  and  C_2
REMARK    2  A    between atoms: C_2  and  C_3
REMARK    3  A    between atoms: C_3  and  O_4
REMARK    4  A    between atoms: O_4  and  C_5
REMARK    5  A    between atoms: C_8  and  C_9
REMARK    6  A    between atoms: C_15  and  C_16
REMARK    7  A    between atoms: C_20  and  C_21
REMARK    8  A    between atoms: N_23  and  C_24
REMARK                            x       y       z     vdW  Elec       q    Type
REMARK                         _______ _______ _______ _____ _____    ______ ____
ROOT
ATOM      1  C   UNL     1       6.950   5.452  16.323  0.00  0.00    +0.000 A 
ATOM      2  C   UNL     1       7.667   5.499  15.118  0.00  0.00    +0.000 A 
ATOM      3  C   UNL     1       7.201   4.865  13.968  0.00  0.00    +0.000 A 
ATOM      4  C   UNL     1       6.002   4.156  13.979  0.00  0.00    +0.000 A 
ATOM      5  C   UNL     1       5.273   4.110  15.177  0.00  0.00    +0.000 A 
ATOM      6  C   UNL     1       5.735   4.732  16.359  0.00  0.00    +0.000 A 
ENDROOT
BRANCH   6   7
ATOM      7  C   UNL     1       4.899   4.522  17.594  0.00  0.00    +0.000 A 
ATOM      8  N   UNL     1       4.166   5.494  18.073  0.00  0.00    +0.000 NA
ATOM      9  C   UNL     1       3.411   5.140  19.144  0.00  0.00    +0.000 A 
ATOM     10  C   UNL     1       3.336   3.910  19.749  0.00  0.00    +0.000 A 
ATOM     11  C   UNL     1       2.372   4.034  20.765  0.00  0.00    +0.000 A 
ATOM     12  C   UNL     1       1.867   2.997  21.695  0.00  0.00    +0.000 C 
ATOM     13  N   UNL     1       1.882   5.285  20.821  0.00  0.00    +0.000 NA
ATOM     14  N   UNL     1       2.532   5.936  19.824  0.00  0.00    +0.000 N 
ATOM     15  C   UNL     1       2.236   7.321  19.555  0.00  0.00    +0.000 C 
ATOM     16  C   UNL     1       4.158   2.852  19.242  0.00  0.00    +0.000 A 
ATOM     17  O   UNL     1       4.188   1.713  19.690  0.00  0.00    +0.000 OA
ATOM     18  N   UNL     1       4.922   3.249  18.161  0.00  0.00    +0.000 N 
ATOM     19  H   UNL     1       5.511   2.532  17.754  0.00  0.00    +0.000 HD
ENDBRANCH   6   7
BRANCH   4  20
ATOM     20  C   UNL     1       5.490   3.478  12.779  0.00  0.00    +0.000 A 
ATOM     21  N   UNL     1       4.297   3.677  12.262  0.00  0.00    +0.000 NA
ATOM     22  C   UNL     1       4.132   2.899  11.132  0.00  0.00    +0.000 A 
ATOM     23  C   UNL     1       5.197   2.088  10.809  0.00  0.00    +0.000 A 
ATOM     24  S   UNL     1       6.446   2.296  11.955  0.00  0.00    +0.000 S 
ENDBRANCH   4  20
BRANCH   1  25
ATOM     25  O   UNL     1       7.400   6.083  17.467  0.00  0.00    +0.000 OA
BRANCH  25  26
ATOM     26  C   UNL     1       7.305   7.515  17.461  0.00  0.00    +0.000 C 
BRANCH  26  28
ATOM     27  C   UNL     1       8.457   9.636  18.099  0.00  0.00    +0.000 C 
ATOM     28  C   UNL     1       8.366   8.138  18.358  0.00  0.00    +0.000 C 
ENDBRANCH  26  28
ENDBRANCH  25  26
ENDBRANCH   1  25
TORSDOF 5
ENDMDL
MODEL 3
REMARK VINA RESULT:      -6.9      1.476      2.244
REMARK  Name = 
REMARK  8 active torsions:
REMARK  status: ('A' for Active; 'I' for Inactive)
REMARK    1  A    between atoms: C_1  and  C_2
REMARK    2  A    between atoms: C_2  and  C_3
REMARK    3  A    between atoms: C_3  and  O_4
REMARK    4  A    between atoms: O_4  and  C_5
REMARK    5  A    between atoms: C_8  and  C_9
REMARK    6  A    between atoms: C_15  and  C_16
REMARK    7  A    between atoms: C_20  and  C_21
REMARK    8  A    between atoms: N_23  and  C_24
REMARK                            x       y       z     vdW  Elec       q    Type
REMARK                         _______ _______ _______ _____ _____    ______ ____
ROOT
ATOM      1  C   UNL     1       1.699   6.761  20.399  0.00  0.00    +0.000 A 
ATOM      2  C   UNL     1       0.916   7.642  21.160  0.00  0.00    +0.000 A 
ATOM      3  C   UNL     1       0.694   8.956  20.751  0.00  0.00    +0.000 A 
ATOM      4  C   UNL     1       1.251   9.441  19.571  0.00  0.00    +0.000 A 
ATOM      5  C   UNL     1       2.030   8.565  18.798  0.00  0.00    +0.000 A 
ATOM      6  C   UNL     1       2.280   7.233  19.201  0.00  0.00    +0.000 A 
ENDROOT
BRANCH   6   7
ATOM      7  C   UNL     1       3.209   6.435  18.325  0.00  0.00    +0.000 A 
ATOM      8  N   UNL     1       3.201   5.127  18.366  0.00  0.00    +0.000 NA
ATOM      9  C   UNL     1       4.037   4.541  17.472  0.00  0.00    +0.000 A 
ATOM     10  C   UNL     1       4.855   5.158  16.558  0.00  0.00    +0.000 A 
ATOM     11  C   UNL     1       5.465   4.126  15.824  0.00  0.00    +0.000 A 
ATOM     12  C   UNL     1       6.406   4.231  14.683  0.00  0.00    +0.000 C 
ATOM     13  N   UNL     1       5.077   2.917  16.268  0.00  0.00    +0.000 NA
ATOM     14  N   UNL     1       4.209   3.200  17.271  0.00  0.00    +0.000 N 
ATOM     15  C   UNL     1       3.551   2.130  17.978  0.00  0.00    +0.000 C 
ATOM     16  C   UNL     1       4.884   6.590  16.529  0.00  0.00    +0.000 A 
ATOM     17  O   UNL     1       5.568   7.261  15.767  0.00  0.00    +0.000 OA
ATOM     18  N   UNL     1       4.032   7.153  17.460  0.00  0.00    +0.000 N 
ATOM     19  H   UNL     1       4.003   8.166  17.470  0.00  0.00    +0.000 HD
ENDBRANCH   6   7
BRANCH   4  20
ATOM     20  C   UNL     1       1.034  10.824  19.120  0.00  0.00    +0.000 A 
ATOM     21  N   UNL     1       1.986  11.632  18.706  0.00  0.00    +0.000 NA
ATOM     22  C   UNL     1       1.451  12.852  18.340  0.00  0.00    +0.000 A 
ATOM     23  C   UNL     1       0.089  12.975  18.505  0.00  0.00    +0.000 A 
ATOM     24  S   UNL     1      -0.547  11.523  19.141  0.00  0.00    +0.000 S 
ENDBRANCH   4  20
BRANCH   1  25
ATOM     25  O   UNL     1       1.918   5.454  20.791  0.00  0.00    +0.000 OA
BRANCH  25  26
ATOM     26  C   UNL     1       0.866   4.529  20.478  0.00  0.00    +0.000 C 
BRANCH  26  28
ATOM     27  C   UNL     1       2.599   3.104  21.572  0.00  0.00    +0.000 C 
ATOM     28  C   UNL     1       1.263   3.105  20.840  0.00  0.00    +0.000 C 
ENDBRANCH  26  28
ENDBRANCH  25  26
ENDBRANCH   1  25
TORSDOF 5
ENDMDL
MODEL 4
REMARK VINA RESULT:      -6.9      0.936      1.011
REMARK  Name = 
REMARK  8 active torsions:
REMARK  status: ('A' for Active; 'I' for Inactive)
REMARK    1  A    between atoms: C_1  and  C_2
REMARK    2  A    between atoms: C_2  and  C_3
REMARK    3  A    between atoms: C_3  and  O_4
REMARK    4  A    between atoms: O_4  and  C_5
REMARK    5  A    between atoms: C_8  and  C_9
REMARK    6  A    between atoms: C_15  and  C_16
REMARK    7  A    between atoms: C_20  and  C_21
REMARK    8  A    between atoms: N_23  and  C_24
REMARK                            x       y       z     vdW  Elec       q    Type
REMARK                         _______ _______ _______ _____ _____    ______ ____
ROOT
ATOM      1  C   UNL     1       1.904   6.085  20.386  0.00  0.00    +0.000 A 
ATOM      2  C   UNL     1       1.039   6.693  21.309  0.00  0.00    +0.000 A 
ATOM      3  C   UNL     1       0.743   8.053  21.242  0.00  0.00    +0.000 A 
ATOM      4  C   UNL     1       1.303   8.858  20.254  0.00  0.00    +0.000 A 
ATOM      5  C   UNL     1       2.163   8.259  19.321  0.00  0.00    +0.000 A 
ATOM      6  C   UNL     1       2.489   6.884  19.380  0.00  0.00    +0.000 A 
ENDROOT
BRANCH   6   7
ATOM      7  C   UNL     1       3.498   6.395  18.374  0.00  0.00    +0.000 A 
ATOM      8  N   UNL     1       4.626   7.035  18.200  0.00  0.00    +0.000 NA
ATOM      9  C   UNL     1       5.468   6.441  17.317  0.00  0.00    +0.000 A 
ATOM     10  C   UNL     1       5.266   5.277  16.617  0.00  0.00    +0.000 A 
ATOM     11  C   UNL     1       6.448   5.049  15.891  0.00  0.00    +0.000 A 
ATOM     12  C   UNL     1       6.787   3.909  15.006  0.00  0.00    +0.000 C 
ATOM     13  N   UNL     1       7.342   6.032  16.096  0.00  0.00    +0.000 NA
ATOM     14  N   UNL     1       6.719   6.865  16.967  0.00  0.00    +0.000 N 
ATOM     15  C   UNL     1       7.399   8.041  17.451  0.00  0.00    +0.000 C 
ATOM     16  C   UNL     1       4.020   4.589  16.787  0.00  0.00    +0.000 A 
ATOM     17  O   UNL     1       3.714   3.546  16.223  0.00  0.00    +0.000 OA
ATOM     18  N   UNL     1       3.184   5.227  17.683  0.00  0.00    +0.000 N 
ATOM     19  H   UNL     1       2.294   4.773  17.851  0.00  0.00    +0.000 HD
ENDBRANCH   6   7
BRANCH   4  20
ATOM     20  C   UNL     1       1.008  10.296  20.165  0.00  0.00    +0.000 A 
ATOM     21  N   UNL     1       0.893  11.099  21.201  0.00  0.00    +0.000 NA
ATOM     22  C   UNL     1       0.628  12.388  20.777  0.00  0.00    +0.000 A 
ATOM     23  C   UNL     1       0.515  12.553  19.414  0.00  0.00    +0.000 A 
ATOM     24  S   UNL     1       0.742  11.051  18.632  0.00  0.00    +0.000 S 
ENDBRANCH   4  20
BRANCH   1  25
ATOM     25  O   UNL     1       2.198   4.735  20.439  0.00  0.00    +0.000 OA
BRANCH  25  26
ATOM     26  C   UNL     1       1.080   3.867  20.676  0.00  0.00    +0.000 C 
BRANCH  26  28
ATOM     27  C   UNL     1       2.102   2.152  19.178  0.00  0.00    +0.000 C 
ATOM     28  C   UNL     1       0.840   2.947  19.487  0.00  0.00    +0.000 C 
ENDBRANCH  26  28
ENDBRANCH  25  26
ENDBRANCH   1  25
TORSDOF 5
ENDMDL
MODEL 5
REMARK VINA RESULT:      -6.8      2.874      6.914
REMARK  Name = 
REMARK  8 active torsions:
REMARK  status: ('A' for Active; 'I' for Inactive)
REMARK    1  A    between atoms: C_1  and  C_2
REMARK    2  A    between atoms: C_2  and  C_3
REMARK    3  A    between atoms: C_3  and  O_4
REMARK    4  A    between atoms: O_4  and  C_5
REMARK    5  A    between atoms: C_8  and  C_9
REMARK    6  A    between atoms: C_15  and  C_16
REMARK    7  A    between atoms: C_20  and  C_21
REMARK    8  A    between atoms: N_23  and  C_24
REMARK                            x       y       z     vdW  Elec       q    Type
REMARK                         _______ _______ _______ _____ _____    ______ ____
ROOT
ATOM      1  C   UNL     1       3.318   4.929  19.805  0.00  0.00    +0.000 A 
ATOM      2  C   UNL     1       4.057   3.778  19.488  0.00  0.00    +0.000 A 
ATOM      3  C   UNL     1       4.789   3.687  18.306  0.00  0.00    +0.000 A 
ATOM      4  C   UNL     1       4.807   4.738  17.394  0.00  0.00    +0.000 A 
ATOM      5  C   UNL     1       4.078   5.896  17.704  0.00  0.00    +0.000 A 
ATOM      6  C   UNL     1       3.316   6.005  18.890  0.00  0.00    +0.000 A 
ENDROOT
BRANCH   6   7
ATOM      7  C   UNL     1       2.508   7.265  19.050  0.00  0.00    +0.000 A 
ATOM      8  N   UNL     1       1.751   7.440  20.103  0.00  0.00    +0.000 NA
ATOM      9  C   UNL     1       1.139   8.650  20.149  0.00  0.00    +0.000 A 
ATOM     10  C   UNL     1       1.234   9.674  19.240  0.00  0.00    +0.000 A 
ATOM     11  C   UNL     1       0.472  10.733  19.765  0.00  0.00    +0.000 A 
ATOM     12  C   UNL     1       0.270  12.093  19.212  0.00  0.00    +0.000 C 
ATOM     13  N   UNL     1      -0.101  10.388  20.932  0.00  0.00    +0.000 NA
ATOM     14  N   UNL     1       0.321   9.116  21.141  0.00  0.00    +0.000 N 
ATOM     15  C   UNL     1      -0.073   8.413  22.336  0.00  0.00    +0.000 C 
ATOM     16  C   UNL     1       2.042   9.475  18.073  0.00  0.00    +0.000 A 
ATOM     17  O   UNL     1       2.209  10.304  17.188  0.00  0.00    +0.000 OA
ATOM     18  N   UNL     1       2.639   8.229  18.053  0.00  0.00    +0.000 N 
ATOM     19  H   UNL     1       3.235   8.043  17.255  0.00  0.00    +0.000 HD
ENDBRANCH   6   7
BRANCH   4  20
ATOM     20  C   UNL     1       5.571   4.664  16.139  0.00  0.00    +0.000 A 
ATOM     21  N   UNL     1       5.187   3.999  15.071  0.00  0.00    +0.000 NA
ATOM     22  C   UNL     1       6.118   4.142  14.060  0.00  0.00    +0.000 A 
ATOM     23  C   UNL     1       7.225   4.898  14.376  0.00  0.00    +0.000 A 
ATOM     24  S   UNL     1       7.106   5.446  15.989  0.00  0.00    +0.000 S 
ENDBRANCH   4  20
BRANCH   1  25
ATOM     25  O   UNL     1       2.594   5.033  20.978  0.00  0.00    +0.000 OA
BRANCH  25  26
ATOM     26  C   UNL     1       1.714   3.936  21.261  0.00  0.00    +0.000 C 
BRANCH  26  28
ATOM     27  C   UNL     1       0.758   2.503  19.454  0.00  0.00    +0.000 C 
ATOM     28  C   UNL     1       0.624   3.822  20.205  0.00  0.00    +0.000 C 
ENDBRANCH  26  28
ENDBRANCH  25  26
ENDBRANCH   1  25
TORSDOF 5
ENDMDL
MODEL 6
REMARK VINA RESULT:      -6.4      2.769      6.753
REMARK  Name = 
REMARK  8 active torsions:
REMARK  status: ('A' for Active; 'I' for Inactive)
REMARK    1  A    between atoms: C_1  and  C_2
REMARK    2  A    between atoms: C_2  and  C_3
REMARK    3  A    between atoms: C_3  and  O_4
REMARK    4  A    between atoms: O_4  and  C_5
REMARK    5  A    between atoms: C_8  and  C_9
REMARK    6  A    between atoms: C_15  and  C_16
REMARK    7  A    between atoms: C_20  and  C_21
REMARK    8  A    between atoms: N_23  and  C_24
REMARK                            x       y       z     vdW  Elec       q    Type
REMARK                         _______ _______ _______ _____ _____    ______ ____
ROOT
ATOM      1  C   UNL     1       1.932   4.495  18.815  0.00  0.00    +0.000 A 
ATOM      2  C   UNL     1       2.406   3.374  18.116  0.00  0.00    +0.000 A 
ATOM      3  C   UNL     1       3.501   3.461  17.258  0.00  0.00    +0.000 A 
ATOM      4  C   UNL     1       4.160   4.671  17.062  0.00  0.00    +0.000 A 
ATOM      5  C   UNL     1       3.700   5.797  17.762  0.00  0.00    +0.000 A 
ATOM      6  C   UNL     1       2.582   5.734  18.625  0.00  0.00    +0.000 A 
ENDROOT
BRANCH   6   7
ATOM      7  C   UNL     1       2.139   7.037  19.238  0.00  0.00    +0.000 A 
ATOM      8  N   UNL     1       2.262   8.159  18.574  0.00  0.00    +0.000 NA
ATOM      9  C   UNL     1       1.756   9.240  19.219  0.00  0.00    +0.000 A 
ATOM     10  C   UNL     1       1.146   9.275  20.448  0.00  0.00    +0.000 A 
ATOM     11  C   UNL     1       0.740  10.608  20.643  0.00  0.00    +0.000 A 
ATOM     12  C   UNL     1      -0.006  11.192  21.783  0.00  0.00    +0.000 C 
ATOM     13  N   UNL     1       1.101  11.383  19.605  0.00  0.00    +0.000 NA
ATOM     14  N   UNL     1       1.718  10.525  18.755  0.00  0.00    +0.000 N 
ATOM     15  C   UNL     1       2.221  11.001  17.490  0.00  0.00    +0.000 C 
ATOM     16  C   UNL     1       1.033   8.053  21.187  0.00  0.00    +0.000 A 
ATOM     17  O   UNL     1       0.514   7.948  22.291  0.00  0.00    +0.000 OA
ATOM     18  N   UNL     1       1.569   6.976  20.507  0.00  0.00    +0.000 N 
ATOM     19  H   UNL     1       1.501   6.082  20.980  0.00  0.00    +0.000 HD
ENDBRANCH   6   7
BRANCH   4  20
ATOM     20  C   UNL     1       5.316   4.788  16.159  0.00  0.00    +0.000 A 
ATOM     21  N   UNL     1       5.323   4.401  14.902  0.00  0.00    +0.000 NA
ATOM     22  C   UNL     1       6.553   4.663  14.330  0.00  0.00    +0.000 A 
ATOM     23  C   UNL     1       7.490   5.226  15.168  0.00  0.00    +0.000 A 
ATOM     24  S   UNL     1       6.817   5.434  16.724  0.00  0.00    +0.000 S 
ENDBRANCH   4  20
BRANCH   1  25
ATOM     25  O   UNL     1       0.852   4.418  19.674  0.00  0.00    +0.000 OA
BRANCH  25  26
ATOM     26  C   UNL     1       0.870   3.315  20.593  0.00  0.00    +0.000 C 
BRANCH  26  28
ATOM     27  C   UNL     1       2.955   2.331  21.549  0.00  0.00    +0.000 C 
ATOM     28  C   UNL     1       1.967   3.487  21.633  0.00  0.00    +0.000 C 
ENDBRANCH  26  28
ENDBRANCH  25  26
ENDBRANCH   1  25
TORSDOF 5
ENDMDL
MODEL 7
REMARK VINA RESULT:      -6.3      2.461      4.566
REMARK  Name = 
REMARK  8 active torsions:
REMARK  status: ('A' for Active; 'I' for Inactive)
REMARK    1  A    between atoms: C_1  and  C_2
REMARK    2  A    between atoms: C_2  and  C_3
REMARK    3  A    between atoms: C_3  and  O_4
REMARK    4  A    between atoms: O_4  and  C_5
REMARK    5  A    between atoms: C_8  and  C_9
REMARK    6  A    between atoms: C_15  and  C_16
REMARK    7  A    between atoms: C_20  and  C_21
REMARK    8  A    between atoms: N_23  and  C_24
REMARK                            x       y       z     vdW  Elec       q    Type
REMARK                         _______ _______ _______ _____ _____    ______ ____
ROOT
ATOM      1  C   UNL     1       2.456   8.269  17.907  0.00  0.00    +0.000 A 
ATOM      2  C   UNL     1       1.925   9.566  17.837  0.00  0.00    +0.000 A 
ATOM      3  C   UNL     1       1.221  10.123  18.903  0.00  0.00    +0.000 A 
ATOM      4  C   UNL     1       1.016   9.403  20.077  0.00  0.00    +0.000 A 
ATOM      5  C   UNL     1       1.549   8.108  20.161  0.00  0.00    +0.000 A 
ATOM      6  C   UNL     1       2.253   7.518  19.086  0.00  0.00    +0.000 A 
ENDROOT
BRANCH   6   7
ATOM      7  C   UNL     1       2.687   6.089  19.279  0.00  0.00    +0.000 A 
ATOM      8  N   UNL     1       1.831   5.110  19.138  0.00  0.00    +0.000 NA
ATOM      9  C   UNL     1       2.377   3.874  19.268  0.00  0.00    +0.000 A 
ATOM     10  C   UNL     1       3.690   3.559  19.518  0.00  0.00    +0.000 A 
ATOM     11  C   UNL     1       3.763   2.155  19.496  0.00  0.00    +0.000 A 
ATOM     12  C   UNL     1       4.953   1.287  19.661  0.00  0.00    +0.000 C 
ATOM     13  N   UNL     1       2.555   1.608  19.274  0.00  0.00    +0.000 NA
ATOM     14  N   UNL     1       1.731   2.677  19.140  0.00  0.00    +0.000 N 
ATOM     15  C   UNL     1       0.332   2.477  18.856  0.00  0.00    +0.000 C 
ATOM     16  C   UNL     1       4.624   4.630  19.697  0.00  0.00    +0.000 A 
ATOM     17  O   UNL     1       5.818   4.486  19.926  0.00  0.00    +0.000 OA
ATOM     18  N   UNL     1       4.032   5.872  19.570  0.00  0.00    +0.000 N 
ATOM     19  H   UNL     1       4.654   6.666  19.674  0.00  0.00    +0.000 HD
ENDBRANCH   6   7
BRANCH   4  20
ATOM     20  C   UNL     1       0.274   9.969  21.215  0.00  0.00    +0.000 A 
ATOM     21  N   UNL     1      -0.071   9.293  22.289  0.00  0.00    +0.000 NA
ATOM     22  C   UNL     1      -0.742  10.116  23.174  0.00  0.00    +0.000 A 
ATOM     23  C   UNL     1      -0.927  11.414  22.753  0.00  0.00    +0.000 A 
ATOM     24  S   UNL     1      -0.247  11.617  21.200  0.00  0.00    +0.000 S 
ENDBRANCH   4  20
BRANCH   1  25
ATOM     25  O   UNL     1       3.162   7.710  16.859  0.00  0.00    +0.000 OA
BRANCH  25  26
ATOM     26  C   UNL     1       4.591   7.739  16.990  0.00  0.00    +0.000 C 
BRANCH  26  28
ATOM     27  C   UNL     1       6.593   6.250  16.922  0.00  0.00    +0.000 C 
ATOM     28  C   UNL     1       5.227   6.535  16.310  0.00  0.00    +0.000 C 
ENDBRANCH  26  28
ENDBRANCH  25  26
ENDBRANCH   1  25
TORSDOF 5
ENDMDL
MODEL 8
REMARK VINA RESULT:      -6.2      3.832      8.483
REMARK  Name = 
REMARK  8 active torsions:
REMARK  status: ('A' for Active; 'I' for Inactive)
REMARK    1  A    between atoms: C_1  and  C_2
REMARK    2  A    between atoms: C_2  and  C_3
REMARK    3  A    between atoms: C_3  and  O_4
REMARK    4  A    between atoms: O_4  and  C_5
REMARK    5  A    between atoms: C_8  and  C_9
REMARK    6  A    between atoms: C_15  and  C_16
REMARK    7  A    between atoms: C_20  and  C_21
REMARK    8  A    between atoms: N_23  and  C_24
REMARK                            x       y       z     vdW  Elec       q    Type
REMARK                         _______ _______ _______ _____ _____    ______ ____
ROOT
ATOM      1  C   UNL     1       2.119   8.817  18.137  0.00  0.00    +0.000 A 
ATOM      2  C   UNL     1       2.955   7.854  17.553  0.00  0.00    +0.000 A 
ATOM      3  C   UNL     1       3.156   6.609  18.146  0.00  0.00    +0.000 A 
ATOM      4  C   UNL     1       2.534   6.281  19.347  0.00  0.00    +0.000 A 
ATOM      5  C   UNL     1       1.689   7.234  19.936  0.00  0.00    +0.000 A 
ATOM      6  C   UNL     1       1.483   8.508  19.360  0.00  0.00    +0.000 A 
ENDROOT
BRANCH   6   7
ATOM      7  C   UNL     1       0.627   9.465  20.148  0.00  0.00    +0.000 A 
ATOM      8  N   UNL     1      -0.217  10.257  19.538  0.00  0.00    +0.000 NA
ATOM      9  C   UNL     1      -0.972  11.011  20.376  0.00  0.00    +0.000 A 
ATOM     10  C   UNL     1      -0.946  11.022  21.749  0.00  0.00    +0.000 A 
ATOM     11  C   UNL     1      -1.955  11.916  22.151  0.00  0.00    +0.000 A 
ATOM     12  C   UNL     1      -2.387  12.269  23.523  0.00  0.00    +0.000 C 
ATOM     13  N   UNL     1      -2.569  12.465  21.088  0.00  0.00    +0.000 NA
ATOM     14  N   UNL     1      -1.951  11.897  20.023  0.00  0.00    +0.000 N 
ATOM     15  C   UNL     1      -2.374  12.227  18.684  0.00  0.00    +0.000 C 
ATOM     16  C   UNL     1      -0.004  10.174  22.418  0.00  0.00    +0.000 A 
ATOM     17  O   UNL     1       0.123  10.091  23.633  0.00  0.00    +0.000 OA
ATOM     18  N   UNL     1       0.756   9.431  21.534  0.00  0.00    +0.000 N 
ATOM     19  H   UNL     1       1.428   8.802  21.957  0.00  0.00    +0.000 HD
ENDBRANCH   6   7
BRANCH   4  20
ATOM     20  C   UNL     1       2.732   4.974  19.993  0.00  0.00    +0.000 A 
ATOM     21  N   UNL     1       2.090   4.568  21.067  0.00  0.00    +0.000 NA
ATOM     22  C   UNL     1       2.494   3.292  21.409  0.00  0.00    +0.000 A 
ATOM     23  C   UNL     1       3.467   2.742  20.605  0.00  0.00    +0.000 A 
ATOM     24  S   UNL     1       3.898   3.853  19.382  0.00  0.00    +0.000 S 
ENDBRANCH   4  20
BRANCH   1  25
ATOM     25  O   UNL     1       1.906  10.052  17.554  0.00  0.00    +0.000 OA
BRANCH  25  26
ATOM     26  C   UNL     1       2.832  11.082  17.931  0.00  0.00    +0.000 C 
BRANCH  26  28
ATOM     27  C   UNL     1       3.085  13.539  18.290  0.00  0.00    +0.000 C 
ATOM     28  C   UNL     1       2.104  12.373  18.276  0.00  0.00    +0.000 C 
ENDBRANCH  26  28
ENDBRANCH  25  26
ENDBRANCH   1  25
TORSDOF 5
ENDMDL
MODEL 9
REMARK VINA RESULT:      -6.2      2.809      6.710
REMARK  Name = 
REMARK  8 active torsions:
REMARK  status: ('A' for Active; 'I' for Inactive)
REMARK    1  A    between atoms: C_1  and  C_2
REMARK    2  A    between atoms: C_2  and  C_3
REMARK    3  A    between atoms: C_3  and  O_4
REMARK    4  A    between atoms: O_4  and  C_5
REMARK    5  A    between atoms: C_8  and  C_9
REMARK    6  A    between atoms: C_15  and  C_16
REMARK    7  A    between atoms: C_20  and  C_21
REMARK    8  A    between atoms: N_23  and  C_24
REMARK                            x       y       z     vdW  Elec       q    Type
REMARK                         _______ _______ _______ _____ _____    ______ ____
ROOT
ATOM      1  C   UNL     1       3.157   4.539  20.016  0.00  0.00    +0.000 A 
ATOM      2  C   UNL     1       3.852   3.418  19.537  0.00  0.00    +0.000 A 
ATOM      3  C   UNL     1       4.606   3.475  18.367  0.00  0.00    +0.000 A 
ATOM      4  C   UNL     1       4.690   4.652  17.627  0.00  0.00    +0.000 A 
ATOM      5  C   UNL     1       4.006   5.781  18.101  0.00  0.00    +0.000 A 
ATOM      6  C   UNL     1       3.222   5.742  19.278  0.00  0.00    +0.000 A 
ENDROOT
BRANCH   6   7
ATOM      7  C   UNL     1       2.466   6.999  19.617  0.00  0.00    +0.000 A 
ATOM      8  N   UNL     1       2.558   8.056  18.852  0.00  0.00    +0.000 NA
ATOM      9  C   UNL     1       1.767   9.089  19.239  0.00  0.00    +0.000 A 
ATOM     10  C   UNL     1       0.908   9.133  20.308  0.00  0.00    +0.000 A 
ATOM     11  C   UNL     1       0.273  10.386  20.245  0.00  0.00    +0.000 A 
ATOM     12  C   UNL     1      -0.781  10.936  21.130  0.00  0.00    +0.000 C 
ATOM     13  N   UNL     1       0.728  11.111  19.208  0.00  0.00    +0.000 NA
ATOM     14  N   UNL     1       1.636  10.297  18.614  0.00  0.00    +0.000 N 
ATOM     15  C   UNL     1       2.322  10.732  17.423  0.00  0.00    +0.000 C 
ATOM     16  C   UNL     1       0.825   7.986  21.162  0.00  0.00    +0.000 A 
ATOM     17  O   UNL     1       0.102   7.896  22.146  0.00  0.00    +0.000 OA
ATOM     18  N   UNL     1       1.651   6.959  20.746  0.00  0.00    +0.000 N 
ATOM     19  H   UNL     1       1.619   6.116  21.308  0.00  0.00    +0.000 HD
ENDBRANCH   6   7
BRANCH   4  20
ATOM     20  C   UNL     1       5.478   4.735  16.388  0.00  0.00    +0.000 A 
ATOM     21  N   UNL     1       5.120   4.202  15.240  0.00  0.00    +0.000 NA
ATOM     22  C   UNL     1       6.069   4.473  14.272  0.00  0.00    +0.000 A 
ATOM     23  C   UNL     1       7.163   5.192  14.699  0.00  0.00    +0.000 A 
ATOM     24  S   UNL     1       7.008   5.540  16.364  0.00  0.00    +0.000 S 
ENDBRANCH   4  20
BRANCH   1  25
ATOM     25  O   UNL     1       2.412   4.496  21.179  0.00  0.00    +0.000 OA
BRANCH  25  26
ATOM     26  C   UNL     1       1.459   3.426  21.264  0.00  0.00    +0.000 C 
BRANCH  26  28
ATOM     27  C   UNL     1       0.623   2.362  19.168  0.00  0.00    +0.000 C 
ATOM     28  C   UNL     1       0.434   3.516  20.143  0.00  0.00    +0.000 C 
ENDBRANCH  26  28
ENDBRANCH  25  26
ENDBRANCH   1  25
TORSDOF 5
ENDMDL
