MODEL 1
REMARK VINA RESULT:      -7.5      0.000      0.000
REMARK  Name = 
REMARK  3 active torsions:
REMARK  status: ('A' for Active; 'I' for Inactive)
REMARK    1  A    between atoms: C_1  and  N_2
REMARK    2  A    between atoms: N_2  and  C_3
REMARK    3  A    between atoms: C_4  and  C_6
REMARK                            x       y       z     vdW  Elec       q    Type
REMARK                         _______ _______ _______ _____ _____    ______ ____
ROOT
ATOM      1  C   UNL     1       3.394   4.447  19.538  0.00  0.00    +0.000 A 
ATOM      2  C   UNL     1       2.370   4.732  20.427  0.00  0.00    +0.000 A 
ATOM      3  C   UNL     1       1.827   6.013  20.463  0.00  0.00    +0.000 A 
ATOM      4  C   UNL     1       2.347   7.020  19.648  0.00  0.00    +0.000 A 
ATOM      5  N   UNL     1       1.753   8.266  19.642  0.00  0.00    +0.000 N 
ATOM      6  C   UNL     1       1.941   9.139  18.492  0.00  0.00    +0.000 C 
ATOM      7  C   UNL     1       0.570   9.741  18.157  0.00  0.00    +0.000 C 
ATOM      8  C   UNL     1      -0.089  10.470  19.365  0.00  0.00    +0.000 C 
ATOM      9  C   UNL     1       0.679  11.763  19.746  0.00  0.00    +0.000 C 
ATOM     10  C   UNL     1       0.622  12.830  18.656  0.00  0.00    +0.000 C 
ATOM     11  C   UNL     1      -0.815  13.166  18.277  0.00  0.00    +0.000 C 
ATOM     12  C   UNL     1      -1.639  11.933  17.933  0.00  0.00    +0.000 C 
ATOM     13  C   UNL     1      -1.547  10.859  19.016  0.00  0.00    +0.000 C 
ATOM     14  C   UNL     1      -0.109   9.495  20.571  0.00  0.00    +0.000 C 
ATOM     15  C   UNL     1       1.269   8.898  20.860  0.00  0.00    +0.000 C 
ATOM     16  N   UNL     1       3.377   6.770  18.815  0.00  0.00    +0.000 NA
ATOM     17  C   UNL     1       3.891   5.503  18.786  0.00  0.00    +0.000 A 
ENDROOT
BRANCH   1  21
ATOM     18  C   UNL     1       4.008   0.813  18.605  0.00  0.00    +0.000 C 
ATOM     19  N   UNL     1       3.379   2.121  18.627  0.00  0.00    +0.000 N 
ATOM     20  C   UNL     1       2.294   2.345  17.676  0.00  0.00    +0.000 C 
ATOM     21  C   UNL     1       4.003   3.107  19.398  0.00  0.00    +0.000 C 
ATOM     22  O   UNL     1       5.066   2.909  19.986  0.00  0.00    +0.000 OA
ENDBRANCH   1  21
TORSDOF 1
ENDMDL
MODEL 2
REMARK VINA RESULT:      -7.5      2.820      8.315
REMARK  Name = 
REMARK  3 active torsions:
REMARK  status: ('A' for Active; 'I' for Inactive)
REMARK    1  A    between atoms: C_1  and  N_2
REMARK    2  A    between atoms: N_2  and  C_3
REMARK    3  A    between atoms: C_4  and  C_6
REMARK                            x       y       z     vdW  Elec       q    Type
REMARK                         _______ _______ _______ _____ _____    ______ ____
ROOT
ATOM      1  C   UNL     1       0.546  10.569  19.490  0.00  0.00    +0.000 A 
ATOM      2  C   UNL     1       1.161  10.260  18.287  0.00  0.00    +0.000 A 
ATOM      3  C   UNL     1       1.830   9.048  18.149  0.00  0.00    +0.000 A 
ATOM      4  C   UNL     1       1.928   8.171  19.230  0.00  0.00    +0.000 A 
ATOM      5  N   UNL     1       2.532   6.942  19.059  0.00  0.00    +0.000 N 
ATOM      6  C   UNL     1       2.216   5.859  19.979  0.00  0.00    +0.000 C 
ATOM      7  C   UNL     1       2.003   4.597  19.131  0.00  0.00    +0.000 C 
ATOM      8  C   UNL     1       3.213   4.271  18.208  0.00  0.00    +0.000 C 
ATOM      9  C   UNL     1       4.457   3.830  19.024  0.00  0.00    +0.000 C 
ATOM     10  C   UNL     1       4.247   2.510  19.759  0.00  0.00    +0.000 C 
ATOM     11  C   UNL     1       3.826   1.398  18.805  0.00  0.00    +0.000 C 
ATOM     12  C   UNL     1       2.633   1.783  17.941  0.00  0.00    +0.000 C 
ATOM     13  C   UNL     1       2.842   3.123  17.236  0.00  0.00    +0.000 C 
ATOM     14  C   UNL     1       3.550   5.536  17.377  0.00  0.00    +0.000 C 
ATOM     15  C   UNL     1       3.732   6.776  18.254  0.00  0.00    +0.000 C 
ATOM     16  N   UNL     1       1.378   8.482  20.422  0.00  0.00    +0.000 NA
ATOM     17  C   UNL     1       0.716   9.672  20.536  0.00  0.00    +0.000 A 
ENDROOT
BRANCH   1  21
ATOM     18  C   UNL     1      -0.458  14.084  20.534  0.00  0.00    +0.000 C 
ATOM     19  N   UNL     1       0.391  12.934  20.280  0.00  0.00    +0.000 N 
ATOM     20  C   UNL     1       1.829  13.132  20.427  0.00  0.00    +0.000 C 
ATOM     21  C   UNL     1      -0.223  11.812  19.716  0.00  0.00    +0.000 C 
ATOM     22  O   UNL     1      -1.410  11.805  19.387  0.00  0.00    +0.000 OA
ENDBRANCH   1  21
TORSDOF 1
ENDMDL
MODEL 3
REMARK VINA RESULT:      -7.5      2.789      8.166
REMARK  Name = 
REMARK  3 active torsions:
REMARK  status: ('A' for Active; 'I' for Inactive)
REMARK    1  A    between atoms: C_1  and  N_2
REMARK    2  A    between atoms: N_2  and  C_3
REMARK    3  A    between atoms: C_4  and  C_6
REMARK                            x       y       z     vdW  Elec       q    Type
REMARK                         _______ _______ _______ _____ _____    ______ ____
ROOT
ATOM      1  C   UNL     1       0.468  10.444  20.391  0.00  0.00    +0.000 A 
ATOM      2  C   UNL     1       1.033  10.265  19.138  0.00  0.00    +0.000 A 
ATOM      3  C   UNL     1       1.686   9.073  18.842  0.00  0.00    +0.000 A 
ATOM      4  C   UNL     1       1.818   8.083  19.817  0.00  0.00    +0.000 A 
ATOM      5  N   UNL     1       2.404   6.877  19.489  0.00  0.00    +0.000 N 
ATOM      6  C   UNL     1       2.114   5.701  20.297  0.00  0.00    +0.000 C 
ATOM      7  C   UNL     1       1.857   4.541  19.326  0.00  0.00    +0.000 C 
ATOM      8  C   UNL     1       3.028   4.311  18.325  0.00  0.00    +0.000 C 
ATOM      9  C   UNL     1       4.298   3.778  19.039  0.00  0.00    +0.000 C 
ATOM     10  C   UNL     1       4.105   2.387  19.633  0.00  0.00    +0.000 C 
ATOM     11  C   UNL     1       3.637   1.388  18.582  0.00  0.00    +0.000 C 
ATOM     12  C   UNL     1       2.415   1.871  17.812  0.00  0.00    +0.000 C 
ATOM     13  C   UNL     1       2.608   3.279  17.250  0.00  0.00    +0.000 C 
ATOM     14  C   UNL     1       3.343   5.658  17.625  0.00  0.00    +0.000 C 
ATOM     15  C   UNL     1       3.570   6.794  18.624  0.00  0.00    +0.000 C 
ATOM     16  N   UNL     1       1.317   8.264  21.056  0.00  0.00    +0.000 NA
ATOM     17  C   UNL     1       0.671   9.438  21.326  0.00  0.00    +0.000 A 
ENDROOT
BRANCH   1  21
ATOM     18  C   UNL     1      -1.978  13.354  20.421  0.00  0.00    +0.000 C 
ATOM     19  N   UNL     1      -1.348  12.115  20.002  0.00  0.00    +0.000 N 
ATOM     20  C   UNL     1      -2.022  11.356  18.954  0.00  0.00    +0.000 C 
ATOM     21  C   UNL     1      -0.281  11.658  20.782  0.00  0.00    +0.000 C 
ATOM     22  O   UNL     1       0.079  12.233  21.809  0.00  0.00    +0.000 OA
ENDBRANCH   1  21
TORSDOF 1
ENDMDL
MODEL 4
REMARK VINA RESULT:      -7.5      3.165      8.234
REMARK  Name = 
REMARK  3 active torsions:
REMARK  status: ('A' for Active; 'I' for Inactive)
REMARK    1  A    between atoms: C_1  and  N_2
REMARK    2  A    between atoms: N_2  and  C_3
REMARK    3  A    between atoms: C_4  and  C_6
REMARK                            x       y       z     vdW  Elec       q    Type
REMARK                         _______ _______ _______ _____ _____    ______ ____
ROOT
ATOM      1  C   UNL     1      -0.061  10.485  21.765  0.00  0.00    +0.000 A 
ATOM      2  C   UNL     1       0.049  10.419  20.385  0.00  0.00    +0.000 A 
ATOM      3  C   UNL     1       0.721   9.351  19.799  0.00  0.00    +0.000 A 
ATOM      4  C   UNL     1       1.328   8.379  20.597  0.00  0.00    +0.000 A 
ATOM      5  N   UNL     1       1.929   7.288  20.003  0.00  0.00    +0.000 N 
ATOM      6  C   UNL     1       2.113   6.067  20.777  0.00  0.00    +0.000 C 
ATOM      7  C   UNL     1       1.702   4.897  19.873  0.00  0.00    +0.000 C 
ATOM      8  C   UNL     1       2.469   4.873  18.518  0.00  0.00    +0.000 C 
ATOM      9  C   UNL     1       3.971   4.539  18.712  0.00  0.00    +0.000 C 
ATOM     10  C   UNL     1       4.201   3.125  19.237  0.00  0.00    +0.000 C 
ATOM     11  C   UNL     1       3.544   2.081  18.342  0.00  0.00    +0.000 C 
ATOM     12  C   UNL     1       2.073   2.375  18.075  0.00  0.00    +0.000 C 
ATOM     13  C   UNL     1       1.852   3.804  17.581  0.00  0.00    +0.000 C 
ATOM     14  C   UNL     1       2.321   6.264  17.849  0.00  0.00    +0.000 C 
ATOM     15  C   UNL     1       2.718   7.406  18.787  0.00  0.00    +0.000 C 
ATOM     16  N   UNL     1       1.271   8.457  21.942  0.00  0.00    +0.000 NA
ATOM     17  C   UNL     1       0.599   9.508  22.500  0.00  0.00    +0.000 A 
ENDROOT
BRANCH   1  21
ATOM     18  C   UNL     1      -1.118  13.867  23.143  0.00  0.00    +0.000 C 
ATOM     19  N   UNL     1      -0.388  12.890  22.354  0.00  0.00    +0.000 N 
ATOM     20  C   UNL     1       0.539  13.412  21.355  0.00  0.00    +0.000 C 
ATOM     21  C   UNL     1      -0.792  11.557  22.474  0.00  0.00    +0.000 C 
ATOM     22  O   UNL     1      -1.757  11.219  23.160  0.00  0.00    +0.000 OA
ENDBRANCH   1  21
TORSDOF 1
ENDMDL
MODEL 5
REMARK VINA RESULT:      -7.4      3.118      7.917
REMARK  Name = 
REMARK  3 active torsions:
REMARK  status: ('A' for Active; 'I' for Inactive)
REMARK    1  A    between atoms: C_1  and  N_2
REMARK    2  A    between atoms: N_2  and  C_3
REMARK    3  A    between atoms: C_4  and  C_6
REMARK                            x       y       z     vdW  Elec       q    Type
REMARK                         _______ _______ _______ _____ _____    ______ ____
ROOT
ATOM      1  C   UNL     1       0.660   9.648  20.740  0.00  0.00    +0.000 A 
ATOM      2  C   UNL     1       0.946   8.416  21.307  0.00  0.00    +0.000 A 
ATOM      3  C   UNL     1       1.673   7.478  20.581  0.00  0.00    +0.000 A 
ATOM      4  C   UNL     1       2.066   7.754  19.270  0.00  0.00    +0.000 A 
ATOM      5  N   UNL     1       2.847   6.844  18.587  0.00  0.00    +0.000 N 
ATOM      6  C   UNL     1       3.656   7.300  17.465  0.00  0.00    +0.000 C 
ATOM      7  C   UNL     1       5.039   6.653  17.616  0.00  0.00    +0.000 C 
ATOM      8  C   UNL     1       4.979   5.101  17.724  0.00  0.00    +0.000 C 
ATOM      9  C   UNL     1       4.529   4.449  16.390  0.00  0.00    +0.000 C 
ATOM     10  C   UNL     1       5.534   4.655  15.260  0.00  0.00    +0.000 C 
ATOM     11  C   UNL     1       6.920   4.154  15.646  0.00  0.00    +0.000 C 
ATOM     12  C   UNL     1       7.405   4.725  16.972  0.00  0.00    +0.000 C 
ATOM     13  C   UNL     1       6.377   4.542  18.088  0.00  0.00    +0.000 C 
ATOM     14  C   UNL     1       3.985   4.728  18.853  0.00  0.00    +0.000 C 
ATOM     15  C   UNL     1       2.626   5.410  18.682  0.00  0.00    +0.000 C 
ATOM     16  N   UNL     1       1.751   8.929  18.688  0.00  0.00    +0.000 NA
ATOM     17  C   UNL     1       1.044   9.842  19.420  0.00  0.00    +0.000 A 
ENDROOT
BRANCH   1  21
ATOM     18  C   UNL     1      -1.614  12.590  21.530  0.00  0.00    +0.000 C 
ATOM     19  N   UNL     1      -1.002  11.514  20.774  0.00  0.00    +0.000 N 
ATOM     20  C   UNL     1      -1.575  11.221  19.463  0.00  0.00    +0.000 C 
ATOM     21  C   UNL     1      -0.068  10.722  21.450  0.00  0.00    +0.000 C 
ATOM     22  O   UNL     1       0.186  10.878  22.644  0.00  0.00    +0.000 OA
ENDBRANCH   1  21
TORSDOF 1
ENDMDL
MODEL 6
REMARK VINA RESULT:      -7.3      3.215      8.093
REMARK  Name = 
REMARK  3 active torsions:
REMARK  status: ('A' for Active; 'I' for Inactive)
REMARK    1  A    between atoms: C_1  and  N_2
REMARK    2  A    between atoms: N_2  and  C_3
REMARK    3  A    between atoms: C_4  and  C_6
REMARK                            x       y       z     vdW  Elec       q    Type
REMARK                         _______ _______ _______ _____ _____    ______ ____
ROOT
ATOM      1  C   UNL     1       0.545  10.230  20.461  0.00  0.00    +0.000 A 
ATOM      2  C   UNL     1       0.946   9.151  21.232  0.00  0.00    +0.000 A 
ATOM      3  C   UNL     1       1.661   8.113  20.643  0.00  0.00    +0.000 A 
ATOM      4  C   UNL     1       1.929   8.132  19.273  0.00  0.00    +0.000 A 
ATOM      5  N   UNL     1       2.700   7.133  18.715  0.00  0.00    +0.000 N 
ATOM      6  C   UNL     1       3.386   7.383  17.454  0.00  0.00    +0.000 C 
ATOM      7  C   UNL     1       4.811   6.833  17.603  0.00  0.00    +0.000 C 
ATOM      8  C   UNL     1       4.847   5.334  18.022  0.00  0.00    +0.000 C 
ATOM      9  C   UNL     1       4.325   4.408  16.892  0.00  0.00    +0.000 C 
ATOM     10  C   UNL     1       5.220   4.418  15.656  0.00  0.00    +0.000 C 
ATOM     11  C   UNL     1       6.659   4.060  16.003  0.00  0.00    +0.000 C 
ATOM     12  C   UNL     1       7.220   4.906  17.139  0.00  0.00    +0.000 C 
ATOM     13  C   UNL     1       6.299   4.914  18.359  0.00  0.00    +0.000 C 
ATOM     14  C   UNL     1       3.972   5.160  19.290  0.00  0.00    +0.000 C 
ATOM     15  C   UNL     1       2.568   5.740  19.113  0.00  0.00    +0.000 C 
ATOM     16  N   UNL     1       1.501   9.152  18.501  0.00  0.00    +0.000 NA
ATOM     17  C   UNL     1       0.808  10.167  19.098  0.00  0.00    +0.000 A 
ENDROOT
BRANCH   1  21
ATOM     18  C   UNL     1      -0.284  13.669  21.855  0.00  0.00    +0.000 C 
ATOM     19  N   UNL     1       0.490  12.600  21.250  0.00  0.00    +0.000 N 
ATOM     20  C   UNL     1       1.817  12.950  20.751  0.00  0.00    +0.000 C 
ATOM     21  C   UNL     1      -0.180  11.397  21.007  0.00  0.00    +0.000 C 
ATOM     22  O   UNL     1      -1.382  11.256  21.232  0.00  0.00    +0.000 OA
ENDBRANCH   1  21
TORSDOF 1
ENDMDL
MODEL 7
REMARK VINA RESULT:      -7.3      3.306      7.924
REMARK  Name = 
REMARK  3 active torsions:
REMARK  status: ('A' for Active; 'I' for Inactive)
REMARK    1  A    between atoms: C_1  and  N_2
REMARK    2  A    between atoms: N_2  and  C_3
REMARK    3  A    between atoms: C_4  and  C_6
REMARK                            x       y       z     vdW  Elec       q    Type
REMARK                         _______ _______ _______ _____ _____    ______ ____
ROOT
ATOM      1  C   UNL     1       0.683   9.766  20.536  0.00  0.00    +0.000 A 
ATOM      2  C   UNL     1       1.029   8.594  21.188  0.00  0.00    +0.000 A 
ATOM      3  C   UNL     1       1.752   7.617  20.510  0.00  0.00    +0.000 A 
ATOM      4  C   UNL     1       2.082   7.793  19.165  0.00  0.00    +0.000 A 
ATOM      5  N   UNL     1       2.860   6.850  18.526  0.00  0.00    +0.000 N 
ATOM      6  C   UNL     1       3.607   7.232  17.335  0.00  0.00    +0.000 C 
ATOM      7  C   UNL     1       5.014   6.636  17.477  0.00  0.00    +0.000 C 
ATOM      8  C   UNL     1       5.004   5.097  17.715  0.00  0.00    +0.000 C 
ATOM      9  C   UNL     1       4.518   4.325  16.461  0.00  0.00    +0.000 C 
ATOM     10  C   UNL     1       5.468   4.461  15.274  0.00  0.00    +0.000 C 
ATOM     11  C   UNL     1       6.884   4.031  15.638  0.00  0.00    +0.000 C 
ATOM     12  C   UNL     1       7.407   4.723  16.890  0.00  0.00    +0.000 C 
ATOM     13  C   UNL     1       6.432   4.607  18.061  0.00  0.00    +0.000 C 
ATOM     14  C   UNL     1       4.070   4.794  18.914  0.00  0.00    +0.000 C 
ATOM     15  C   UNL     1       2.686   5.423  18.748  0.00  0.00    +0.000 C 
ATOM     16  N   UNL     1       1.708   8.907  18.504  0.00  0.00    +0.000 NA
ATOM     17  C   UNL     1       1.006   9.860  19.188  0.00  0.00    +0.000 A 
ENDROOT
BRANCH   1  21
ATOM     18  C   UNL     1      -1.370  11.826  22.984  0.00  0.00    +0.000 C 
ATOM     19  N   UNL     1      -0.611  10.708  22.454  0.00  0.00    +0.000 N 
ATOM     20  C   UNL     1      -0.323   9.612  23.375  0.00  0.00    +0.000 C 
ATOM     21  C   UNL     1      -0.046  10.876  21.186  0.00  0.00    +0.000 C 
ATOM     22  O   UNL     1      -0.127  11.936  20.564  0.00  0.00    +0.000 OA
ENDBRANCH   1  21
TORSDOF 1
ENDMDL
MODEL 8
REMARK VINA RESULT:      -6.8      3.030      8.174
REMARK  Name = 
REMARK  3 active torsions:
REMARK  status: ('A' for Active; 'I' for Inactive)
REMARK    1  A    between atoms: C_1  and  N_2
REMARK    2  A    between atoms: N_2  and  C_3
REMARK    3  A    between atoms: C_4  and  C_6
REMARK                            x       y       z     vdW  Elec       q    Type
REMARK                         _______ _______ _______ _____ _____    ______ ____
ROOT
ATOM      1  C   UNL     1       0.452  10.489  20.600  0.00  0.00    +0.000 A 
ATOM      2  C   UNL     1       0.879  10.300  19.295  0.00  0.00    +0.000 A 
ATOM      3  C   UNL     1       1.522   9.116  18.947  0.00  0.00    +0.000 A 
ATOM      4  C   UNL     1       1.785   8.147  19.917  0.00  0.00    +0.000 A 
ATOM      5  N   UNL     1       2.359   6.949  19.544  0.00  0.00    +0.000 N 
ATOM      6  C   UNL     1       2.187   5.781  20.398  0.00  0.00    +0.000 C 
ATOM      7  C   UNL     1       1.851   4.599  19.480  0.00  0.00    +0.000 C 
ATOM      8  C   UNL     1       2.909   4.376  18.359  0.00  0.00    +0.000 C 
ATOM      9  C   UNL     1       4.262   3.883  18.936  0.00  0.00    +0.000 C 
ATOM     10  C   UNL     1       4.169   2.499  19.570  0.00  0.00    +0.000 C 
ATOM     11  C   UNL     1       3.611   1.471  18.593  0.00  0.00    +0.000 C 
ATOM     12  C   UNL     1       2.300   1.914  17.956  0.00  0.00    +0.000 C 
ATOM     13  C   UNL     1       2.397   3.315  17.353  0.00  0.00    +0.000 C 
ATOM     14  C   UNL     1       3.114   5.716  17.607  0.00  0.00    +0.000 C 
ATOM     15  C   UNL     1       3.424   6.875  18.557  0.00  0.00    +0.000 C 
ATOM     16  N   UNL     1       1.419   8.340  21.201  0.00  0.00    +0.000 NA
ATOM     17  C   UNL     1       0.780   9.504  21.522  0.00  0.00    +0.000 A 
ENDROOT
BRANCH   1  21
ATOM     18  C   UNL     1      -1.837  12.851  22.506  0.00  0.00    +0.000 C 
ATOM     19  N   UNL     1      -1.104  11.642  22.179  0.00  0.00    +0.000 N 
ATOM     20  C   UNL     1      -1.124  10.571  23.170  0.00  0.00    +0.000 C 
ATOM     21  C   UNL     1      -0.277  11.694  21.052  0.00  0.00    +0.000 C 
ATOM     22  O   UNL     1      -0.120  12.724  20.396  0.00  0.00    +0.000 OA
ENDBRANCH   1  21
TORSDOF 1
ENDMDL
MODEL 9
REMARK VINA RESULT:      -6.6      2.641      3.811
REMARK  Name = 
REMARK  3 active torsions:
REMARK  status: ('A' for Active; 'I' for Inactive)
REMARK    1  A    between atoms: C_1  and  N_2
REMARK    2  A    between atoms: N_2  and  C_3
REMARK    3  A    between atoms: C_4  and  C_6
REMARK                            x       y       z     vdW  Elec       q    Type
REMARK                         _______ _______ _______ _____ _____    ______ ____
ROOT
ATOM      1  C   UNL     1       2.699   7.408  18.383  0.00  0.00    +0.000 A 
ATOM      2  C   UNL     1       2.129   8.399  17.599  0.00  0.00    +0.000 A 
ATOM      3  C   UNL     1       1.270   9.326  18.180  0.00  0.00    +0.000 A 
ATOM      4  C   UNL     1       0.941   9.229  19.533  0.00  0.00    +0.000 A 
ATOM      5  N   UNL     1       0.145  10.197  20.113  0.00  0.00    +0.000 N 
ATOM      6  C   UNL     1       0.199  10.394  21.555  0.00  0.00    +0.000 C 
ATOM      7  C   UNL     1       0.250  11.908  21.799  0.00  0.00    +0.000 C 
ATOM      8  C   UNL     1      -0.928  12.674  21.130  0.00  0.00    +0.000 C 
ATOM      9  C   UNL     1      -2.286  12.346  21.804  0.00  0.00    +0.000 C 
ATOM     10  C   UNL     1      -2.364  12.832  23.248  0.00  0.00    +0.000 C 
ATOM     11  C   UNL     1      -2.076  14.325  23.353  0.00  0.00    +0.000 C 
ATOM     12  C   UNL     1      -0.774  14.723  22.671  0.00  0.00    +0.000 C 
ATOM     13  C   UNL     1      -0.693  14.202  21.236  0.00  0.00    +0.000 C 
ATOM     14  C   UNL     1      -0.977  12.282  19.630  0.00  0.00    +0.000 C 
ATOM     15  C   UNL     1      -1.003  10.767  19.426  0.00  0.00    +0.000 C 
ATOM     16  N   UNL     1       1.449   8.240  20.297  0.00  0.00    +0.000 NA
ATOM     17  C   UNL     1       2.299   7.344  19.712  0.00  0.00    +0.000 A 
ENDROOT
BRANCH   1  21
ATOM     18  C   UNL     1       4.301   4.142  17.280  0.00  0.00    +0.000 C 
ATOM     19  N   UNL     1       3.276   5.068  17.728  0.00  0.00    +0.000 N 
ATOM     20  C   UNL     1       1.908   4.561  17.778  0.00  0.00    +0.000 C 
ATOM     21  C   UNL     1       3.655   6.407  17.864  0.00  0.00    +0.000 C 
ATOM     22  O   UNL     1       4.779   6.808  17.563  0.00  0.00    +0.000 OA
ENDBRANCH   1  21
TORSDOF 1
ENDMDL
