MODEL 1
REMARK VINA RESULT:      -8.3      0.000      0.000
REMARK  Name = 
REMARK  13 active torsions:
REMARK  status: ('A' for Active; 'I' for Inactive)
REMARK    1  A    between atoms: C_1  and  C_2
REMARK    2  A    between atoms: C_2  and  O_3
REMARK    3  A    between atoms: O_3  and  C_4
REMARK    4  A    between atoms: C_4  and  C_5
REMARK    5  A    between atoms: C_5  and  O_6
REMARK    6  A    between atoms: O_6  and  C_7
REMARK    7  A    between atoms: C_10  and  S_11
REMARK    8  A    between atoms: S_11  and  N_14
REMARK    9  A    between atoms: C_16  and  O_17
REMARK   10  A    between atoms: C_18  and  O_19
REMARK   11  A    between atoms: C_20  and  O_21
REMARK   12  A    between atoms: C_22  and  C_23
REMARK   13  A    between atoms: N_25  and  O_26
REMARK                            x       y       z     vdW  Elec       q    Type
REMARK                         _______ _______ _______ _____ _____    ______ ____
ROOT
ATOM      1  N   UNL     1       4.963   4.651  17.123  0.00  0.00    +0.000 NA
ATOM      2  C   UNL     1       5.378   3.590  16.158  0.00  0.00    +0.000 C 
ATOM      3  C   UNL     1       5.959   4.191  14.879  0.00  0.00    +0.000 C 
ATOM      4  C   UNL     1       7.173   5.056  15.234  0.00  0.00    +0.000 C 
ATOM      5  C   UNL     1       6.735   6.172  16.203  0.00  0.00    +0.000 C 
ATOM      6  C   UNL     1       6.062   5.623  17.486  0.00  0.00    +0.000 C 
ENDROOT
BRANCH   6   7
ATOM      7  C   UNL     1       7.130   5.101  18.453  0.00  0.00    +0.000 C 
ATOM      8  O   UNL     1       7.954   4.237  18.143  0.00  0.00    +0.000 OA
ATOM      9  N   UNL     1       7.147   5.693  19.697  0.00  0.00    +0.000 N 
ATOM     10  H   UNL     1       6.305   6.074  20.129  0.00  0.00    +0.000 HD
BRANCH   9  11
ATOM     11  O   UNL     1       8.111   5.175  20.599  0.00  0.00    +0.000 OA
ATOM     12  H   UNL     1       7.811   5.527  21.465  0.00  0.00    +0.000 HD
ENDBRANCH   9  11
ENDBRANCH   6   7
BRANCH   1  13
ATOM     13  S   UNL     1       4.127   4.043  18.489  0.00  0.00    +0.000 S 
ATOM     14  O   UNL     1       5.107   3.801  19.522  0.00  0.00    +0.000 OA
ATOM     15  O   UNL     1       3.292   2.970  18.002  0.00  0.00    +0.000 OA
BRANCH  13  19
ATOM     16  C   UNL     1       1.854   7.724  19.864  0.00  0.00    +0.000 A 
ATOM     17  C   UNL     1       2.383   7.650  18.576  0.00  0.00    +0.000 A 
ATOM     18  C   UNL     1       2.998   6.488  18.129  0.00  0.00    +0.000 A 
ATOM     19  C   UNL     1       3.084   5.383  18.978  0.00  0.00    +0.000 A 
ATOM     20  C   UNL     1       2.502   5.411  20.246  0.00  0.00    +0.000 A 
ATOM     21  C   UNL     1       1.890   6.588  20.687  0.00  0.00    +0.000 A 
BRANCH  16  22
ATOM     22  O   UNL     1       1.308   8.850  20.424  0.00  0.00    +0.000 OA
BRANCH  22  23
ATOM     23  C   UNL     1       1.245   8.855  21.856  0.00  0.00    +0.000 C 
BRANCH  23  24
ATOM     24  C   UNL     1      -0.167   9.183  22.313  0.00  0.00    +0.000 C 
BRANCH  24  25
ATOM     25  O   UNL     1      -0.111  10.225  23.291  0.00  0.00    +0.000 OA
BRANCH  25  27
ATOM     26  C   UNL     1      -1.229  11.599  21.675  0.00  0.00    +0.000 C 
ATOM     27  C   UNL     1      -1.181  11.151  23.122  0.00  0.00    +0.000 C 
ENDBRANCH  25  27
ENDBRANCH  24  25
ENDBRANCH  23  24
ENDBRANCH  22  23
ENDBRANCH  16  22
ENDBRANCH  13  19
ENDBRANCH   1  13
BRANCH   3  28
ATOM     28  O   UNL     1       6.293   3.140  13.973  0.00  0.00    +0.000 OA
ATOM     29  H   UNL     1       5.575   3.050  13.321  0.00  0.00    +0.000 HD
ENDBRANCH   3  28
BRANCH   4  30
ATOM     30  O   UNL     1       7.763   5.608  14.050  0.00  0.00    +0.000 OA
ATOM     31  H   UNL     1       7.071   5.700  13.372  0.00  0.00    +0.000 HD
ENDBRANCH   4  30
BRANCH   5  32
ATOM     32  O   UNL     1       7.822   7.050  16.516  0.00  0.00    +0.000 OA
ATOM     33  H   UNL     1       8.083   7.505  15.690  0.00  0.00    +0.000 HD
ENDBRANCH   5  32
TORSDOF 12
ENDMDL
MODEL 2
REMARK VINA RESULT:      -8.2      2.647      3.619
REMARK  Name = 
REMARK  13 active torsions:
REMARK  status: ('A' for Active; 'I' for Inactive)
REMARK    1  A    between atoms: C_1  and  C_2
REMARK    2  A    between atoms: C_2  and  O_3
REMARK    3  A    between atoms: O_3  and  C_4
REMARK    4  A    between atoms: C_4  and  C_5
REMARK    5  A    between atoms: C_5  and  O_6
REMARK    6  A    between atoms: O_6  and  C_7
REMARK    7  A    between atoms: C_10  and  S_11
REMARK    8  A    between atoms: S_11  and  N_14
REMARK    9  A    between atoms: C_16  and  O_17
REMARK   10  A    between atoms: C_18  and  O_19
REMARK   11  A    between atoms: C_20  and  O_21
REMARK   12  A    between atoms: C_22  and  C_23
REMARK   13  A    between atoms: N_25  and  O_26
REMARK                            x       y       z     vdW  Elec       q    Type
REMARK                         _______ _______ _______ _____ _____    ______ ____
ROOT
ATOM      1  N   UNL     1       4.205   6.056  18.434  0.00  0.00    +0.000 NA
ATOM      2  C   UNL     1       4.081   6.285  16.964  0.00  0.00    +0.000 C 
ATOM      3  C   UNL     1       5.426   6.647  16.337  0.00  0.00    +0.000 C 
ATOM      4  C   UNL     1       6.423   5.510  16.591  0.00  0.00    +0.000 C 
ATOM      5  C   UNL     1       6.576   5.300  18.110  0.00  0.00    +0.000 C 
ATOM      6  C   UNL     1       5.227   5.011  18.815  0.00  0.00    +0.000 C 
ENDROOT
BRANCH   6   7
ATOM      7  C   UNL     1       4.818   3.553  18.579  0.00  0.00    +0.000 C 
ATOM      8  O   UNL     1       4.357   3.147  17.510  0.00  0.00    +0.000 OA
ATOM      9  N   UNL     1       5.040   2.695  19.635  0.00  0.00    +0.000 N 
ATOM     10  H   UNL     1       5.021   3.010  20.605  0.00  0.00    +0.000 HD
BRANCH   9  11
ATOM     11  O   UNL     1       4.620   1.357  19.423  0.00  0.00    +0.000 OA
ATOM     12  H   UNL     1       3.659   1.455  19.243  0.00  0.00    +0.000 HD
ENDBRANCH   9  11
ENDBRANCH   6   7
BRANCH   1  13
ATOM     13  S   UNL     1       2.699   5.841  19.222  0.00  0.00    +0.000 S 
ATOM     14  O   UNL     1       2.966   5.227  20.502  0.00  0.00    +0.000 OA
ATOM     15  O   UNL     1       1.834   5.195  18.262  0.00  0.00    +0.000 OA
BRANCH  13  19
ATOM     16  C   UNL     1       0.750   9.895  19.829  0.00  0.00    +0.000 A 
ATOM     17  C   UNL     1       0.900   9.008  20.894  0.00  0.00    +0.000 A 
ATOM     18  C   UNL     1       1.577   7.808  20.724  0.00  0.00    +0.000 A 
ATOM     19  C   UNL     1       2.115   7.489  19.476  0.00  0.00    +0.000 A 
ATOM     20  C   UNL     1       2.036   8.392  18.415  0.00  0.00    +0.000 A 
ATOM     21  C   UNL     1       1.348   9.595  18.596  0.00  0.00    +0.000 A 
BRANCH  16  22
ATOM     22  O   UNL     1       0.027  11.059  19.874  0.00  0.00    +0.000 OA
BRANCH  22  23
ATOM     23  C   UNL     1      -0.685  11.388  18.674  0.00  0.00    +0.000 C 
BRANCH  23  24
ATOM     24  C   UNL     1      -2.159  11.589  18.982  0.00  0.00    +0.000 C 
BRANCH  24  25
ATOM     25  O   UNL     1      -2.939  10.926  17.985  0.00  0.00    +0.000 OA
BRANCH  25  27
ATOM     26  C   UNL     1      -2.737   9.926  15.815  0.00  0.00    +0.000 C 
ATOM     27  C   UNL     1      -2.136  10.047  17.200  0.00  0.00    +0.000 C 
ENDBRANCH  25  27
ENDBRANCH  24  25
ENDBRANCH  23  24
ENDBRANCH  22  23
ENDBRANCH  16  22
ENDBRANCH  13  19
ENDBRANCH   1  13
BRANCH   3  28
ATOM     28  O   UNL     1       5.245   6.902  14.944  0.00  0.00    +0.000 OA
ATOM     29  H   UNL     1       4.631   7.652  14.842  0.00  0.00    +0.000 HD
ENDBRANCH   3  28
BRANCH   4  30
ATOM     30  O   UNL     1       7.688   5.804  15.985  0.00  0.00    +0.000 OA
ATOM     31  H   UNL     1       7.536   6.070  15.061  0.00  0.00    +0.000 HD
ENDBRANCH   4  30
BRANCH   5  32
ATOM     32  O   UNL     1       7.549   4.290  18.404  0.00  0.00    +0.000 OA
ATOM     33  H   UNL     1       7.829   3.893  17.555  0.00  0.00    +0.000 HD
ENDBRANCH   5  32
TORSDOF 12
ENDMDL
MODEL 3
REMARK VINA RESULT:      -8.1      1.487      1.754
REMARK  Name = 
REMARK  13 active torsions:
REMARK  status: ('A' for Active; 'I' for Inactive)
REMARK    1  A    between atoms: C_1  and  C_2
REMARK    2  A    between atoms: C_2  and  O_3
REMARK    3  A    between atoms: O_3  and  C_4
REMARK    4  A    between atoms: C_4  and  C_5
REMARK    5  A    between atoms: C_5  and  O_6
REMARK    6  A    between atoms: O_6  and  C_7
REMARK    7  A    between atoms: C_10  and  S_11
REMARK    8  A    between atoms: S_11  and  N_14
REMARK    9  A    between atoms: C_16  and  O_17
REMARK   10  A    between atoms: C_18  and  O_19
REMARK   11  A    between atoms: C_20  and  O_21
REMARK   12  A    between atoms: C_22  and  C_23
REMARK   13  A    between atoms: N_25  and  O_26
REMARK                            x       y       z     vdW  Elec       q    Type
REMARK                         _______ _______ _______ _____ _____    ______ ____
ROOT
ATOM      1  N   UNL     1       5.012   4.607  17.086  0.00  0.00    +0.000 NA
ATOM      2  C   UNL     1       5.447   3.554  16.122  0.00  0.00    +0.000 C 
ATOM      3  C   UNL     1       6.028   4.165  14.848  0.00  0.00    +0.000 C 
ATOM      4  C   UNL     1       7.228   5.047  15.212  0.00  0.00    +0.000 C 
ATOM      5  C   UNL     1       6.768   6.155  16.180  0.00  0.00    +0.000 C 
ATOM      6  C   UNL     1       6.094   5.594  17.458  0.00  0.00    +0.000 C 
ENDROOT
BRANCH   6   7
ATOM      7  C   UNL     1       7.163   5.085  18.430  0.00  0.00    +0.000 C 
ATOM      8  O   UNL     1       8.002   4.234  18.124  0.00  0.00    +0.000 OA
ATOM      9  N   UNL     1       7.165   5.676  19.675  0.00  0.00    +0.000 N 
ATOM     10  H   UNL     1       6.315   6.045  20.103  0.00  0.00    +0.000 HD
BRANCH   9  11
ATOM     11  O   UNL     1       8.130   5.170  20.582  0.00  0.00    +0.000 OA
ATOM     12  H   UNL     1       7.582   4.875  21.342  0.00  0.00    +0.000 HD
ENDBRANCH   9  11
ENDBRANCH   6   7
BRANCH   1  13
ATOM     13  S   UNL     1       4.175   3.985  18.446  0.00  0.00    +0.000 S 
ATOM     14  O   UNL     1       5.155   3.743  19.480  0.00  0.00    +0.000 OA
ATOM     15  O   UNL     1       3.349   2.910  17.949  0.00  0.00    +0.000 OA
BRANCH  13  19
ATOM     16  C   UNL     1       1.874   7.635  19.852  0.00  0.00    +0.000 A 
ATOM     17  C   UNL     1       2.437   7.593  18.577  0.00  0.00    +0.000 A 
ATOM     18  C   UNL     1       3.062   6.442  18.118  0.00  0.00    +0.000 A 
ATOM     19  C   UNL     1       3.122   5.315  18.940  0.00  0.00    +0.000 A 
ATOM     20  C   UNL     1       2.507   5.312  20.192  0.00  0.00    +0.000 A 
ATOM     21  C   UNL     1       1.885   6.479  20.646  0.00  0.00    +0.000 A 
BRANCH  16  22
ATOM     22  O   UNL     1       1.314   8.748  20.426  0.00  0.00    +0.000 OA
BRANCH  22  23
ATOM     23  C   UNL     1       0.958   9.796  19.514  0.00  0.00    +0.000 C 
BRANCH  23  24
ATOM     24  C   UNL     1      -0.317  10.478  19.980  0.00  0.00    +0.000 C 
BRANCH  24  25
ATOM     25  O   UNL     1      -1.403  10.055  19.151  0.00  0.00    +0.000 OA
BRANCH  25  27
ATOM     26  C   UNL     1      -2.089   9.972  16.855  0.00  0.00    +0.000 C 
ATOM     27  C   UNL     1      -1.462  10.815  17.947  0.00  0.00    +0.000 C 
ENDBRANCH  25  27
ENDBRANCH  24  25
ENDBRANCH  23  24
ENDBRANCH  22  23
ENDBRANCH  16  22
ENDBRANCH  13  19
ENDBRANCH   1  13
BRANCH   3  28
ATOM     28  O   UNL     1       6.382   3.121  13.942  0.00  0.00    +0.000 OA
ATOM     29  H   UNL     1       6.710   3.522  13.116  0.00  0.00    +0.000 HD
ENDBRANCH   3  28
BRANCH   4  30
ATOM     30  O   UNL     1       7.816   5.609  14.032  0.00  0.00    +0.000 OA
ATOM     31  H   UNL     1       7.164   6.192  13.607  0.00  0.00    +0.000 HD
ENDBRANCH   4  30
BRANCH   5  32
ATOM     32  O   UNL     1       7.840   7.048  16.501  0.00  0.00    +0.000 OA
ATOM     33  H   UNL     1       7.955   7.036  17.472  0.00  0.00    +0.000 HD
ENDBRANCH   5  32
TORSDOF 12
ENDMDL
MODEL 4
REMARK VINA RESULT:      -7.9      0.986      1.083
REMARK  Name = 
REMARK  13 active torsions:
REMARK  status: ('A' for Active; 'I' for Inactive)
REMARK    1  A    between atoms: C_1  and  C_2
REMARK    2  A    between atoms: C_2  and  O_3
REMARK    3  A    between atoms: O_3  and  C_4
REMARK    4  A    between atoms: C_4  and  C_5
REMARK    5  A    between atoms: C_5  and  O_6
REMARK    6  A    between atoms: O_6  and  C_7
REMARK    7  A    between atoms: C_10  and  S_11
REMARK    8  A    between atoms: S_11  and  N_14
REMARK    9  A    between atoms: C_16  and  O_17
REMARK   10  A    between atoms: C_18  and  O_19
REMARK   11  A    between atoms: C_20  and  O_21
REMARK   12  A    between atoms: C_22  and  C_23
REMARK   13  A    between atoms: N_25  and  O_26
REMARK                            x       y       z     vdW  Elec       q    Type
REMARK                         _______ _______ _______ _____ _____    ______ ____
ROOT
ATOM      1  N   UNL     1       5.003   4.557  17.110  0.00  0.00    +0.000 NA
ATOM      2  C   UNL     1       5.451   3.517  16.137  0.00  0.00    +0.000 C 
ATOM      3  C   UNL     1       6.011   4.147  14.862  0.00  0.00    +0.000 C 
ATOM      4  C   UNL     1       7.196   5.049  15.221  0.00  0.00    +0.000 C 
ATOM      5  C   UNL     1       6.722   6.143  16.199  0.00  0.00    +0.000 C 
ATOM      6  C   UNL     1       6.069   5.563  17.479  0.00  0.00    +0.000 C 
ENDROOT
BRANCH   6   7
ATOM      7  C   UNL     1       7.155   5.069  18.441  0.00  0.00    +0.000 C 
ATOM      8  O   UNL     1       8.006   4.235  18.124  0.00  0.00    +0.000 OA
ATOM      9  N   UNL     1       7.155   5.655  19.688  0.00  0.00    +0.000 N 
ATOM     10  H   UNL     1       6.303   6.006  20.124  0.00  0.00    +0.000 HD
BRANCH   9  11
ATOM     11  O   UNL     1       8.137   5.163  20.585  0.00  0.00    +0.000 OA
ATOM     12  H   UNL     1       8.920   5.719  20.379  0.00  0.00    +0.000 HD
ENDBRANCH   9  11
ENDBRANCH   6   7
BRANCH   1  13
ATOM     13  S   UNL     1       4.189   3.912  18.472  0.00  0.00    +0.000 S 
ATOM     14  O   UNL     1       5.184   3.660  19.489  0.00  0.00    +0.000 OA
ATOM     15  O   UNL     1       3.361   2.840  17.972  0.00  0.00    +0.000 OA
BRANCH  13  19
ATOM     16  C   UNL     1       1.886   7.515  19.995  0.00  0.00    +0.000 A 
ATOM     17  C   UNL     1       2.503   7.537  18.744  0.00  0.00    +0.000 A 
ATOM     18  C   UNL     1       3.130   6.404  18.244  0.00  0.00    +0.000 A 
ATOM     19  C   UNL     1       3.137   5.229  19.000  0.00  0.00    +0.000 A 
ATOM     20  C   UNL     1       2.467   5.164  20.222  0.00  0.00    +0.000 A 
ATOM     21  C   UNL     1       1.845   6.314  20.718  0.00  0.00    +0.000 A 
BRANCH  16  22
ATOM     22  O   UNL     1       1.320   8.602  20.609  0.00  0.00    +0.000 OA
BRANCH  22  23
ATOM     23  C   UNL     1       0.821   9.615  19.727  0.00  0.00    +0.000 C 
BRANCH  23  24
ATOM     24  C   UNL     1       0.745  10.947  20.455  0.00  0.00    +0.000 C 
BRANCH  24  25
ATOM     25  O   UNL     1      -0.356  11.699  19.938  0.00  0.00    +0.000 OA
BRANCH  25  27
ATOM     26  C   UNL     1      -0.716  11.895  22.301  0.00  0.00    +0.000 C 
ATOM     27  C   UNL     1      -1.361  11.890  20.930  0.00  0.00    +0.000 C 
ENDBRANCH  25  27
ENDBRANCH  24  25
ENDBRANCH  23  24
ENDBRANCH  22  23
ENDBRANCH  16  22
ENDBRANCH  13  19
ENDBRANCH   1  13
BRANCH   3  28
ATOM     28  O   UNL     1       6.378   3.114  13.947  0.00  0.00    +0.000 OA
ATOM     29  H   UNL     1       5.981   2.276  14.246  0.00  0.00    +0.000 HD
ENDBRANCH   3  28
BRANCH   4  30
ATOM     30  O   UNL     1       7.765   5.629  14.041  0.00  0.00    +0.000 OA
ATOM     31  H   UNL     1       7.174   6.334  13.725  0.00  0.00    +0.000 HD
ENDBRANCH   4  30
BRANCH   5  32
ATOM     32  O   UNL     1       7.780   7.055  16.517  0.00  0.00    +0.000 OA
ATOM     33  H   UNL     1       8.447   6.995  15.804  0.00  0.00    +0.000 HD
ENDBRANCH   5  32
TORSDOF 12
ENDMDL
MODEL 5
REMARK VINA RESULT:      -7.8      1.797      2.295
REMARK  Name = 
REMARK  13 active torsions:
REMARK  status: ('A' for Active; 'I' for Inactive)
REMARK    1  A    between atoms: C_1  and  C_2
REMARK    2  A    between atoms: C_2  and  O_3
REMARK    3  A    between atoms: O_3  and  C_4
REMARK    4  A    between atoms: C_4  and  C_5
REMARK    5  A    between atoms: C_5  and  O_6
REMARK    6  A    between atoms: O_6  and  C_7
REMARK    7  A    between atoms: C_10  and  S_11
REMARK    8  A    between atoms: S_11  and  N_14
REMARK    9  A    between atoms: C_16  and  O_17
REMARK   10  A    between atoms: C_18  and  O_19
REMARK   11  A    between atoms: C_20  and  O_21
REMARK   12  A    between atoms: C_22  and  C_23
REMARK   13  A    between atoms: N_25  and  O_26
REMARK                            x       y       z     vdW  Elec       q    Type
REMARK                         _______ _______ _______ _____ _____    ______ ____
ROOT
ATOM      1  N   UNL     1       4.883   4.901  16.924  0.00  0.00    +0.000 NA
ATOM      2  C   UNL     1       5.272   3.804  15.990  0.00  0.00    +0.000 C 
ATOM      3  C   UNL     1       5.978   4.348  14.749  0.00  0.00    +0.000 C 
ATOM      4  C   UNL     1       7.232   5.118  15.177  0.00  0.00    +0.000 C 
ATOM      5  C   UNL     1       6.823   6.273  16.113  0.00  0.00    +0.000 C 
ATOM      6  C   UNL     1       6.028   5.788  17.352  0.00  0.00    +0.000 C 
ENDROOT
BRANCH   6   7
ATOM      7  C   UNL     1       6.990   5.191  18.387  0.00  0.00    +0.000 C 
ATOM      8  O   UNL     1       7.738   4.242  18.142  0.00  0.00    +0.000 OA
ATOM      9  N   UNL     1       7.004   5.816  19.615  0.00  0.00    +0.000 N 
ATOM     10  H   UNL     1       6.184   6.291  19.993  0.00  0.00    +0.000 HD
BRANCH   9  11
ATOM     11  O   UNL     1       7.865   5.232  20.578  0.00  0.00    +0.000 OA
ATOM     12  H   UNL     1       7.830   5.875  21.320  0.00  0.00    +0.000 HD
ENDBRANCH   9  11
ENDBRANCH   6   7
BRANCH   1  13
ATOM     13  S   UNL     1       3.917   4.372  18.236  0.00  0.00    +0.000 S 
ATOM     14  O   UNL     1       4.805   3.802  19.223  0.00  0.00    +0.000 OA
ATOM     15  O   UNL     1       2.856   3.580  17.657  0.00  0.00    +0.000 OA
BRANCH  13  19
ATOM     16  C   UNL     1       1.678   8.005  19.782  0.00  0.00    +0.000 A 
ATOM     17  C   UNL     1       1.902   6.900  20.603  0.00  0.00    +0.000 A 
ATOM     18  C   UNL     1       2.664   5.829  20.156  0.00  0.00    +0.000 A 
ATOM     19  C   UNL     1       3.215   5.862  18.874  0.00  0.00    +0.000 A 
ATOM     20  C   UNL     1       3.061   6.985  18.061  0.00  0.00    +0.000 A 
ATOM     21  C   UNL     1       2.287   8.056  18.519  0.00  0.00    +0.000 A 
BRANCH  16  22
ATOM     22  O   UNL     1       0.872   9.067  20.099  0.00  0.00    +0.000 OA
BRANCH  22  23
ATOM     23  C   UNL     1       0.682  10.028  19.054  0.00  0.00    +0.000 C 
BRANCH  23  24
ATOM     24  C   UNL     1      -0.634  10.761  19.253  0.00  0.00    +0.000 C 
BRANCH  24  25
ATOM     25  O   UNL     1      -1.195  11.070  17.975  0.00  0.00    +0.000 OA
BRANCH  25  27
ATOM     26  C   UNL     1      -2.507  10.326  16.111  0.00  0.00    +0.000 C 
ATOM     27  C   UNL     1      -1.774   9.916  17.371  0.00  0.00    +0.000 C 
ENDBRANCH  25  27
ENDBRANCH  24  25
ENDBRANCH  23  24
ENDBRANCH  22  23
ENDBRANCH  16  22
ENDBRANCH  13  19
ENDBRANCH   1  13
BRANCH   3  28
ATOM     28  O   UNL     1       6.285   3.267  13.868  0.00  0.00    +0.000 OA
ATOM     29  H   UNL     1       7.226   3.324  13.620  0.00  0.00    +0.000 HD
ENDBRANCH   3  28
BRANCH   4  30
ATOM     30  O   UNL     1       7.936   5.613  14.031  0.00  0.00    +0.000 OA
ATOM     31  H   UNL     1       8.456   6.391  14.298  0.00  0.00    +0.000 HD
ENDBRANCH   4  30
BRANCH   5  32
ATOM     32  O   UNL     1       7.953   7.066  16.492  0.00  0.00    +0.000 OA
ATOM     33  H   UNL     1       8.676   6.454  16.738  0.00  0.00    +0.000 HD
ENDBRANCH   5  32
TORSDOF 12
ENDMDL
MODEL 6
REMARK VINA RESULT:      -7.8      1.994      3.018
REMARK  Name = 
REMARK  13 active torsions:
REMARK  status: ('A' for Active; 'I' for Inactive)
REMARK    1  A    between atoms: C_1  and  C_2
REMARK    2  A    between atoms: C_2  and  O_3
REMARK    3  A    between atoms: O_3  and  C_4
REMARK    4  A    between atoms: C_4  and  C_5
REMARK    5  A    between atoms: C_5  and  O_6
REMARK    6  A    between atoms: O_6  and  C_7
REMARK    7  A    between atoms: C_10  and  S_11
REMARK    8  A    between atoms: S_11  and  N_14
REMARK    9  A    between atoms: C_16  and  O_17
REMARK   10  A    between atoms: C_18  and  O_19
REMARK   11  A    between atoms: C_20  and  O_21
REMARK   12  A    between atoms: C_22  and  C_23
REMARK   13  A    between atoms: N_25  and  O_26
REMARK                            x       y       z     vdW  Elec       q    Type
REMARK                         _______ _______ _______ _____ _____    ______ ____
ROOT
ATOM      1  N   UNL     1       4.157   6.009  18.504  0.00  0.00    +0.000 NA
ATOM      2  C   UNL     1       4.032   6.272  17.039  0.00  0.00    +0.000 C 
ATOM      3  C   UNL     1       5.374   6.664  16.423  0.00  0.00    +0.000 C 
ATOM      4  C   UNL     1       6.384   5.533  16.650  0.00  0.00    +0.000 C 
ATOM      5  C   UNL     1       6.538   5.288  18.165  0.00  0.00    +0.000 C 
ATOM      6  C   UNL     1       5.191   4.967  18.861  0.00  0.00    +0.000 C 
ENDROOT
BRANCH   6   7
ATOM      7  C   UNL     1       4.799   3.510  18.589  0.00  0.00    +0.000 C 
ATOM      8  O   UNL     1       4.334   3.127  17.513  0.00  0.00    +0.000 OA
ATOM      9  N   UNL     1       5.043   2.627  19.619  0.00  0.00    +0.000 N 
ATOM     10  H   UNL     1       5.029   2.915  20.597  0.00  0.00    +0.000 HD
BRANCH   9  11
ATOM     11  O   UNL     1       4.639   1.290  19.375  0.00  0.00    +0.000 OA
ATOM     12  H   UNL     1       4.774   1.194  18.407  0.00  0.00    +0.000 HD
ENDBRANCH   9  11
ENDBRANCH   6   7
BRANCH   1  13
ATOM     13  S   UNL     1       2.653   5.757  19.284  0.00  0.00    +0.000 S 
ATOM     14  O   UNL     1       2.923   5.079  20.531  0.00  0.00    +0.000 OA
ATOM     15  O   UNL     1       1.785   5.161  18.296  0.00  0.00    +0.000 OA
BRANCH  13  19
ATOM     16  C   UNL     1       0.712   9.776  20.112  0.00  0.00    +0.000 A 
ATOM     17  C   UNL     1       0.895   8.846  21.135  0.00  0.00    +0.000 A 
ATOM     18  C   UNL     1       1.569   7.656  20.897  0.00  0.00    +0.000 A 
ATOM     19  C   UNL     1       2.073   7.391  19.622  0.00  0.00    +0.000 A 
ATOM     20  C   UNL     1       1.962   8.336  18.602  0.00  0.00    +0.000 A 
ATOM     21  C   UNL     1       1.276   9.529  18.851  0.00  0.00    +0.000 A 
BRANCH  16  22
ATOM     22  O   UNL     1      -0.012  10.935  20.226  0.00  0.00    +0.000 OA
BRANCH  22  23
ATOM     23  C   UNL     1       0.324  11.761  21.348  0.00  0.00    +0.000 C 
BRANCH  23  24
ATOM     24  C   UNL     1      -0.879  11.906  22.265  0.00  0.00    +0.000 C 
BRANCH  24  25
ATOM     25  O   UNL     1      -0.993  13.272  22.672  0.00  0.00    +0.000 OA
BRANCH  25  27
ATOM     26  C   UNL     1      -3.042  12.258  23.395  0.00  0.00    +0.000 C 
ATOM     27  C   UNL     1      -2.142  13.473  23.491  0.00  0.00    +0.000 C 
ENDBRANCH  25  27
ENDBRANCH  24  25
ENDBRANCH  23  24
ENDBRANCH  22  23
ENDBRANCH  16  22
ENDBRANCH  13  19
ENDBRANCH   1  13
BRANCH   3  28
ATOM     28  O   UNL     1       5.191   6.951  15.037  0.00  0.00    +0.000 OA
ATOM     29  H   UNL     1       6.066   7.049  14.620  0.00  0.00    +0.000 HD
ENDBRANCH   3  28
BRANCH   4  30
ATOM     30  O   UNL     1       7.646   5.857  16.054  0.00  0.00    +0.000 OA
ATOM     31  H   UNL     1       8.353   5.632  16.682  0.00  0.00    +0.000 HD
ENDBRANCH   4  30
BRANCH   5  32
ATOM     32  O   UNL     1       7.521   4.283  18.435  0.00  0.00    +0.000 OA
ATOM     33  H   UNL     1       7.635   4.232  19.406  0.00  0.00    +0.000 HD
ENDBRANCH   5  32
TORSDOF 12
ENDMDL
MODEL 7
REMARK VINA RESULT:      -7.7      2.367      3.399
REMARK  Name = 
REMARK  13 active torsions:
REMARK  status: ('A' for Active; 'I' for Inactive)
REMARK    1  A    between atoms: C_1  and  C_2
REMARK    2  A    between atoms: C_2  and  O_3
REMARK    3  A    between atoms: O_3  and  C_4
REMARK    4  A    between atoms: C_4  and  C_5
REMARK    5  A    between atoms: C_5  and  O_6
REMARK    6  A    between atoms: O_6  and  C_7
REMARK    7  A    between atoms: C_10  and  S_11
REMARK    8  A    between atoms: S_11  and  N_14
REMARK    9  A    between atoms: C_16  and  O_17
REMARK   10  A    between atoms: C_18  and  O_19
REMARK   11  A    between atoms: C_20  and  O_21
REMARK   12  A    between atoms: C_22  and  C_23
REMARK   13  A    between atoms: N_25  and  O_26
REMARK                            x       y       z     vdW  Elec       q    Type
REMARK                         _______ _______ _______ _____ _____    ______ ____
ROOT
ATOM      1  N   UNL     1       4.149   5.988  18.527  0.00  0.00    +0.000 NA
ATOM      2  C   UNL     1       4.022   6.264  17.065  0.00  0.00    +0.000 C 
ATOM      3  C   UNL     1       5.361   6.671  16.452  0.00  0.00    +0.000 C 
ATOM      4  C   UNL     1       6.378   5.546  16.669  0.00  0.00    +0.000 C 
ATOM      5  C   UNL     1       6.535   5.287  18.181  0.00  0.00    +0.000 C 
ATOM      6  C   UNL     1       5.191   4.950  18.874  0.00  0.00    +0.000 C 
ENDROOT
BRANCH   6   7
ATOM      7  C   UNL     1       4.808   3.493  18.589  0.00  0.00    +0.000 C 
ATOM      8  O   UNL     1       4.340   3.118  17.511  0.00  0.00    +0.000 OA
ATOM      9  N   UNL     1       5.064   2.601  19.608  0.00  0.00    +0.000 N 
ATOM     10  H   UNL     1       5.053   2.879  20.589  0.00  0.00    +0.000 HD
BRANCH   9  11
ATOM     11  O   UNL     1       4.669   1.264  19.351  0.00  0.00    +0.000 OA
ATOM     12  H   UNL     1       4.252   1.325  18.465  0.00  0.00    +0.000 HD
ENDBRANCH   9  11
ENDBRANCH   6   7
BRANCH   1  13
ATOM     13  S   UNL     1       2.647   5.719  19.305  0.00  0.00    +0.000 S 
ATOM     14  O   UNL     1       2.921   5.020  20.540  0.00  0.00    +0.000 OA
ATOM     15  O   UNL     1       1.779   5.138  18.309  0.00  0.00    +0.000 OA
BRANCH  13  19
ATOM     16  C   UNL     1       0.698   9.721  20.193  0.00  0.00    +0.000 A 
ATOM     17  C   UNL     1       0.852   8.763  21.195  0.00  0.00    +0.000 A 
ATOM     18  C   UNL     1       1.529   7.578  20.942  0.00  0.00    +0.000 A 
ATOM     19  C   UNL     1       2.064   7.346  19.673  0.00  0.00    +0.000 A 
ATOM     20  C   UNL     1       1.981   8.318  18.676  0.00  0.00    +0.000 A 
ATOM     21  C   UNL     1       1.292   9.506  18.941  0.00  0.00    +0.000 A 
BRANCH  16  22
ATOM     22  O   UNL     1      -0.025  10.879  20.320  0.00  0.00    +0.000 OA
BRANCH  22  23
ATOM     23  C   UNL     1      -0.966  11.134  19.270  0.00  0.00    +0.000 C 
BRANCH  23  24
ATOM     24  C   UNL     1      -1.887  12.276  19.663  0.00  0.00    +0.000 C 
BRANCH  24  25
ATOM     25  O   UNL     1      -1.147  13.500  19.644  0.00  0.00    +0.000 OA
BRANCH  25  27
ATOM     26  C   UNL     1       0.970  14.264  18.818  0.00  0.00    +0.000 C 
ATOM     27  C   UNL     1      -0.348  13.603  18.469  0.00  0.00    +0.000 C 
ENDBRANCH  25  27
ENDBRANCH  24  25
ENDBRANCH  23  24
ENDBRANCH  22  23
ENDBRANCH  16  22
ENDBRANCH  13  19
ENDBRANCH   1  13
BRANCH   3  28
ATOM     28  O   UNL     1       5.175   6.970  15.069  0.00  0.00    +0.000 OA
ATOM     29  H   UNL     1       5.528   7.861  14.892  0.00  0.00    +0.000 HD
ENDBRANCH   3  28
BRANCH   4  30
ATOM     30  O   UNL     1       7.638   5.883  16.074  0.00  0.00    +0.000 OA
ATOM     31  H   UNL     1       8.136   6.441  16.697  0.00  0.00    +0.000 HD
ENDBRANCH   4  30
BRANCH   5  32
ATOM     32  O   UNL     1       7.525   4.286  18.441  0.00  0.00    +0.000 OA
ATOM     33  H   UNL     1       8.043   4.576  19.219  0.00  0.00    +0.000 HD
ENDBRANCH   5  32
TORSDOF 12
ENDMDL
MODEL 8
REMARK VINA RESULT:      -7.7      1.367      1.789
REMARK  Name = 
REMARK  13 active torsions:
REMARK  status: ('A' for Active; 'I' for Inactive)
REMARK    1  A    between atoms: C_1  and  C_2
REMARK    2  A    between atoms: C_2  and  O_3
REMARK    3  A    between atoms: O_3  and  C_4
REMARK    4  A    between atoms: C_4  and  C_5
REMARK    5  A    between atoms: C_5  and  O_6
REMARK    6  A    between atoms: O_6  and  C_7
REMARK    7  A    between atoms: C_10  and  S_11
REMARK    8  A    between atoms: S_11  and  N_14
REMARK    9  A    between atoms: C_16  and  O_17
REMARK   10  A    between atoms: C_18  and  O_19
REMARK   11  A    between atoms: C_20  and  O_21
REMARK   12  A    between atoms: C_22  and  C_23
REMARK   13  A    between atoms: N_25  and  O_26
REMARK                            x       y       z     vdW  Elec       q    Type
REMARK                         _______ _______ _______ _____ _____    ______ ____
ROOT
ATOM      1  N   UNL     1       4.973   4.694  17.026  0.00  0.00    +0.000 NA
ATOM      2  C   UNL     1       5.397   3.627  16.071  0.00  0.00    +0.000 C 
ATOM      3  C   UNL     1       6.013   4.219  14.805  0.00  0.00    +0.000 C 
ATOM      4  C   UNL     1       7.229   5.071  15.185  0.00  0.00    +0.000 C 
ATOM      5  C   UNL     1       6.781   6.194  16.142  0.00  0.00    +0.000 C 
ATOM      6  C   UNL     1       6.074   5.655  17.411  0.00  0.00    +0.000 C 
ENDROOT
BRANCH   6   7
ATOM      7  C   UNL     1       7.115   5.123  18.402  0.00  0.00    +0.000 C 
ATOM      8  O   UNL     1       7.946   4.260  18.107  0.00  0.00    +0.000 OA
ATOM      9  N   UNL     1       7.100   5.706  19.651  0.00  0.00    +0.000 N 
ATOM     10  H   UNL     1       6.248   6.085  20.063  0.00  0.00    +0.000 HD
BRANCH   9  11
ATOM     11  O   UNL     1       8.038   5.178  20.573  0.00  0.00    +0.000 OA
ATOM     12  H   UNL     1       7.466   4.767  21.257  0.00  0.00    +0.000 HD
ENDBRANCH   9  11
ENDBRANCH   6   7
BRANCH   1  13
ATOM     13  S   UNL     1       4.101   4.097  18.374  0.00  0.00    +0.000 S 
ATOM     14  O   UNL     1       5.065   3.571  19.313  0.00  0.00    +0.000 OA
ATOM     15  O   UNL     1       3.061   3.252  17.835  0.00  0.00    +0.000 OA
BRANCH  13  19
ATOM     16  C   UNL     1       1.735   7.610  20.005  0.00  0.00    +0.000 A 
ATOM     17  C   UNL     1       1.915   6.455  20.766  0.00  0.00    +0.000 A 
ATOM     18  C   UNL     1       2.714   5.420  20.300  0.00  0.00    +0.000 A 
ATOM     19  C   UNL     1       3.346   5.539  19.061  0.00  0.00    +0.000 A 
ATOM     20  C   UNL     1       3.235   6.713  18.315  0.00  0.00    +0.000 A 
ATOM     21  C   UNL     1       2.423   7.748  18.791  0.00  0.00    +0.000 A 
BRANCH  16  22
ATOM     22  O   UNL     1       0.900   8.646  20.338  0.00  0.00    +0.000 OA
BRANCH  22  23
ATOM     23  C   UNL     1       0.858   9.727  19.399  0.00  0.00    +0.000 C 
BRANCH  23  24
ATOM     24  C   UNL     1      -0.564  10.250  19.271  0.00  0.00    +0.000 C 
BRANCH  24  25
ATOM     25  O   UNL     1      -0.631  11.562  19.835  0.00  0.00    +0.000 OA
BRANCH  25  27
ATOM     26  C   UNL     1      -0.343  13.475  18.418  0.00  0.00    +0.000 C 
ATOM     27  C   UNL     1       0.349  12.423  19.261  0.00  0.00    +0.000 C 
ENDBRANCH  25  27
ENDBRANCH  24  25
ENDBRANCH  23  24
ENDBRANCH  22  23
ENDBRANCH  16  22
ENDBRANCH  13  19
ENDBRANCH   1  13
BRANCH   3  28
ATOM     28  O   UNL     1       6.355   3.163  13.908  0.00  0.00    +0.000 OA
ATOM     29  H   UNL     1       5.773   3.214  13.128  0.00  0.00    +0.000 HD
ENDBRANCH   3  28
BRANCH   4  30
ATOM     30  O   UNL     1       7.849   5.615  14.013  0.00  0.00    +0.000 OA
ATOM     31  H   UNL     1       8.725   5.204  13.906  0.00  0.00    +0.000 HD
ENDBRANCH   4  30
BRANCH   5  32
ATOM     32  O   UNL     1       7.871   7.061  16.477  0.00  0.00    +0.000 OA
ATOM     33  H   UNL     1       8.700   6.603  16.235  0.00  0.00    +0.000 HD
ENDBRANCH   5  32
TORSDOF 12
ENDMDL
MODEL 9
REMARK VINA RESULT:      -7.7      2.467      3.358
REMARK  Name = 
REMARK  13 active torsions:
REMARK  status: ('A' for Active; 'I' for Inactive)
REMARK    1  A    between atoms: C_1  and  C_2
REMARK    2  A    between atoms: C_2  and  O_3
REMARK    3  A    between atoms: O_3  and  C_4
REMARK    4  A    between atoms: C_4  and  C_5
REMARK    5  A    between atoms: C_5  and  O_6
REMARK    6  A    between atoms: O_6  and  C_7
REMARK    7  A    between atoms: C_10  and  S_11
REMARK    8  A    between atoms: S_11  and  N_14
REMARK    9  A    between atoms: C_16  and  O_17
REMARK   10  A    between atoms: C_18  and  O_19
REMARK   11  A    between atoms: C_20  and  O_21
REMARK   12  A    between atoms: C_22  and  C_23
REMARK   13  A    between atoms: N_25  and  O_26
REMARK                            x       y       z     vdW  Elec       q    Type
REMARK                         _______ _______ _______ _____ _____    ______ ____
ROOT
ATOM      1  N   UNL     1       4.079   6.081  18.560  0.00  0.00    +0.000 NA
ATOM      2  C   UNL     1       3.994   6.268  17.081  0.00  0.00    +0.000 C 
ATOM      3  C   UNL     1       5.325   6.738  16.497  0.00  0.00    +0.000 C 
ATOM      4  C   UNL     1       6.410   5.703  16.816  0.00  0.00    +0.000 C 
ATOM      5  C   UNL     1       6.520   5.538  18.345  0.00  0.00    +0.000 C 
ATOM      6  C   UNL     1       5.175   5.141  19.004  0.00  0.00    +0.000 C 
ENDROOT
BRANCH   6   7
ATOM      7  C   UNL     1       4.909   3.647  18.787  0.00  0.00    +0.000 C 
ATOM      8  O   UNL     1       4.535   3.179  17.709  0.00  0.00    +0.000 OA
ATOM      9  N   UNL     1       5.160   2.835  19.872  0.00  0.00    +0.000 N 
ATOM     10  H   UNL     1       5.070   3.167  20.833  0.00  0.00    +0.000 HD
BRANCH   9  11
ATOM     11  O   UNL     1       4.871   1.461  19.676  0.00  0.00    +0.000 OA
ATOM     12  H   UNL     1       4.459   1.449  18.785  0.00  0.00    +0.000 HD
ENDBRANCH   9  11
ENDBRANCH   6   7
BRANCH   1  13
ATOM     13  S   UNL     1       2.568   5.745  19.294  0.00  0.00    +0.000 S 
ATOM     14  O   UNL     1       2.838   5.174  20.593  0.00  0.00    +0.000 OA
ATOM     15  O   UNL     1       1.801   5.013  18.314  0.00  0.00    +0.000 OA
BRANCH  13  19
ATOM     16  C   UNL     1       1.134  10.017  19.837  0.00  0.00    +0.000 A 
ATOM     17  C   UNL     1       1.463   9.529  18.573  0.00  0.00    +0.000 A 
ATOM     18  C   UNL     1       1.814   8.197  18.398  0.00  0.00    +0.000 A 
ATOM     19  C   UNL     1       1.834   7.339  19.499  0.00  0.00    +0.000 A 
ATOM     20  C   UNL     1       1.443   7.789  20.761  0.00  0.00    +0.000 A 
ATOM     21  C   UNL     1       1.096   9.134  20.926  0.00  0.00    +0.000 A 
BRANCH  16  22
ATOM     22  O   UNL     1       0.860  11.330  20.123  0.00  0.00    +0.000 OA
BRANCH  22  23
ATOM     23  C   UNL     1       0.652  12.176  18.986  0.00  0.00    +0.000 C 
BRANCH  23  24
ATOM     24  C   UNL     1      -0.828  12.485  18.830  0.00  0.00    +0.000 C 
BRANCH  24  25
ATOM     25  O   UNL     1      -1.366  11.673  17.783  0.00  0.00    +0.000 OA
BRANCH  25  27
ATOM     26  C   UNL     1      -2.798   9.856  17.156  0.00  0.00    +0.000 C 
ATOM     27  C   UNL     1      -2.307  10.731  18.291  0.00  0.00    +0.000 C 
ENDBRANCH  25  27
ENDBRANCH  24  25
ENDBRANCH  23  24
ENDBRANCH  22  23
ENDBRANCH  16  22
ENDBRANCH  13  19
ENDBRANCH   1  13
BRANCH   3  28
ATOM     28  O   UNL     1       5.178   6.948  15.093  0.00  0.00    +0.000 OA
ATOM     29  H   UNL     1       5.396   7.876  14.892  0.00  0.00    +0.000 HD
ENDBRANCH   3  28
BRANCH   4  30
ATOM     30  O   UNL     1       7.666   6.099  16.252  0.00  0.00    +0.000 OA
ATOM     31  H   UNL     1       7.731   7.069  16.287  0.00  0.00    +0.000 HD
ENDBRANCH   4  30
BRANCH   5  32
ATOM     32  O   UNL     1       7.567   4.627  18.699  0.00  0.00    +0.000 OA
ATOM     33  H   UNL     1       7.683   4.671  19.669  0.00  0.00    +0.000 HD
ENDBRANCH   5  32
TORSDOF 12
ENDMDL
