MODEL 1
REMARK VINA RESULT:      -8.9      0.000      0.000
REMARK  Name = 
REMARK  7 active torsions:
REMARK  status: ('A' for Active; 'I' for Inactive)
REMARK    1  A    between atoms: C_2  and  C_3
REMARK    2  A    between atoms: C_5  and  S_6
REMARK    3  A    between atoms: S_6  and  N_9
REMARK    4  A    between atoms: C_17  and  O_18
REMARK    5  A    between atoms: O_18  and  C_19
REMARK    6  A    between atoms: N_22  and  C_23
REMARK    7  A    between atoms: C_27  and  C_28
REMARK                            x       y       z     vdW  Elec       q    Type
REMARK                         _______ _______ _______ _____ _____    ______ ____
ROOT
ATOM      1  C   UNL     1       2.149   5.268  20.609  0.00  0.00    +0.000 A 
ATOM      2  C   UNL     1       1.525   6.406  21.158  0.00  0.00    +0.000 A 
ATOM      3  C   UNL     1       1.545   7.614  20.453  0.00  0.00    +0.000 A 
ATOM      4  C   UNL     1       2.206   7.715  19.231  0.00  0.00    +0.000 A 
ATOM      5  C   UNL     1       2.834   6.594  18.696  0.00  0.00    +0.000 A 
ATOM      6  C   UNL     1       2.780   5.358  19.361  0.00  0.00    +0.000 A 
ENDROOT
BRANCH   3   7
ATOM      7  S   UNL     1       0.868   9.091  21.178  0.00  0.00    +0.000 S 
ATOM      8  O   UNL     1      -0.550   8.862  21.355  0.00  0.00    +0.000 OA
ATOM      9  O   UNL     1       1.719   9.446  22.291  0.00  0.00    +0.000 OA
BRANCH   7  10
ATOM     10  N   UNL     1       1.010  10.191  19.898  0.00  0.00    +0.000 N 
ATOM     11  C   UNL     1      -0.164  10.967  19.766  0.00  0.00    +0.000 A 
ATOM     12  N   UNL     1      -1.056  10.620  18.873  0.00  0.00    +0.000 NA
ATOM     13  C   UNL     1      -2.126  11.491  18.960  0.00  0.00    +0.000 A 
ATOM     14  C   UNL     1      -1.966  12.549  19.831  0.00  0.00    +0.000 A 
ATOM     15  S   UNL     1      -0.447  12.417  20.621  0.00  0.00    +0.000 S 
ATOM     16  H   UNL     1       1.099   9.614  19.060  0.00  0.00    +0.000 HD
ENDBRANCH   7  10
ENDBRANCH   3   7
BRANCH   1  18
ATOM     17  N   UNL     1       2.191   3.081  22.009  0.00  0.00    +0.000 NA
ATOM     18  C   UNL     1       2.146   4.053  21.373  0.00  0.00    +0.000 C 
ENDBRANCH   1  18
BRANCH   6  19
ATOM     19  O   UNL     1       3.412   4.244  18.847  0.00  0.00    +0.000 OA
BRANCH  19  20
ATOM     20  C   UNL     1       4.464   4.363  18.007  0.00  0.00    +0.000 A 
ATOM     21  C   UNL     1       5.821   4.623  18.253  0.00  0.00    +0.000 A 
ATOM     22  N   UNL     1       6.548   4.587  17.135  0.00  0.00    +0.000 NA
ATOM     23  N   UNL     1       5.640   4.388  16.139  0.00  0.00    +0.000 N 
ATOM     24  C   UNL     1       4.365   4.234  16.646  0.00  0.00    +0.000 A 
BRANCH  23  25
ATOM     25  C   UNL     1       6.047   4.371  14.774  0.00  0.00    +0.000 A 
ATOM     26  C   UNL     1       7.264   4.942  14.383  0.00  0.00    +0.000 A 
ATOM     27  C   UNL     1       7.675   4.876  13.051  0.00  0.00    +0.000 A 
ATOM     28  C   UNL     1       6.869   4.259  12.095  0.00  0.00    +0.000 A 
ATOM     29  C   UNL     1       5.634   3.701  12.457  0.00  0.00    +0.000 A 
ATOM     30  C   UNL     1       5.235   3.754  13.806  0.00  0.00    +0.000 A 
BRANCH  29  31
ATOM     31  C   UNL     1       4.745   3.059  11.419  0.00  0.00    +0.000 C 
ATOM     32  F   UNL     1       3.486   2.799  11.874  0.00  0.00    +0.000 F 
ATOM     33  F   UNL     1       4.586   3.832  10.311  0.00  0.00    +0.000 F 
ATOM     34  F   UNL     1       5.231   1.865  10.981  0.00  0.00    +0.000 F 
ENDBRANCH  29  31
ENDBRANCH  23  25
ENDBRANCH  19  20
ENDBRANCH   6  19
TORSDOF 7
ENDMDL
MODEL 2
REMARK VINA RESULT:      -8.4      0.950      1.024
REMARK  Name = 
REMARK  7 active torsions:
REMARK  status: ('A' for Active; 'I' for Inactive)
REMARK    1  A    between atoms: C_2  and  C_3
REMARK    2  A    between atoms: C_5  and  S_6
REMARK    3  A    between atoms: S_6  and  N_9
REMARK    4  A    between atoms: C_17  and  O_18
REMARK    5  A    between atoms: O_18  and  C_19
REMARK    6  A    between atoms: N_22  and  C_23
REMARK    7  A    between atoms: C_27  and  C_28
REMARK                            x       y       z     vdW  Elec       q    Type
REMARK                         _______ _______ _______ _____ _____    ______ ____
ROOT
ATOM      1  C   UNL     1       2.235   5.528  20.478  0.00  0.00    +0.000 A 
ATOM      2  C   UNL     1       1.475   6.651  20.863  0.00  0.00    +0.000 A 
ATOM      3  C   UNL     1       1.516   7.814  20.086  0.00  0.00    +0.000 A 
ATOM      4  C   UNL     1       2.329   7.888  18.957  0.00  0.00    +0.000 A 
ATOM      5  C   UNL     1       3.089   6.783  18.586  0.00  0.00    +0.000 A 
ATOM      6  C   UNL     1       3.021   5.587  19.320  0.00  0.00    +0.000 A 
ENDROOT
BRANCH   3   7
ATOM      7  S   UNL     1       0.660   9.281  20.615  0.00  0.00    +0.000 S 
ATOM      8  O   UNL     1      -0.552   8.846  21.276  0.00  0.00    +0.000 OA
ATOM      9  O   UNL     1       1.627  10.117  21.289  0.00  0.00    +0.000 OA
BRANCH   7  10
ATOM     10  N   UNL     1       0.175   9.942  19.133  0.00  0.00    +0.000 N 
ATOM     11  C   UNL     1       0.314  11.348  19.137  0.00  0.00    +0.000 A 
ATOM     12  N   UNL     1      -0.736  12.088  19.383  0.00  0.00    +0.000 NA
ATOM     13  C   UNL     1      -0.350  13.416  19.379  0.00  0.00    +0.000 A 
ATOM     14  C   UNL     1       0.958  13.656  19.009  0.00  0.00    +0.000 A 
ATOM     15  S   UNL     1       1.755  12.163  18.718  0.00  0.00    +0.000 S 
ATOM     16  H   UNL     1      -0.821   9.727  19.059  0.00  0.00    +0.000 HD
ENDBRANCH   7  10
ENDBRANCH   3   7
BRANCH   1  18
ATOM     17  N   UNL     1       2.163   3.390  21.950  0.00  0.00    +0.000 NA
ATOM     18  C   UNL     1       2.202   4.363  21.315  0.00  0.00    +0.000 C 
ENDBRANCH   1  18
BRANCH   6  19
ATOM     19  O   UNL     1       3.782   4.492  18.969  0.00  0.00    +0.000 OA
BRANCH  19  20
ATOM     20  C   UNL     1       4.781   4.595  18.064  0.00  0.00    +0.000 A 
ATOM     21  C   UNL     1       6.143   4.895  18.219  0.00  0.00    +0.000 A 
ATOM     22  N   UNL     1       6.805   4.824  17.062  0.00  0.00    +0.000 NA
ATOM     23  N   UNL     1       5.846   4.562  16.130  0.00  0.00    +0.000 N 
ATOM     24  C   UNL     1       4.606   4.403  16.718  0.00  0.00    +0.000 A 
BRANCH  23  25
ATOM     25  C   UNL     1       6.173   4.492  14.746  0.00  0.00    +0.000 A 
ATOM     26  C   UNL     1       7.389   5.002  14.272  0.00  0.00    +0.000 A 
ATOM     27  C   UNL     1       7.720   4.884  12.921  0.00  0.00    +0.000 A 
ATOM     28  C   UNL     1       6.837   4.276  12.030  0.00  0.00    +0.000 A 
ATOM     29  C   UNL     1       5.603   3.780  12.475  0.00  0.00    +0.000 A 
ATOM     30  C   UNL     1       5.283   3.885  13.843  0.00  0.00    +0.000 A 
BRANCH  29  31
ATOM     31  C   UNL     1       4.631   3.149  11.508  0.00  0.00    +0.000 C 
ATOM     32  F   UNL     1       3.387   2.964  12.036  0.00  0.00    +0.000 F 
ATOM     33  F   UNL     1       4.448   3.893  10.384  0.00  0.00    +0.000 F 
ATOM     34  F   UNL     1       5.037   1.920  11.085  0.00  0.00    +0.000 F 
ENDBRANCH  29  31
ENDBRANCH  23  25
ENDBRANCH  19  20
ENDBRANCH   6  19
TORSDOF 7
ENDMDL
MODEL 3
REMARK VINA RESULT:      -8.3      6.838     11.158
REMARK  Name = 
REMARK  7 active torsions:
REMARK  status: ('A' for Active; 'I' for Inactive)
REMARK    1  A    between atoms: C_2  and  C_3
REMARK    2  A    between atoms: C_5  and  S_6
REMARK    3  A    between atoms: S_6  and  N_9
REMARK    4  A    between atoms: C_17  and  O_18
REMARK    5  A    between atoms: O_18  and  C_19
REMARK    6  A    between atoms: N_22  and  C_23
REMARK    7  A    between atoms: C_27  and  C_28
REMARK                            x       y       z     vdW  Elec       q    Type
REMARK                         _______ _______ _______ _____ _____    ______ ____
ROOT
ATOM      1  C   UNL     1       1.069   8.759  20.028  0.00  0.00    +0.000 A 
ATOM      2  C   UNL     1       1.922   7.648  19.877  0.00  0.00    +0.000 A 
ATOM      3  C   UNL     1       2.674   7.506  18.706  0.00  0.00    +0.000 A 
ATOM      4  C   UNL     1       2.562   8.433  17.671  0.00  0.00    +0.000 A 
ATOM      5  C   UNL     1       1.709   9.523  17.816  0.00  0.00    +0.000 A 
ATOM      6  C   UNL     1       0.986   9.713  19.005  0.00  0.00    +0.000 A 
ENDROOT
BRANCH   3   7
ATOM      7  S   UNL     1       3.666   6.053  18.442  0.00  0.00    +0.000 S 
ATOM      8  O   UNL     1       4.659   6.397  17.447  0.00  0.00    +0.000 OA
ATOM      9  O   UNL     1       4.046   5.557  19.745  0.00  0.00    +0.000 OA
BRANCH   7  10
ATOM     10  N   UNL     1       2.562   5.027  17.670  0.00  0.00    +0.000 N 
ATOM     11  C   UNL     1       2.329   3.865  18.440  0.00  0.00    +0.000 A 
ATOM     12  N   UNL     1       2.980   2.769  18.146  0.00  0.00    +0.000 NA
ATOM     13  C   UNL     1       2.625   1.789  19.056  0.00  0.00    +0.000 A 
ATOM     14  C   UNL     1       1.623   2.131  19.940  0.00  0.00    +0.000 A 
ATOM     15  S   UNL     1       1.150   3.759  19.670  0.00  0.00    +0.000 S 
ATOM     16  H   UNL     1       3.025   4.740  16.805  0.00  0.00    +0.000 HD
ENDBRANCH   7  10
ENDBRANCH   3   7
BRANCH   1  18
ATOM     17  N   UNL     1      -0.378   8.891  22.181  0.00  0.00    +0.000 NA
ATOM     18  C   UNL     1       0.281   8.858  21.224  0.00  0.00    +0.000 C 
ENDBRANCH   1  18
BRANCH   6  19
ATOM     19  O   UNL     1       0.126  10.782  19.153  0.00  0.00    +0.000 OA
BRANCH  19  20
ATOM     20  C   UNL     1      -1.101  10.777  18.585  0.00  0.00    +0.000 A 
ATOM     21  C   UNL     1      -1.581  10.147  17.426  0.00  0.00    +0.000 A 
ATOM     22  N   UNL     1      -2.890  10.344  17.257  0.00  0.00    +0.000 NA
ATOM     23  N   UNL     1      -3.247  11.184  18.269  0.00  0.00    +0.000 N 
ATOM     24  C   UNL     1      -2.177  11.450  19.100  0.00  0.00    +0.000 A 
BRANCH  23  25
ATOM     25  C   UNL     1      -4.577  11.683  18.368  0.00  0.00    +0.000 A 
ATOM     26  C   UNL     1      -5.312  11.995  17.217  0.00  0.00    +0.000 A 
ATOM     27  C   UNL     1      -6.632  12.437  17.325  0.00  0.00    +0.000 A 
ATOM     28  C   UNL     1      -7.223  12.590  18.578  0.00  0.00    +0.000 A 
ATOM     29  C   UNL     1      -6.500  12.308  19.747  0.00  0.00    +0.000 A 
ATOM     30  C   UNL     1      -5.176  11.844  19.630  0.00  0.00    +0.000 A 
BRANCH  29  31
ATOM     31  C   UNL     1      -7.127  12.502  21.106  0.00  0.00    +0.000 C 
ATOM     32  F   UNL     1      -6.212  12.641  22.108  0.00  0.00    +0.000 F 
ATOM     33  F   UNL     1      -7.916  13.609  21.169  0.00  0.00    +0.000 F 
ATOM     34  F   UNL     1      -7.917  11.455  21.472  0.00  0.00    +0.000 F 
ENDBRANCH  29  31
ENDBRANCH  23  25
ENDBRANCH  19  20
ENDBRANCH   6  19
TORSDOF 7
ENDMDL
MODEL 4
REMARK VINA RESULT:      -8.2      3.796      6.188
REMARK  Name = 
REMARK  7 active torsions:
REMARK  status: ('A' for Active; 'I' for Inactive)
REMARK    1  A    between atoms: C_2  and  C_3
REMARK    2  A    between atoms: C_5  and  S_6
REMARK    3  A    between atoms: S_6  and  N_9
REMARK    4  A    between atoms: C_17  and  O_18
REMARK    5  A    between atoms: O_18  and  C_19
REMARK    6  A    between atoms: N_22  and  C_23
REMARK    7  A    between atoms: C_27  and  C_28
REMARK                            x       y       z     vdW  Elec       q    Type
REMARK                         _______ _______ _______ _____ _____    ______ ____
ROOT
ATOM      1  C   UNL     1      -0.781  11.320  19.472  0.00  0.00    +0.000 A 
ATOM      2  C   UNL     1      -2.155  11.629  19.441  0.00  0.00    +0.000 A 
ATOM      3  C   UNL     1      -2.942  11.180  18.375  0.00  0.00    +0.000 A 
ATOM      4  C   UNL     1      -2.374  10.461  17.324  0.00  0.00    +0.000 A 
ATOM      5  C   UNL     1      -1.014  10.168  17.350  0.00  0.00    +0.000 A 
ATOM      6  C   UNL     1      -0.217  10.562  18.437  0.00  0.00    +0.000 A 
ENDROOT
BRANCH   3   7
ATOM      7  S   UNL     1      -4.651  11.657  18.252  0.00  0.00    +0.000 S 
ATOM      8  O   UNL     1      -4.887  12.025  16.872  0.00  0.00    +0.000 OA
ATOM      9  O   UNL     1      -5.427  10.624  18.899  0.00  0.00    +0.000 OA
BRANCH   7  10
ATOM     10  N   UNL     1      -4.662  13.104  19.133  0.00  0.00    +0.000 N 
ATOM     11  C   UNL     1      -5.872  13.250  19.849  0.00  0.00    +0.000 A 
ATOM     12  N   UNL     1      -6.823  13.991  19.340  0.00  0.00    +0.000 NA
ATOM     13  C   UNL     1      -7.915  13.948  20.188  0.00  0.00    +0.000 A 
ATOM     14  C   UNL     1      -7.721  13.275  21.377  0.00  0.00    +0.000 A 
ATOM     15  S   UNL     1      -6.136  12.615  21.411  0.00  0.00    +0.000 S 
ATOM     16  H   UNL     1      -4.623  13.844  18.430  0.00  0.00    +0.000 HD
ENDBRANCH   7  10
ENDBRANCH   3   7
BRANCH   1  18
ATOM     17  N   UNL     1       0.681  12.255  21.404  0.00  0.00    +0.000 NA
ATOM     18  C   UNL     1       0.008  11.826  20.559  0.00  0.00    +0.000 C 
ENDBRANCH   1  18
BRANCH   6  19
ATOM     19  O   UNL     1       1.135  10.290  18.465  0.00  0.00    +0.000 OA
BRANCH  19  20
ATOM     20  C   UNL     1       1.594   9.055  18.770  0.00  0.00    +0.000 A 
ATOM     21  C   UNL     1       1.463   8.280  19.932  0.00  0.00    +0.000 A 
ATOM     22  N   UNL     1       2.014   7.073  19.794  0.00  0.00    +0.000 NA
ATOM     23  N   UNL     1       2.587   7.095  18.557  0.00  0.00    +0.000 N 
ATOM     24  C   UNL     1       2.332   8.287  17.908  0.00  0.00    +0.000 A 
BRANCH  23  25
ATOM     25  C   UNL     1       3.346   5.986  18.085  0.00  0.00    +0.000 A 
ATOM     26  C   UNL     1       2.937   4.674  18.353  0.00  0.00    +0.000 A 
ATOM     27  C   UNL     1       3.662   3.595  17.844  0.00  0.00    +0.000 A 
ATOM     28  C   UNL     1       4.808   3.814  17.082  0.00  0.00    +0.000 A 
ATOM     29  C   UNL     1       5.252   5.118  16.820  0.00  0.00    +0.000 A 
ATOM     30  C   UNL     1       4.506   6.202  17.321  0.00  0.00    +0.000 A 
BRANCH  29  31
ATOM     31  C   UNL     1       6.510   5.359  16.020  0.00  0.00    +0.000 C 
ATOM     32  F   UNL     1       6.274   5.581  14.696  0.00  0.00    +0.000 F 
ATOM     33  F   UNL     1       7.212   6.440  16.457  0.00  0.00    +0.000 F 
ATOM     34  F   UNL     1       7.370   4.305  16.069  0.00  0.00    +0.000 F 
ENDBRANCH  29  31
ENDBRANCH  23  25
ENDBRANCH  19  20
ENDBRANCH   6  19
TORSDOF 7
ENDMDL
MODEL 5
REMARK VINA RESULT:      -8.1      7.333     11.842
REMARK  Name = 
REMARK  7 active torsions:
REMARK  status: ('A' for Active; 'I' for Inactive)
REMARK    1  A    between atoms: C_2  and  C_3
REMARK    2  A    between atoms: C_5  and  S_6
REMARK    3  A    between atoms: S_6  and  N_9
REMARK    4  A    between atoms: C_17  and  O_18
REMARK    5  A    between atoms: O_18  and  C_19
REMARK    6  A    between atoms: N_22  and  C_23
REMARK    7  A    between atoms: C_27  and  C_28
REMARK                            x       y       z     vdW  Elec       q    Type
REMARK                         _______ _______ _______ _____ _____    ______ ____
ROOT
ATOM      1  C   UNL     1       1.124   9.350  20.761  0.00  0.00    +0.000 A 
ATOM      2  C   UNL     1       1.772   8.153  20.398  0.00  0.00    +0.000 A 
ATOM      3  C   UNL     1       2.190   7.965  19.076  0.00  0.00    +0.000 A 
ATOM      4  C   UNL     1       1.938   8.933  18.105  0.00  0.00    +0.000 A 
ATOM      5  C   UNL     1       1.286  10.109  18.462  0.00  0.00    +0.000 A 
ATOM      6  C   UNL     1       0.907  10.342  19.795  0.00  0.00    +0.000 A 
ENDROOT
BRANCH   3   7
ATOM      7  S   UNL     1       2.902   6.417  18.567  0.00  0.00    +0.000 S 
ATOM      8  O   UNL     1       1.833   5.630  17.992  0.00  0.00    +0.000 OA
ATOM      9  O   UNL     1       4.098   6.726  17.816  0.00  0.00    +0.000 OA
BRANCH   7  10
ATOM     10  N   UNL     1       3.260   5.703  20.061  0.00  0.00    +0.000 N 
ATOM     11  C   UNL     1       2.645   4.436  20.176  0.00  0.00    +0.000 A 
ATOM     12  N   UNL     1       1.513   4.338  20.825  0.00  0.00    +0.000 NA
ATOM     13  C   UNL     1       1.084   3.024  20.765  0.00  0.00    +0.000 A 
ATOM     14  C   UNL     1       1.962   2.136  20.178  0.00  0.00    +0.000 A 
ATOM     15  S   UNL     1       3.348   2.983  19.621  0.00  0.00    +0.000 S 
ATOM     16  H   UNL     1       2.839   6.319  20.758  0.00  0.00    +0.000 HD
ENDBRANCH   7  10
ENDBRANCH   3   7
BRANCH   1  18
ATOM     17  N   UNL     1       0.357   9.633  23.226  0.00  0.00    +0.000 NA
ATOM     18  C   UNL     1       0.673   9.499  22.115  0.00  0.00    +0.000 C 
ENDBRANCH   1  18
BRANCH   6  19
ATOM     19  O   UNL     1       0.246  11.497  20.156  0.00  0.00    +0.000 OA
BRANCH  19  20
ATOM     20  C   UNL     1      -1.040  11.710  19.795  0.00  0.00    +0.000 A 
ATOM     21  C   UNL     1      -1.682  11.604  18.552  0.00  0.00    +0.000 A 
ATOM     22  N   UNL     1      -2.992  11.837  18.644  0.00  0.00    +0.000 NA
ATOM     23  N   UNL     1      -3.190  12.184  19.947  0.00  0.00    +0.000 N 
ATOM     24  C   UNL     1      -2.018  12.100  20.672  0.00  0.00    +0.000 A 
BRANCH  23  25
ATOM     25  C   UNL     1      -4.478  12.583  20.408  0.00  0.00    +0.000 A 
ATOM     26  C   UNL     1      -5.497  12.898  19.500  0.00  0.00    +0.000 A 
ATOM     27  C   UNL     1      -6.768  13.239  19.963  0.00  0.00    +0.000 A 
ATOM     28  C   UNL     1      -7.029  13.290  21.332  0.00  0.00    +0.000 A 
ATOM     29  C   UNL     1      -6.019  13.003  22.262  0.00  0.00    +0.000 A 
ATOM     30  C   UNL     1      -4.744  12.640  21.787  0.00  0.00    +0.000 A 
BRANCH  29  31
ATOM     31  C   UNL     1      -6.290  13.086  23.745  0.00  0.00    +0.000 C 
ATOM     32  F   UNL     1      -5.344  12.461  24.502  0.00  0.00    +0.000 F 
ATOM     33  F   UNL     1      -6.339  14.367  24.200  0.00  0.00    +0.000 F 
ATOM     34  F   UNL     1      -7.476  12.516  24.092  0.00  0.00    +0.000 F 
ENDBRANCH  29  31
ENDBRANCH  23  25
ENDBRANCH  19  20
ENDBRANCH   6  19
TORSDOF 7
ENDMDL
MODEL 6
REMARK VINA RESULT:      -8.1      6.342     11.667
REMARK  Name = 
REMARK  7 active torsions:
REMARK  status: ('A' for Active; 'I' for Inactive)
REMARK    1  A    between atoms: C_2  and  C_3
REMARK    2  A    between atoms: C_5  and  S_6
REMARK    3  A    between atoms: S_6  and  N_9
REMARK    4  A    between atoms: C_17  and  O_18
REMARK    5  A    between atoms: O_18  and  C_19
REMARK    6  A    between atoms: N_22  and  C_23
REMARK    7  A    between atoms: C_27  and  C_28
REMARK                            x       y       z     vdW  Elec       q    Type
REMARK                         _______ _______ _______ _____ _____    ______ ____
ROOT
ATOM      1  C   UNL     1       1.227   9.084  20.711  0.00  0.00    +0.000 A 
ATOM      2  C   UNL     1       1.685   7.758  20.579  0.00  0.00    +0.000 A 
ATOM      3  C   UNL     1       2.107   7.293  19.329  0.00  0.00    +0.000 A 
ATOM      4  C   UNL     1       2.044   8.115  18.205  0.00  0.00    +0.000 A 
ATOM      5  C   UNL     1       1.578   9.419  18.335  0.00  0.00    +0.000 A 
ATOM      6  C   UNL     1       1.201   9.924  19.590  0.00  0.00    +0.000 A 
ENDROOT
BRANCH   3   7
ATOM      7  S   UNL     1       2.577   5.591  19.112  0.00  0.00    +0.000 S 
ATOM      8  O   UNL     1       2.225   4.898  20.333  0.00  0.00    +0.000 OA
ATOM      9  O   UNL     1       2.060   5.168  17.830  0.00  0.00    +0.000 OA
BRANCH   7  10
ATOM     10  N   UNL     1       4.267   5.705  19.107  0.00  0.00    +0.000 N 
ATOM     11  C   UNL     1       4.791   5.396  17.832  0.00  0.00    +0.000 A 
ATOM     12  N   UNL     1       5.247   4.190  17.609  0.00  0.00    +0.000 NA
ATOM     13  C   UNL     1       5.660   4.112  16.292  0.00  0.00    +0.000 A 
ATOM     14  C   UNL     1       5.621   5.295  15.583  0.00  0.00    +0.000 A 
ATOM     15  S   UNL     1       4.982   6.539  16.579  0.00  0.00    +0.000 S 
ATOM     16  H   UNL     1       4.584   4.985  19.758  0.00  0.00    +0.000 HD
ENDBRANCH   7  10
ENDBRANCH   3   7
BRANCH   1  18
ATOM     17  N   UNL     1       0.441   9.879  23.055  0.00  0.00    +0.000 NA
ATOM     18  C   UNL     1       0.765   9.521  21.998  0.00  0.00    +0.000 C 
ENDBRANCH   1  18
BRANCH   6  19
ATOM     19  O   UNL     1       0.723  11.211  19.726  0.00  0.00    +0.000 OA
BRANCH  19  20
ATOM     20  C   UNL     1      -0.571  11.507  19.474  0.00  0.00    +0.000 A 
ATOM     21  C   UNL     1      -1.306  11.502  18.278  0.00  0.00    +0.000 A 
ATOM     22  N   UNL     1      -2.592  11.795  18.481  0.00  0.00    +0.000 NA
ATOM     23  N   UNL     1      -2.677  12.078  19.811  0.00  0.00    +0.000 N 
ATOM     24  C   UNL     1      -1.461  11.896  20.441  0.00  0.00    +0.000 A 
BRANCH  23  25
ATOM     25  C   UNL     1      -3.904  12.514  20.387  0.00  0.00    +0.000 A 
ATOM     26  C   UNL     1      -5.026  12.757  19.583  0.00  0.00    +0.000 A 
ATOM     27  C   UNL     1      -6.237  13.136  20.164  0.00  0.00    +0.000 A 
ATOM     28  C   UNL     1      -6.335  13.297  21.545  0.00  0.00    +0.000 A 
ATOM     29  C   UNL     1      -5.221  13.084  22.370  0.00  0.00    +0.000 A 
ATOM     30  C   UNL     1      -4.007  12.683  21.779  0.00  0.00    +0.000 A 
BRANCH  29  31
ATOM     31  C   UNL     1      -5.316  13.286  23.863  0.00  0.00    +0.000 C 
ATOM     32  F   UNL     1      -4.905  12.202  24.581  0.00  0.00    +0.000 F 
ATOM     33  F   UNL     1      -4.560  14.329  24.302  0.00  0.00    +0.000 F 
ATOM     34  F   UNL     1      -6.588  13.541  24.276  0.00  0.00    +0.000 F 
ENDBRANCH  29  31
ENDBRANCH  23  25
ENDBRANCH  19  20
ENDBRANCH   6  19
TORSDOF 7
ENDMDL
MODEL 7
REMARK VINA RESULT:      -8.1      3.993      7.040
REMARK  Name = 
REMARK  7 active torsions:
REMARK  status: ('A' for Active; 'I' for Inactive)
REMARK    1  A    between atoms: C_2  and  C_3
REMARK    2  A    between atoms: C_5  and  S_6
REMARK    3  A    between atoms: S_6  and  N_9
REMARK    4  A    between atoms: C_17  and  O_18
REMARK    5  A    between atoms: O_18  and  C_19
REMARK    6  A    between atoms: N_22  and  C_23
REMARK    7  A    between atoms: C_27  and  C_28
REMARK                            x       y       z     vdW  Elec       q    Type
REMARK                         _______ _______ _______ _____ _____    ______ ____
ROOT
ATOM      1  C   UNL     1      -1.393  12.291  20.130  0.00  0.00    +0.000 A 
ATOM      2  C   UNL     1      -2.753  12.615  20.302  0.00  0.00    +0.000 A 
ATOM      3  C   UNL     1      -3.689  12.202  19.348  0.00  0.00    +0.000 A 
ATOM      4  C   UNL     1      -3.286  11.506  18.210  0.00  0.00    +0.000 A 
ATOM      5  C   UNL     1      -1.940  11.198  18.035  0.00  0.00    +0.000 A 
ATOM      6  C   UNL     1      -0.992  11.556  19.007  0.00  0.00    +0.000 A 
ENDROOT
BRANCH   3   7
ATOM      7  S   UNL     1      -5.392  12.700  19.481  0.00  0.00    +0.000 S 
ATOM      8  O   UNL     1      -5.397  14.034  20.042  0.00  0.00    +0.000 OA
ATOM      9  O   UNL     1      -6.018  12.415  18.210  0.00  0.00    +0.000 OA
BRANCH   7  10
ATOM     10  N   UNL     1      -5.949  11.672  20.707  0.00  0.00    +0.000 N 
ATOM     11  C   UNL     1      -6.349  12.411  21.843  0.00  0.00    +0.000 A 
ATOM     12  N   UNL     1      -5.516  12.535  22.844  0.00  0.00    +0.000 NA
ATOM     13  C   UNL     1      -6.104  13.330  23.810  0.00  0.00    +0.000 A 
ATOM     14  C   UNL     1      -7.416  13.687  23.572  0.00  0.00    +0.000 A 
ATOM     15  S   UNL     1      -7.914  13.062  22.053  0.00  0.00    +0.000 S 
ATOM     16  H   UNL     1      -5.139  11.108  20.970  0.00  0.00    +0.000 HD
ENDBRANCH   7  10
ENDBRANCH   3   7
BRANCH   1  18
ATOM     17  N   UNL     1       0.350  13.141  21.858  0.00  0.00    +0.000 NA
ATOM     18  C   UNL     1      -0.450  12.761  21.105  0.00  0.00    +0.000 C 
ENDBRANCH   1  18
BRANCH   6  19
ATOM     19  O   UNL     1       0.347  11.269  18.835  0.00  0.00    +0.000 OA
BRANCH  19  20
ATOM     20  C   UNL     1       0.864  10.083  19.227  0.00  0.00    +0.000 A 
ATOM     21  C   UNL     1       0.855   9.436  20.473  0.00  0.00    +0.000 A 
ATOM     22  N   UNL     1       1.425   8.231  20.414  0.00  0.00    +0.000 NA
ATOM     23  N   UNL     1       1.888   8.130  19.136  0.00  0.00    +0.000 N 
ATOM     24  C   UNL     1       1.545   9.240  18.390  0.00  0.00    +0.000 A 
BRANCH  23  25
ATOM     25  C   UNL     1       2.633   6.990  18.719  0.00  0.00    +0.000 A 
ATOM     26  C   UNL     1       2.420   5.739  19.312  0.00  0.00    +0.000 A 
ATOM     27  C   UNL     1       3.121   4.620  18.861  0.00  0.00    +0.000 A 
ATOM     28  C   UNL     1       4.053   4.740  17.831  0.00  0.00    +0.000 A 
ATOM     29  C   UNL     1       4.302   5.986  17.237  0.00  0.00    +0.000 A 
ATOM     30  C   UNL     1       3.578   7.108  17.684  0.00  0.00    +0.000 A 
BRANCH  29  31
ATOM     31  C   UNL     1       5.332   6.126  16.142  0.00  0.00    +0.000 C 
ATOM     32  F   UNL     1       4.958   6.991  15.157  0.00  0.00    +0.000 F 
ATOM     33  F   UNL     1       6.529   6.584  16.601  0.00  0.00    +0.000 F 
ATOM     34  F   UNL     1       5.594   4.946  15.517  0.00  0.00    +0.000 F 
ENDBRANCH  29  31
ENDBRANCH  23  25
ENDBRANCH  19  20
ENDBRANCH   6  19
TORSDOF 7
ENDMDL
MODEL 8
REMARK VINA RESULT:      -8.1      1.626      2.072
REMARK  Name = 
REMARK  7 active torsions:
REMARK  status: ('A' for Active; 'I' for Inactive)
REMARK    1  A    between atoms: C_2  and  C_3
REMARK    2  A    between atoms: C_5  and  S_6
REMARK    3  A    between atoms: S_6  and  N_9
REMARK    4  A    between atoms: C_17  and  O_18
REMARK    5  A    between atoms: O_18  and  C_19
REMARK    6  A    between atoms: N_22  and  C_23
REMARK    7  A    between atoms: C_27  and  C_28
REMARK                            x       y       z     vdW  Elec       q    Type
REMARK                         _______ _______ _______ _____ _____    ______ ____
ROOT
ATOM      1  C   UNL     1       2.448   6.274  19.650  0.00  0.00    +0.000 A 
ATOM      2  C   UNL     1       1.676   7.445  19.787  0.00  0.00    +0.000 A 
ATOM      3  C   UNL     1       1.843   8.494  18.876  0.00  0.00    +0.000 A 
ATOM      4  C   UNL     1       2.790   8.408  17.857  0.00  0.00    +0.000 A 
ATOM      5  C   UNL     1       3.560   7.256  17.731  0.00  0.00    +0.000 A 
ATOM      6  C   UNL     1       3.371   6.170  18.602  0.00  0.00    +0.000 A 
ENDROOT
BRANCH   3   7
ATOM      7  S   UNL     1       0.969  10.027  19.097  0.00  0.00    +0.000 S 
ATOM      8  O   UNL     1       1.761  11.059  18.463  0.00  0.00    +0.000 OA
ATOM      9  O   UNL     1      -0.405   9.791  18.715  0.00  0.00    +0.000 OA
BRANCH   7  10
ATOM     10  N   UNL     1       1.129  10.270  20.765  0.00  0.00    +0.000 N 
ATOM     11  C   UNL     1       0.524  11.485  21.160  0.00  0.00    +0.000 A 
ATOM     12  N   UNL     1       1.274  12.546  21.313  0.00  0.00    +0.000 NA
ATOM     13  C   UNL     1       0.463  13.613  21.653  0.00  0.00    +0.000 A 
ATOM     14  C   UNL     1      -0.866  13.308  21.868  0.00  0.00    +0.000 A 
ATOM     15  S   UNL     1      -1.126  11.637  21.572  0.00  0.00    +0.000 S 
ATOM     16  H   UNL     1       2.134  10.355  20.927  0.00  0.00    +0.000 HD
ENDBRANCH   7  10
ENDBRANCH   3   7
BRANCH   1  18
ATOM     17  N   UNL     1       2.195   4.398  21.428  0.00  0.00    +0.000 NA
ATOM     18  C   UNL     1       2.282   5.231  20.622  0.00  0.00    +0.000 C 
ENDBRANCH   1  18
BRANCH   6  19
ATOM     19  O   UNL     1       4.140   5.030  18.495  0.00  0.00    +0.000 OA
BRANCH  19  20
ATOM     20  C   UNL     1       5.165   4.957  17.616  0.00  0.00    +0.000 A 
ATOM     21  C   UNL     1       6.552   5.064  17.802  0.00  0.00    +0.000 A 
ATOM     22  N   UNL     1       7.225   4.859  16.668  0.00  0.00    +0.000 NA
ATOM     23  N   UNL     1       6.261   4.703  15.717  0.00  0.00    +0.000 N 
ATOM     24  C   UNL     1       4.997   4.745  16.273  0.00  0.00    +0.000 A 
BRANCH  23  25
ATOM     25  C   UNL     1       6.609   4.539  14.346  0.00  0.00    +0.000 A 
ATOM     26  C   UNL     1       7.520   5.405  13.730  0.00  0.00    +0.000 A 
ATOM     27  C   UNL     1       7.891   5.205  12.399  0.00  0.00    +0.000 A 
ATOM     28  C   UNL     1       7.343   4.153  11.667  0.00  0.00    +0.000 A 
ATOM     29  C   UNL     1       6.409   3.286  12.253  0.00  0.00    +0.000 A 
ATOM     30  C   UNL     1       6.054   3.483  13.602  0.00  0.00    +0.000 A 
BRANCH  29  31
ATOM     31  C   UNL     1       5.790   2.164  11.454  0.00  0.00    +0.000 C 
ATOM     32  F   UNL     1       6.496   1.848  10.331  0.00  0.00    +0.000 F 
ATOM     33  F   UNL     1       5.687   1.007  12.164  0.00  0.00    +0.000 F 
ATOM     34  F   UNL     1       4.532   2.458  11.027  0.00  0.00    +0.000 F 
ENDBRANCH  29  31
ENDBRANCH  23  25
ENDBRANCH  19  20
ENDBRANCH   6  19
TORSDOF 7
ENDMDL
MODEL 9
REMARK VINA RESULT:      -8.1      4.912      7.095
REMARK  Name = 
REMARK  7 active torsions:
REMARK  status: ('A' for Active; 'I' for Inactive)
REMARK    1  A    between atoms: C_2  and  C_3
REMARK    2  A    between atoms: C_5  and  S_6
REMARK    3  A    between atoms: S_6  and  N_9
REMARK    4  A    between atoms: C_17  and  O_18
REMARK    5  A    between atoms: O_18  and  C_19
REMARK    6  A    between atoms: N_22  and  C_23
REMARK    7  A    between atoms: C_27  and  C_28
REMARK                            x       y       z     vdW  Elec       q    Type
REMARK                         _______ _______ _______ _____ _____    ______ ____
ROOT
ATOM      1  C   UNL     1      -1.148  11.310  19.955  0.00  0.00    +0.000 A 
ATOM      2  C   UNL     1      -2.504  11.528  19.644  0.00  0.00    +0.000 A 
ATOM      3  C   UNL     1      -3.052  10.954  18.491  0.00  0.00    +0.000 A 
ATOM      4  C   UNL     1      -2.261  10.198  17.628  0.00  0.00    +0.000 A 
ATOM      5  C   UNL     1      -0.918   9.995  17.929  0.00  0.00    +0.000 A 
ATOM      6  C   UNL     1      -0.362  10.517  19.109  0.00  0.00    +0.000 A 
ENDROOT
BRANCH   3   7
ATOM      7  S   UNL     1      -4.728  11.312  18.015  0.00  0.00    +0.000 S 
ATOM      8  O   UNL     1      -4.747  11.391  16.570  0.00  0.00    +0.000 OA
ATOM      9  O   UNL     1      -5.579  10.388  18.730  0.00  0.00    +0.000 OA
BRANCH   7  10
ATOM     10  N   UNL     1      -4.907  12.900  18.575  0.00  0.00    +0.000 N 
ATOM     11  C   UNL     1      -5.904  12.975  19.573  0.00  0.00    +0.000 A 
ATOM     12  N   UNL     1      -7.109  13.357  19.238  0.00  0.00    +0.000 NA
ATOM     13  C   UNL     1      -7.914  13.308  20.361  0.00  0.00    +0.000 A 
ATOM     14  C   UNL     1      -7.270  13.009  21.545  0.00  0.00    +0.000 A 
ATOM     15  S   UNL     1      -5.608  12.713  21.234  0.00  0.00    +0.000 S 
ATOM     16  H   UNL     1      -5.234  13.432  17.766  0.00  0.00    +0.000 HD
ENDBRANCH   7  10
ENDBRANCH   3   7
BRANCH   1  18
ATOM     17  N   UNL     1      -0.135  12.413  22.076  0.00  0.00    +0.000 NA
ATOM     18  C   UNL     1      -0.605  11.943  21.123  0.00  0.00    +0.000 C 
ENDBRANCH   1  18
BRANCH   6  19
ATOM     19  O   UNL     1       0.972  10.333  19.409  0.00  0.00    +0.000 OA
BRANCH  19  20
ATOM     20  C   UNL     1       1.665   9.285  18.908  0.00  0.00    +0.000 A 
ATOM     21  C   UNL     1       2.282   9.095  17.662  0.00  0.00    +0.000 A 
ATOM     22  N   UNL     1       2.928   7.929  17.597  0.00  0.00    +0.000 NA
ATOM     23  N   UNL     1       2.655   7.316  18.783  0.00  0.00    +0.000 N 
ATOM     24  C   UNL     1       1.899   8.129  19.605  0.00  0.00    +0.000 A 
BRANCH  23  25
ATOM     25  C   UNL     1       3.122   5.997  19.047  0.00  0.00    +0.000 A 
ATOM     26  C   UNL     1       4.407   5.601  18.655  0.00  0.00    +0.000 A 
ATOM     27  C   UNL     1       4.872   4.322  18.963  0.00  0.00    +0.000 A 
ATOM     28  C   UNL     1       4.055   3.421  19.644  0.00  0.00    +0.000 A 
ATOM     29  C   UNL     1       2.755   3.784  20.025  0.00  0.00    +0.000 A 
ATOM     30  C   UNL     1       2.299   5.083  19.729  0.00  0.00    +0.000 A 
BRANCH  29  31
ATOM     31  C   UNL     1       1.857   2.801  20.736  0.00  0.00    +0.000 C 
ATOM     32  F   UNL     1       1.608   1.674  20.009  0.00  0.00    +0.000 F 
ATOM     33  F   UNL     1       2.377   2.371  21.917  0.00  0.00    +0.000 F 
ATOM     34  F   UNL     1       0.636   3.326  21.031  0.00  0.00    +0.000 F 
ENDBRANCH  29  31
ENDBRANCH  23  25
ENDBRANCH  19  20
ENDBRANCH   6  19
TORSDOF 7
ENDMDL
