MODEL 1
REMARK VINA RESULT:      -8.0      0.000      0.000
REMARK  Name = 
REMARK  7 active torsions:
REMARK  status: ('A' for Active; 'I' for Inactive)
REMARK    1  A    between atoms: C_2  and  C_3
REMARK    2  A    between atoms: C_2  and  C_15
REMARK    3  A    between atoms: C_3  and  P_4
REMARK    4  A    between atoms: P_4  and  O_7
REMARK    5  A    between atoms: O_7  and  C_8
REMARK    6  A    between atoms: C_8  and  C_9
REMARK    7  A    between atoms: C_18  and  C_19
REMARK                            x       y       z     vdW  Elec       q    Type
REMARK                         _______ _______ _______ _____ _____    ______ ____
ROOT
ATOM      1  O   UNL     1       4.160   7.244  16.128  0.00  0.00    +0.000 OA
ATOM      2  C   UNL     1       4.076   6.875  17.313  0.00  0.00    +0.000 C 
ENDROOT
BRANCH   2   3
ATOM      3  C   UNL     1       3.022   7.482  18.180  0.00  0.00    +0.000 A 
ATOM      4  C   UNL     1       2.391   8.665  17.781  0.00  0.00    +0.000 A 
ATOM      5  C   UNL     1       1.526   9.337  18.661  0.00  0.00    +0.000 A 
ATOM      6  C   UNL     1       1.257   8.829  19.951  0.00  0.00    +0.000 A 
ATOM      7  C   UNL     1       1.866   7.615  20.294  0.00  0.00    +0.000 A 
ATOM      8  C   UNL     1       2.730   6.962  19.437  0.00  0.00    +0.000 A 
BRANCH   6   9
ATOM      9  C   UNL     1       0.396   9.520  20.930  0.00  0.00    +0.000 A 
ATOM     10  C   UNL     1       0.243   9.062  22.247  0.00  0.00    +0.000 A 
ATOM     11  C   UNL     1      -0.517   9.778  23.178  0.00  0.00    +0.000 A 
ATOM     12  C   UNL     1      -1.131  10.970  22.815  0.00  0.00    +0.000 A 
ATOM     13  C   UNL     1      -1.015  11.441  21.512  0.00  0.00    +0.000 A 
ATOM     14  C   UNL     1      -0.276  10.711  20.581  0.00  0.00    +0.000 A 
ENDBRANCH   6   9
ENDBRANCH   2   3
BRANCH   2  15
ATOM     15  C   UNL     1       5.110   5.948  17.935  0.00  0.00    +0.000 C 
BRANCH  15  16
ATOM     16  P   UNL     1       4.697   4.177  17.725  0.00  0.00    +0.000 P 
ATOM     17  O   UNL     1       5.348   4.210  16.323  0.00  0.00    +0.000 OA
ATOM     18  O   UNL     1       5.691   3.801  18.824  0.00  0.00    +0.000 OA
BRANCH  16  19
ATOM     19  O   UNL     1       4.307   2.504  17.527  0.00  0.00    +0.000 OA
BRANCH  19  20
ATOM     20  C   UNL     1       2.912   2.241  17.609  0.00  0.00    +0.000 C 
BRANCH  20  21
ATOM     21  C   UNL     1       2.372   2.654  18.954  0.00  0.00    +0.000 A 
ATOM     22  C   UNL     1       2.962   2.209  20.144  0.00  0.00    +0.000 A 
ATOM     23  C   UNL     1       2.465   2.617  21.384  0.00  0.00    +0.000 A 
ATOM     24  C   UNL     1       1.379   3.487  21.445  0.00  0.00    +0.000 A 
ATOM     25  C   UNL     1       0.789   3.950  20.271  0.00  0.00    +0.000 A 
ATOM     26  C   UNL     1       1.284   3.541  19.031  0.00  0.00    +0.000 A 
ENDBRANCH  20  21
ENDBRANCH  19  20
ENDBRANCH  16  19
ENDBRANCH  15  16
ENDBRANCH   2  15
TORSDOF 7
ENDMDL
MODEL 2
REMARK VINA RESULT:      -7.8      1.152      2.133
REMARK  Name = 
REMARK  7 active torsions:
REMARK  status: ('A' for Active; 'I' for Inactive)
REMARK    1  A    between atoms: C_2  and  C_3
REMARK    2  A    between atoms: C_2  and  C_15
REMARK    3  A    between atoms: C_3  and  P_4
REMARK    4  A    between atoms: P_4  and  O_7
REMARK    5  A    between atoms: O_7  and  C_8
REMARK    6  A    between atoms: C_8  and  C_9
REMARK    7  A    between atoms: C_18  and  C_19
REMARK                            x       y       z     vdW  Elec       q    Type
REMARK                         _______ _______ _______ _____ _____    ______ ____
ROOT
ATOM      1  O   UNL     1       2.221   5.602  17.597  0.00  0.00    +0.000 OA
ATOM      2  C   UNL     1       2.900   6.284  18.385  0.00  0.00    +0.000 C 
ENDROOT
BRANCH   2   3
ATOM      3  C   UNL     1       2.233   7.391  19.134  0.00  0.00    +0.000 A 
ATOM      4  C   UNL     1       1.849   7.197  20.465  0.00  0.00    +0.000 A 
ATOM      5  C   UNL     1       1.070   8.162  21.125  0.00  0.00    +0.000 A 
ATOM      6  C   UNL     1       0.678   9.353  20.474  0.00  0.00    +0.000 A 
ATOM      7  C   UNL     1       1.127   9.535  19.159  0.00  0.00    +0.000 A 
ATOM      8  C   UNL     1       1.877   8.580  18.504  0.00  0.00    +0.000 A 
BRANCH   6   9
ATOM      9  C   UNL     1      -0.179  10.376  21.105  0.00  0.00    +0.000 A 
ATOM     10  C   UNL     1      -0.817  11.381  20.362  0.00  0.00    +0.000 A 
ATOM     11  C   UNL     1      -1.686  12.290  20.973  0.00  0.00    +0.000 A 
ATOM     12  C   UNL     1      -1.944  12.209  22.335  0.00  0.00    +0.000 A 
ATOM     13  C   UNL     1      -1.313  11.237  23.103  0.00  0.00    +0.000 A 
ATOM     14  C   UNL     1      -0.428  10.347  22.494  0.00  0.00    +0.000 A 
ENDBRANCH   6   9
ENDBRANCH   2   3
BRANCH   2  15
ATOM     15  C   UNL     1       4.410   6.122  18.483  0.00  0.00    +0.000 C 
BRANCH  15  16
ATOM     16  P   UNL     1       4.914   4.436  18.986  0.00  0.00    +0.000 P 
ATOM     17  O   UNL     1       5.150   4.082  17.499  0.00  0.00    +0.000 OA
ATOM     18  O   UNL     1       6.167   4.997  19.660  0.00  0.00    +0.000 OA
BRANCH  16  19
ATOM     19  O   UNL     1       5.391   2.843  19.462  0.00  0.00    +0.000 OA
BRANCH  19  20
ATOM     20  C   UNL     1       4.527   2.267  20.432  0.00  0.00    +0.000 C 
BRANCH  20  21
ATOM     21  C   UNL     1       3.086   2.563  20.105  0.00  0.00    +0.000 A 
ATOM     22  C   UNL     1       2.319   3.420  20.903  0.00  0.00    +0.000 A 
ATOM     23  C   UNL     1       0.991   3.703  20.575  0.00  0.00    +0.000 A 
ATOM     24  C   UNL     1       0.421   3.142  19.435  0.00  0.00    +0.000 A 
ATOM     25  C   UNL     1       1.175   2.299  18.622  0.00  0.00    +0.000 A 
ATOM     26  C   UNL     1       2.502   2.013  18.950  0.00  0.00    +0.000 A 
ENDBRANCH  20  21
ENDBRANCH  19  20
ENDBRANCH  16  19
ENDBRANCH  15  16
ENDBRANCH   2  15
TORSDOF 7
ENDMDL
MODEL 3
REMARK VINA RESULT:      -7.4      3.997      6.347
REMARK  Name = 
REMARK  7 active torsions:
REMARK  status: ('A' for Active; 'I' for Inactive)
REMARK    1  A    between atoms: C_2  and  C_3
REMARK    2  A    between atoms: C_2  and  C_15
REMARK    3  A    between atoms: C_3  and  P_4
REMARK    4  A    between atoms: P_4  and  O_7
REMARK    5  A    between atoms: O_7  and  C_8
REMARK    6  A    between atoms: C_8  and  C_9
REMARK    7  A    between atoms: C_18  and  C_19
REMARK                            x       y       z     vdW  Elec       q    Type
REMARK                         _______ _______ _______ _____ _____    ______ ____
ROOT
ATOM      1  O   UNL     1       4.555   5.227  16.042  0.00  0.00    +0.000 OA
ATOM      2  C   UNL     1       4.791   5.638  17.192  0.00  0.00    +0.000 C 
ENDROOT
BRANCH   2   3
ATOM      3  C   UNL     1       3.733   6.410  17.908  0.00  0.00    +0.000 A 
ATOM      4  C   UNL     1       3.272   7.618  17.373  0.00  0.00    +0.000 A 
ATOM      5  C   UNL     1       2.406   8.437  18.117  0.00  0.00    +0.000 A 
ATOM      6  C   UNL     1       1.965   8.055  19.404  0.00  0.00    +0.000 A 
ATOM      7  C   UNL     1       2.406   6.814  19.883  0.00  0.00    +0.000 A 
ATOM      8  C   UNL     1       3.270   6.017  19.160  0.00  0.00    +0.000 A 
BRANCH   6   9
ATOM      9  C   UNL     1       1.095   8.900  20.245  0.00  0.00    +0.000 A 
ATOM     10  C   UNL     1       0.450  10.042  19.745  0.00  0.00    +0.000 A 
ATOM     11  C   UNL     1      -0.430  10.781  20.541  0.00  0.00    +0.000 A 
ATOM     12  C   UNL     1      -0.692  10.391  21.848  0.00  0.00    +0.000 A 
ATOM     13  C   UNL     1      -0.055   9.276  22.380  0.00  0.00    +0.000 A 
ATOM     14  C   UNL     1       0.841   8.555  21.590  0.00  0.00    +0.000 A 
ENDBRANCH   6   9
ENDBRANCH   2   3
BRANCH   2  15
ATOM     15  C   UNL     1       6.173   5.511  17.817  0.00  0.00    +0.000 C 
BRANCH  15  16
ATOM     16  P   UNL     1       7.137   7.064  17.734  0.00  0.00    +0.000 P 
ATOM     17  O   UNL     1       8.085   6.513  18.825  0.00  0.00    +0.000 OA
ATOM     18  O   UNL     1       7.604   6.715  16.321  0.00  0.00    +0.000 OA
BRANCH  16  19
ATOM     19  O   UNL     1       8.049   8.532  17.656  0.00  0.00    +0.000 OA
BRANCH  19  20
ATOM     20  C   UNL     1       8.735   8.828  18.865  0.00  0.00    +0.000 C 
BRANCH  20  21
ATOM     21  C   UNL     1       9.080  10.293  18.937  0.00  0.00    +0.000 A 
ATOM     22  C   UNL     1       8.765  11.167  17.889  0.00  0.00    +0.000 A 
ATOM     23  C   UNL     1       9.070  12.528  17.979  0.00  0.00    +0.000 A 
ATOM     24  C   UNL     1       9.681  13.029  19.125  0.00  0.00    +0.000 A 
ATOM     25  C   UNL     1       9.987  12.176  20.183  0.00  0.00    +0.000 A 
ATOM     26  C   UNL     1       9.684  10.816  20.094  0.00  0.00    +0.000 A 
ENDBRANCH  20  21
ENDBRANCH  19  20
ENDBRANCH  16  19
ENDBRANCH  15  16
ENDBRANCH   2  15
TORSDOF 7
ENDMDL
MODEL 4
REMARK VINA RESULT:      -7.3      1.489      2.230
REMARK  Name = 
REMARK  7 active torsions:
REMARK  status: ('A' for Active; 'I' for Inactive)
REMARK    1  A    between atoms: C_2  and  C_3
REMARK    2  A    between atoms: C_2  and  C_15
REMARK    3  A    between atoms: C_3  and  P_4
REMARK    4  A    between atoms: P_4  and  O_7
REMARK    5  A    between atoms: O_7  and  C_8
REMARK    6  A    between atoms: C_8  and  C_9
REMARK    7  A    between atoms: C_18  and  C_19
REMARK                            x       y       z     vdW  Elec       q    Type
REMARK                         _______ _______ _______ _____ _____    ______ ____
ROOT
ATOM      1  O   UNL     1       1.954   5.492  17.705  0.00  0.00    +0.000 OA
ATOM      2  C   UNL     1       2.768   6.318  18.154  0.00  0.00    +0.000 C 
ENDROOT
BRANCH   2   3
ATOM      3  C   UNL     1       2.254   7.619  18.676  0.00  0.00    +0.000 A 
ATOM      4  C   UNL     1       1.811   7.711  20.000  0.00  0.00    +0.000 A 
ATOM      5  C   UNL     1       1.168   8.876  20.452  0.00  0.00    +0.000 A 
ATOM      6  C   UNL     1       0.974   9.982  19.596  0.00  0.00    +0.000 A 
ATOM      7  C   UNL     1       1.479   9.872  18.293  0.00  0.00    +0.000 A 
ATOM      8  C   UNL     1       2.095   8.722  17.842  0.00  0.00    +0.000 A 
BRANCH   6   9
ATOM      9  C   UNL     1       0.262  11.208  20.006  0.00  0.00    +0.000 A 
ATOM     10  C   UNL     1       0.935  12.324  20.530  0.00  0.00    +0.000 A 
ATOM     11  C   UNL     1       0.248  13.502  20.838  0.00  0.00    +0.000 A 
ATOM     12  C   UNL     1      -1.121  13.595  20.621  0.00  0.00    +0.000 A 
ATOM     13  C   UNL     1      -1.820  12.501  20.122  0.00  0.00    +0.000 A 
ATOM     14  C   UNL     1      -1.134  11.320  19.838  0.00  0.00    +0.000 A 
ENDBRANCH   6   9
ENDBRANCH   2   3
BRANCH   2  15
ATOM     15  C   UNL     1       4.270   6.102  18.040  0.00  0.00    +0.000 C 
BRANCH  15  16
ATOM     16  P   UNL     1       4.838   4.584  18.888  0.00  0.00    +0.000 P 
ATOM     17  O   UNL     1       5.381   4.054  17.540  0.00  0.00    +0.000 OA
ATOM     18  O   UNL     1       5.881   5.390  19.663  0.00  0.00    +0.000 OA
BRANCH  16  19
ATOM     19  O   UNL     1       5.376   3.148  19.691  0.00  0.00    +0.000 OA
BRANCH  19  20
ATOM     20  C   UNL     1       4.507   2.041  19.495  0.00  0.00    +0.000 C 
BRANCH  20  21
ATOM     21  C   UNL     1       3.071   2.448  19.697  0.00  0.00    +0.000 A 
ATOM     22  C   UNL     1       2.670   3.167  20.831  0.00  0.00    +0.000 A 
ATOM     23  C   UNL     1       1.340   3.559  20.995  0.00  0.00    +0.000 A 
ATOM     24  C   UNL     1       0.397   3.246  20.018  0.00  0.00    +0.000 A 
ATOM     25  C   UNL     1       0.781   2.544  18.878  0.00  0.00    +0.000 A 
ATOM     26  C   UNL     1       2.111   2.151  18.714  0.00  0.00    +0.000 A 
ENDBRANCH  20  21
ENDBRANCH  19  20
ENDBRANCH  16  19
ENDBRANCH  15  16
ENDBRANCH   2  15
TORSDOF 7
ENDMDL
MODEL 5
REMARK VINA RESULT:      -7.2      3.102      5.122
REMARK  Name = 
REMARK  7 active torsions:
REMARK  status: ('A' for Active; 'I' for Inactive)
REMARK    1  A    between atoms: C_2  and  C_3
REMARK    2  A    between atoms: C_2  and  C_15
REMARK    3  A    between atoms: C_3  and  P_4
REMARK    4  A    between atoms: P_4  and  O_7
REMARK    5  A    between atoms: O_7  and  C_8
REMARK    6  A    between atoms: C_8  and  C_9
REMARK    7  A    between atoms: C_18  and  C_19
REMARK                            x       y       z     vdW  Elec       q    Type
REMARK                         _______ _______ _______ _____ _____    ______ ____
ROOT
ATOM      1  O   UNL     1       1.952   4.441  19.069  0.00  0.00    +0.000 OA
ATOM      2  C   UNL     1       2.790   5.303  19.390  0.00  0.00    +0.000 C 
ENDROOT
BRANCH   2   3
ATOM      3  C   UNL     1       2.401   6.743  19.314  0.00  0.00    +0.000 A 
ATOM      4  C   UNL     1       1.757   7.348  20.399  0.00  0.00    +0.000 A 
ATOM      5  C   UNL     1       1.234   8.646  20.278  0.00  0.00    +0.000 A 
ATOM      6  C   UNL     1       1.362   9.376  19.075  0.00  0.00    +0.000 A 
ATOM      7  C   UNL     1       2.060   8.757  18.029  0.00  0.00    +0.000 A 
ATOM      8  C   UNL     1       2.559   7.475  18.141  0.00  0.00    +0.000 A 
BRANCH   6   9
ATOM      9  C   UNL     1       0.789  10.722  18.880  0.00  0.00    +0.000 A 
ATOM     10  C   UNL     1       1.591  11.870  18.787  0.00  0.00    +0.000 A 
ATOM     11  C   UNL     1       1.029  13.124  18.523  0.00  0.00    +0.000 A 
ATOM     12  C   UNL     1      -0.341  13.255  18.339  0.00  0.00    +0.000 A 
ATOM     13  C   UNL     1      -1.165  12.140  18.444  0.00  0.00    +0.000 A 
ATOM     14  C   UNL     1      -0.603  10.895  18.730  0.00  0.00    +0.000 A 
ENDBRANCH   6   9
ENDBRANCH   2   3
BRANCH   2  15
ATOM     15  C   UNL     1       4.233   4.937  19.703  0.00  0.00    +0.000 C 
BRANCH  15  16
ATOM     16  P   UNL     1       5.285   4.849  18.208  0.00  0.00    +0.000 P 
ATOM     17  O   UNL     1       6.497   4.498  19.102  0.00  0.00    +0.000 OA
ATOM     18  O   UNL     1       4.529   3.608  17.732  0.00  0.00    +0.000 OA
BRANCH  16  19
ATOM     19  O   UNL     1       6.279   4.765  16.794  0.00  0.00    +0.000 OA
BRANCH  19  20
ATOM     20  C   UNL     1       5.752   5.498  15.697  0.00  0.00    +0.000 C 
BRANCH  20  21
ATOM     21  C   UNL     1       6.161   4.869  14.391  0.00  0.00    +0.000 A 
ATOM     22  C   UNL     1       5.344   3.932  13.746  0.00  0.00    +0.000 A 
ATOM     23  C   UNL     1       5.725   3.374  12.523  0.00  0.00    +0.000 A 
ATOM     24  C   UNL     1       6.923   3.758  11.927  0.00  0.00    +0.000 A 
ATOM     25  C   UNL     1       7.741   4.699  12.547  0.00  0.00    +0.000 A 
ATOM     26  C   UNL     1       7.362   5.257  13.770  0.00  0.00    +0.000 A 
ENDBRANCH  20  21
ENDBRANCH  19  20
ENDBRANCH  16  19
ENDBRANCH  15  16
ENDBRANCH   2  15
TORSDOF 7
ENDMDL
MODEL 6
REMARK VINA RESULT:      -7.2      3.602      5.996
REMARK  Name = 
REMARK  7 active torsions:
REMARK  status: ('A' for Active; 'I' for Inactive)
REMARK    1  A    between atoms: C_2  and  C_3
REMARK    2  A    between atoms: C_2  and  C_15
REMARK    3  A    between atoms: C_3  and  P_4
REMARK    4  A    between atoms: P_4  and  O_7
REMARK    5  A    between atoms: O_7  and  C_8
REMARK    6  A    between atoms: C_8  and  C_9
REMARK    7  A    between atoms: C_18  and  C_19
REMARK                            x       y       z     vdW  Elec       q    Type
REMARK                         _______ _______ _______ _____ _____    ______ ____
ROOT
ATOM      1  O   UNL     1       5.258   3.623  18.897  0.00  0.00    +0.000 OA
ATOM      2  C   UNL     1       5.105   4.677  18.253  0.00  0.00    +0.000 C 
ENDROOT
BRANCH   2   3
ATOM      3  C   UNL     1       3.996   5.598  18.641  0.00  0.00    +0.000 A 
ATOM      4  C   UNL     1       3.636   6.649  17.791  0.00  0.00    +0.000 A 
ATOM      5  C   UNL     1       2.716   7.622  18.218  0.00  0.00    +0.000 A 
ATOM      6  C   UNL     1       2.120   7.552  19.496  0.00  0.00    +0.000 A 
ATOM      7  C   UNL     1       2.465   6.455  20.297  0.00  0.00    +0.000 A 
ATOM      8  C   UNL     1       3.381   5.509  19.886  0.00  0.00    +0.000 A 
BRANCH   6   9
ATOM      9  C   UNL     1       1.186   8.572  20.011  0.00  0.00    +0.000 A 
ATOM     10  C   UNL     1       0.602   8.478  21.283  0.00  0.00    +0.000 A 
ATOM     11  C   UNL     1      -0.218   9.497  21.779  0.00  0.00    +0.000 A 
ATOM     12  C   UNL     1      -0.463  10.634  21.019  0.00  0.00    +0.000 A 
ATOM     13  C   UNL     1       0.085  10.749  19.747  0.00  0.00    +0.000 A 
ATOM     14  C   UNL     1       0.883   9.719  19.247  0.00  0.00    +0.000 A 
ENDBRANCH   6   9
ENDBRANCH   2   3
BRANCH   2  15
ATOM     15  C   UNL     1       5.910   4.968  16.995  0.00  0.00    +0.000 C 
BRANCH  15  16
ATOM     16  P   UNL     1       6.799   6.566  17.073  0.00  0.00    +0.000 P 
ATOM     17  O   UNL     1       7.442   6.123  18.409  0.00  0.00    +0.000 OA
ATOM     18  O   UNL     1       7.642   6.171  15.860  0.00  0.00    +0.000 OA
BRANCH  16  19
ATOM     19  O   UNL     1       7.641   8.075  17.147  0.00  0.00    +0.000 OA
BRANCH  19  20
ATOM     20  C   UNL     1       8.397   8.235  18.339  0.00  0.00    +0.000 C 
BRANCH  20  21
ATOM     21  C   UNL     1       8.726   9.687  18.570  0.00  0.00    +0.000 A 
ATOM     22  C   UNL     1       9.442  10.101  19.701  0.00  0.00    +0.000 A 
ATOM     23  C   UNL     1       9.761  11.448  19.891  0.00  0.00    +0.000 A 
ATOM     24  C   UNL     1       9.377  12.393  18.944  0.00  0.00    +0.000 A 
ATOM     25  C   UNL     1       8.677  11.997  17.807  0.00  0.00    +0.000 A 
ATOM     26  C   UNL     1       8.357  10.651  17.616  0.00  0.00    +0.000 A 
ENDBRANCH  20  21
ENDBRANCH  19  20
ENDBRANCH  16  19
ENDBRANCH  15  16
ENDBRANCH   2  15
TORSDOF 7
ENDMDL
MODEL 7
REMARK VINA RESULT:      -7.2      3.386      5.882
REMARK  Name = 
REMARK  7 active torsions:
REMARK  status: ('A' for Active; 'I' for Inactive)
REMARK    1  A    between atoms: C_2  and  C_3
REMARK    2  A    between atoms: C_2  and  C_15
REMARK    3  A    between atoms: C_3  and  P_4
REMARK    4  A    between atoms: P_4  and  O_7
REMARK    5  A    between atoms: O_7  and  C_8
REMARK    6  A    between atoms: C_8  and  C_9
REMARK    7  A    between atoms: C_18  and  C_19
REMARK                            x       y       z     vdW  Elec       q    Type
REMARK                         _______ _______ _______ _____ _____    ______ ____
ROOT
ATOM      1  O   UNL     1       3.873   3.904  17.074  0.00  0.00    +0.000 OA
ATOM      2  C   UNL     1       4.386   4.610  17.961  0.00  0.00    +0.000 C 
ENDROOT
BRANCH   2   3
ATOM      3  C   UNL     1       3.679   5.857  18.380  0.00  0.00    +0.000 A 
ATOM      4  C   UNL     1       2.977   5.885  19.590  0.00  0.00    +0.000 A 
ATOM      5  C   UNL     1       2.169   6.988  19.915  0.00  0.00    +0.000 A 
ATOM      6  C   UNL     1       2.064   8.096  19.046  0.00  0.00    +0.000 A 
ATOM      7  C   UNL     1       2.824   8.055  17.870  0.00  0.00    +0.000 A 
ATOM      8  C   UNL     1       3.605   6.965  17.541  0.00  0.00    +0.000 A 
BRANCH   6   9
ATOM      9  C   UNL     1       1.193   9.257  19.317  0.00  0.00    +0.000 A 
ATOM     10  C   UNL     1       0.395   9.341  20.468  0.00  0.00    +0.000 A 
ATOM     11  C   UNL     1      -0.362  10.485  20.741  0.00  0.00    +0.000 A 
ATOM     12  C   UNL     1      -0.329  11.571  19.876  0.00  0.00    +0.000 A 
ATOM     13  C   UNL     1       0.436  11.512  18.717  0.00  0.00    +0.000 A 
ATOM     14  C   UNL     1       1.171  10.359  18.437  0.00  0.00    +0.000 A 
ENDBRANCH   6   9
ENDBRANCH   2   3
BRANCH   2  15
ATOM     15  C   UNL     1       5.776   4.321  18.507  0.00  0.00    +0.000 C 
BRANCH  15  16
ATOM     16  P   UNL     1       6.946   5.703  18.243  0.00  0.00    +0.000 P 
ATOM     17  O   UNL     1       7.465   5.517  19.689  0.00  0.00    +0.000 OA
ATOM     18  O   UNL     1       7.727   4.866  17.229  0.00  0.00    +0.000 OA
BRANCH  16  19
ATOM     19  O   UNL     1       8.053   7.009  17.994  0.00  0.00    +0.000 OA
BRANCH  19  20
ATOM     20  C   UNL     1       7.411   8.225  17.634  0.00  0.00    +0.000 C 
BRANCH  20  21
ATOM     21  C   UNL     1       8.220   9.410  18.091  0.00  0.00    +0.000 A 
ATOM     22  C   UNL     1       8.154  10.639  17.422  0.00  0.00    +0.000 A 
ATOM     23  C   UNL     1       8.893  11.737  17.870  0.00  0.00    +0.000 A 
ATOM     24  C   UNL     1       9.695  11.619  19.002  0.00  0.00    +0.000 A 
ATOM     25  C   UNL     1       9.761  10.409  19.689  0.00  0.00    +0.000 A 
ATOM     26  C   UNL     1       9.024   9.310  19.240  0.00  0.00    +0.000 A 
ENDBRANCH  20  21
ENDBRANCH  19  20
ENDBRANCH  16  19
ENDBRANCH  15  16
ENDBRANCH   2  15
TORSDOF 7
ENDMDL
MODEL 8
REMARK VINA RESULT:      -7.1      0.860      1.413
REMARK  Name = 
REMARK  7 active torsions:
REMARK  status: ('A' for Active; 'I' for Inactive)
REMARK    1  A    between atoms: C_2  and  C_3
REMARK    2  A    between atoms: C_2  and  C_15
REMARK    3  A    between atoms: C_3  and  P_4
REMARK    4  A    between atoms: P_4  and  O_7
REMARK    5  A    between atoms: O_7  and  C_8
REMARK    6  A    between atoms: C_8  and  C_9
REMARK    7  A    between atoms: C_18  and  C_19
REMARK                            x       y       z     vdW  Elec       q    Type
REMARK                         _______ _______ _______ _____ _____    ______ ____
ROOT
ATOM      1  O   UNL     1       3.953   6.510  16.034  0.00  0.00    +0.000 OA
ATOM      2  C   UNL     1       4.183   6.613  17.253  0.00  0.00    +0.000 C 
ENDROOT
BRANCH   2   3
ATOM      3  C   UNL     1       3.164   7.276  18.121  0.00  0.00    +0.000 A 
ATOM      4  C   UNL     1       2.609   8.499  17.731  0.00  0.00    +0.000 A 
ATOM      5  C   UNL     1       1.783   9.215  18.614  0.00  0.00    +0.000 A 
ATOM      6  C   UNL     1       1.477   8.712  19.897  0.00  0.00    +0.000 A 
ATOM      7  C   UNL     1       2.008   7.459  20.231  0.00  0.00    +0.000 A 
ATOM      8  C   UNL     1       2.834   6.763  19.372  0.00  0.00    +0.000 A 
BRANCH   6   9
ATOM      9  C   UNL     1       0.655   9.446  20.880  0.00  0.00    +0.000 A 
ATOM     10  C   UNL     1      -0.095  10.579  20.530  0.00  0.00    +0.000 A 
ATOM     11  C   UNL     1      -0.927  11.210  21.460  0.00  0.00    +0.000 A 
ATOM     12  C   UNL     1      -1.035  10.717  22.754  0.00  0.00    +0.000 A 
ATOM     13  C   UNL     1      -0.291   9.608  23.138  0.00  0.00    +0.000 A 
ATOM     14  C   UNL     1       0.557   8.996  22.213  0.00  0.00    +0.000 A 
ENDBRANCH   6   9
ENDBRANCH   2   3
BRANCH   2  15
ATOM     15  C   UNL     1       5.530   6.227  17.846  0.00  0.00    +0.000 C 
BRANCH  15  16
ATOM     16  P   UNL     1       5.517   4.569  18.622  0.00  0.00    +0.000 P 
ATOM     17  O   UNL     1       6.910   4.291  18.009  0.00  0.00    +0.000 OA
ATOM     18  O   UNL     1       5.605   5.204  20.010  0.00  0.00    +0.000 OA
BRANCH  16  19
ATOM     19  O   UNL     1       5.507   3.003  19.356  0.00  0.00    +0.000 OA
BRANCH  19  20
ATOM     20  C   UNL     1       4.414   2.197  18.935  0.00  0.00    +0.000 C 
BRANCH  20  21
ATOM     21  C   UNL     1       3.112   2.754  19.449  0.00  0.00    +0.000 A 
ATOM     22  C   UNL     1       2.900   2.965  20.818  0.00  0.00    +0.000 A 
ATOM     23  C   UNL     1       1.696   3.504  21.279  0.00  0.00    +0.000 A 
ATOM     24  C   UNL     1       0.698   3.851  20.373  0.00  0.00    +0.000 A 
ATOM     25  C   UNL     1       0.898   3.662  19.007  0.00  0.00    +0.000 A 
ATOM     26  C   UNL     1       2.100   3.122  18.545  0.00  0.00    +0.000 A 
ENDBRANCH  20  21
ENDBRANCH  19  20
ENDBRANCH  16  19
ENDBRANCH  15  16
ENDBRANCH   2  15
TORSDOF 7
ENDMDL
MODEL 9
REMARK VINA RESULT:      -7.1      5.065      9.463
REMARK  Name = 
REMARK  7 active torsions:
REMARK  status: ('A' for Active; 'I' for Inactive)
REMARK    1  A    between atoms: C_2  and  C_3
REMARK    2  A    between atoms: C_2  and  C_15
REMARK    3  A    between atoms: C_3  and  P_4
REMARK    4  A    between atoms: P_4  and  O_7
REMARK    5  A    between atoms: O_7  and  C_8
REMARK    6  A    between atoms: C_8  and  C_9
REMARK    7  A    between atoms: C_18  and  C_19
REMARK                            x       y       z     vdW  Elec       q    Type
REMARK                         _______ _______ _______ _____ _____    ______ ____
ROOT
ATOM      1  O   UNL     1      -1.030  10.352  19.624  0.00  0.00    +0.000 OA
ATOM      2  C   UNL     1       0.090  10.258  20.159  0.00  0.00    +0.000 C 
ENDROOT
BRANCH   2   3
ATOM      3  C   UNL     1       1.090   9.321  19.567  0.00  0.00    +0.000 A 
ATOM      4  C   UNL     1       1.549   9.527  18.262  0.00  0.00    +0.000 A 
ATOM      5  C   UNL     1       2.354   8.562  17.633  0.00  0.00    +0.000 A 
ATOM      6  C   UNL     1       2.737   7.381  18.306  0.00  0.00    +0.000 A 
ATOM      7  C   UNL     1       2.303   7.236  19.630  0.00  0.00    +0.000 A 
ATOM      8  C   UNL     1       1.497   8.174  20.243  0.00  0.00    +0.000 A 
BRANCH   6   9
ATOM      9  C   UNL     1       3.541   6.315  17.676  0.00  0.00    +0.000 A 
ATOM     10  C   UNL     1       3.200   4.958  17.782  0.00  0.00    +0.000 A 
ATOM     11  C   UNL     1       3.933   3.974  17.111  0.00  0.00    +0.000 A 
ATOM     12  C   UNL     1       5.014   4.325  16.313  0.00  0.00    +0.000 A 
ATOM     13  C   UNL     1       5.390   5.659  16.203  0.00  0.00    +0.000 A 
ATOM     14  C   UNL     1       4.671   6.635  16.893  0.00  0.00    +0.000 A 
ENDBRANCH   6   9
ENDBRANCH   2   3
BRANCH   2  15
ATOM     15  C   UNL     1       0.404  10.948  21.478  0.00  0.00    +0.000 C 
BRANCH  15  16
ATOM     16  P   UNL     1      -1.052  11.784  22.208  0.00  0.00    +0.000 P 
ATOM     17  O   UNL     1      -0.996  10.802  23.401  0.00  0.00    +0.000 OA
ATOM     18  O   UNL     1      -0.222  13.046  22.450  0.00  0.00    +0.000 OA
BRANCH  16  19
ATOM     19  O   UNL     1      -2.426  12.575  22.899  0.00  0.00    +0.000 OA
BRANCH  19  20
ATOM     20  C   UNL     1      -3.343  13.054  21.924  0.00  0.00    +0.000 C 
BRANCH  20  21
ATOM     21  C   UNL     1      -4.763  12.832  22.374  0.00  0.00    +0.000 A 
ATOM     22  C   UNL     1      -5.124  12.932  23.724  0.00  0.00    +0.000 A 
ATOM     23  C   UNL     1      -6.449  12.746  24.125  0.00  0.00    +0.000 A 
ATOM     24  C   UNL     1      -7.430  12.471  23.176  0.00  0.00    +0.000 A 
ATOM     25  C   UNL     1      -7.092  12.383  21.828  0.00  0.00    +0.000 A 
ATOM     26  C   UNL     1      -5.767  12.566  21.426  0.00  0.00    +0.000 A 
ENDBRANCH  20  21
ENDBRANCH  19  20
ENDBRANCH  16  19
ENDBRANCH  15  16
ENDBRANCH   2  15
TORSDOF 7
ENDMDL
