MODEL 1
REMARK VINA RESULT:      -8.3      0.000      0.000
REMARK  Name = 
REMARK  5 active torsions:
REMARK  status: ('A' for Active; 'I' for Inactive)
REMARK    1  A    between atoms: C_1  and  C_2
REMARK    2  A    between atoms: C_5  and  C_6
REMARK    3  A    between atoms: C_6  and  C_7
REMARK    4  A    between atoms: C_7  and  C_8
REMARK    5  A    between atoms: C_8  and  N_9
REMARK                            x       y       z     vdW  Elec       q    Type
REMARK                         _______ _______ _______ _____ _____    ______ ____
ROOT
ATOM      1  N   UNL     1       6.939   6.650  18.072  0.00  0.00    +0.000 NA
ATOM      2  C   UNL     1       7.263   5.327  17.505  0.00  0.00    +0.000 C 
ATOM      3  C   UNL     1       6.104   4.490  16.953  0.00  0.00    +0.000 C 
ATOM      4  C   UNL     1       5.237   5.344  16.041  0.00  0.00    +0.000 C 
ATOM      5  C   UNL     1       4.667   6.462  16.902  0.00  0.00    +0.000 C 
ATOM      6  C   UNL     1       5.831   7.350  17.398  0.00  0.00    +0.000 C 
ATOM      7  C   UNL     1       3.840   5.910  18.049  0.00  0.00    +0.000 A 
ATOM      8  C   UNL     1       2.762   6.569  18.511  0.00  0.00    +0.000 A 
ATOM      9  C   UNL     1       1.996   6.054  19.615  0.00  0.00    +0.000 A 
ATOM     10  C   UNL     1       2.341   4.906  20.204  0.00  0.00    +0.000 A 
ATOM     11  C   UNL     1       3.500   4.129  19.699  0.00  0.00    +0.000 A 
ATOM     12  O   UNL     1       3.763   3.043  20.217  0.00  0.00    +0.000 OA
ATOM     13  N   UNL     1       4.203   4.690  18.626  0.00  0.00    +0.000 N 
ATOM     14  C   UNL     1       5.254   3.861  18.054  0.00  0.00    +0.000 C 
ENDROOT
BRANCH   1  15
ATOM     15  C   UNL     1       8.180   7.448  18.060  0.00  0.00    +0.000 C 
BRANCH  15  16
ATOM     16  C   UNL     1       8.054   8.957  17.843  0.00  0.00    +0.000 C 
BRANCH  16  17
ATOM     17  C   UNL     1       8.899   9.652  18.915  0.00  0.00    +0.000 C 
BRANCH  17  22
ATOM     18  C   UNL     1      11.408  14.468  16.869  0.00  0.00    +0.000 C 
ATOM     19  C   UNL     1      10.762  13.243  17.440  0.00  0.00    +0.000 A 
ATOM     20  C   UNL     1      11.539  12.202  17.963  0.00  0.00    +0.000 A 
ATOM     21  C   UNL     1      10.931  11.051  18.460  0.00  0.00    +0.000 A 
ATOM     22  C   UNL     1       9.540  10.919  18.433  0.00  0.00    +0.000 A 
ATOM     23  C   UNL     1       8.760  11.969  17.936  0.00  0.00    +0.000 A 
ATOM     24  C   UNL     1       9.368  13.122  17.441  0.00  0.00    +0.000 A 
ENDBRANCH  17  22
ENDBRANCH  16  17
ENDBRANCH  15  16
ENDBRANCH   1  15
TORSDOF 4
ENDMDL
MODEL 2
REMARK VINA RESULT:      -8.2      5.277      6.829
REMARK  Name = 
REMARK  5 active torsions:
REMARK  status: ('A' for Active; 'I' for Inactive)
REMARK    1  A    between atoms: C_1  and  C_2
REMARK    2  A    between atoms: C_5  and  C_6
REMARK    3  A    between atoms: C_6  and  C_7
REMARK    4  A    between atoms: C_7  and  C_8
REMARK    5  A    between atoms: C_8  and  N_9
REMARK                            x       y       z     vdW  Elec       q    Type
REMARK                         _______ _______ _______ _____ _____    ______ ____
ROOT
ATOM      1  N   UNL     1       3.112   6.336  18.226  0.00  0.00    +0.000 NA
ATOM      2  C   UNL     1       4.135   5.622  17.437  0.00  0.00    +0.000 C 
ATOM      3  C   UNL     1       3.973   4.107  17.274  0.00  0.00    +0.000 C 
ATOM      4  C   UNL     1       2.548   3.781  16.853  0.00  0.00    +0.000 C 
ATOM      5  C   UNL     1       1.641   4.251  17.983  0.00  0.00    +0.000 C 
ATOM      6  C   UNL     1       1.749   5.789  18.099  0.00  0.00    +0.000 C 
ATOM      7  C   UNL     1       1.979   3.554  19.288  0.00  0.00    +0.000 A 
ATOM      8  C   UNL     1       1.022   3.266  20.190  0.00  0.00    +0.000 A 
ATOM      9  C   UNL     1       1.350   2.627  21.437  0.00  0.00    +0.000 A 
ATOM     10  C   UNL     1       2.615   2.305  21.724  0.00  0.00    +0.000 A 
ATOM     11  C   UNL     1       3.692   2.571  20.739  0.00  0.00    +0.000 A 
ATOM     12  O   UNL     1       4.840   2.209  20.997  0.00  0.00    +0.000 OA
ATOM     13  N   UNL     1       3.304   3.198  19.549  0.00  0.00    +0.000 N 
ATOM     14  C   UNL     1       4.341   3.334  18.537  0.00  0.00    +0.000 C 
ENDROOT
BRANCH   1  15
ATOM     15  C   UNL     1       3.171   7.758  17.836  0.00  0.00    +0.000 C 
BRANCH  15  16
ATOM     16  C   UNL     1       1.850   8.472  17.547  0.00  0.00    +0.000 C 
BRANCH  16  17
ATOM     17  C   UNL     1       1.938   9.874  18.157  0.00  0.00    +0.000 C 
BRANCH  17  22
ATOM     18  C   UNL     1      -0.948  10.281  23.175  0.00  0.00    +0.000 C 
ATOM     19  C   UNL     1      -0.165  10.193  21.901  0.00  0.00    +0.000 A 
ATOM     20  C   UNL     1      -0.061  11.299  21.048  0.00  0.00    +0.000 A 
ATOM     21  C   UNL     1       0.639  11.197  19.847  0.00  0.00    +0.000 A 
ATOM     22  C   UNL     1       1.238   9.990  19.478  0.00  0.00    +0.000 A 
ATOM     23  C   UNL     1       1.158   8.892  20.342  0.00  0.00    +0.000 A 
ATOM     24  C   UNL     1       0.460   8.994  21.545  0.00  0.00    +0.000 A 
ENDBRANCH  17  22
ENDBRANCH  16  17
ENDBRANCH  15  16
ENDBRANCH   1  15
TORSDOF 4
ENDMDL
MODEL 3
REMARK VINA RESULT:      -8.1      5.202      7.217
REMARK  Name = 
REMARK  5 active torsions:
REMARK  status: ('A' for Active; 'I' for Inactive)
REMARK    1  A    between atoms: C_1  and  C_2
REMARK    2  A    between atoms: C_5  and  C_6
REMARK    3  A    between atoms: C_6  and  C_7
REMARK    4  A    between atoms: C_7  and  C_8
REMARK    5  A    between atoms: C_8  and  N_9
REMARK                            x       y       z     vdW  Elec       q    Type
REMARK                         _______ _______ _______ _____ _____    ______ ____
ROOT
ATOM      1  N   UNL     1       3.247   6.284  18.221  0.00  0.00    +0.000 NA
ATOM      2  C   UNL     1       4.241   5.525  17.438  0.00  0.00    +0.000 C 
ATOM      3  C   UNL     1       4.018   4.016  17.285  0.00  0.00    +0.000 C 
ATOM      4  C   UNL     1       2.582   3.744  16.866  0.00  0.00    +0.000 C 
ATOM      5  C   UNL     1       1.694   4.258  17.991  0.00  0.00    +0.000 C 
ATOM      6  C   UNL     1       1.864   5.792  18.096  0.00  0.00    +0.000 C 
ATOM      7  C   UNL     1       2.002   3.557  19.301  0.00  0.00    +0.000 A 
ATOM      8  C   UNL     1       1.034   3.314  20.204  0.00  0.00    +0.000 A 
ATOM      9  C   UNL     1       1.336   2.671  21.456  0.00  0.00    +0.000 A 
ATOM     10  C   UNL     1       2.586   2.301  21.747  0.00  0.00    +0.000 A 
ATOM     11  C   UNL     1       3.674   2.516  20.761  0.00  0.00    +0.000 A 
ATOM     12  O   UNL     1       4.806   2.111  21.023  0.00  0.00    +0.000 OA
ATOM     13  N   UNL     1       3.312   3.150  19.566  0.00  0.00    +0.000 N 
ATOM     14  C   UNL     1       4.355   3.237  18.554  0.00  0.00    +0.000 C 
ENDROOT
BRANCH   1  15
ATOM     15  C   UNL     1       3.363   7.699  17.821  0.00  0.00    +0.000 C 
BRANCH  15  16
ATOM     16  C   UNL     1       2.069   8.478  17.575  0.00  0.00    +0.000 C 
BRANCH  16  17
ATOM     17  C   UNL     1       1.699   9.187  18.881  0.00  0.00    +0.000 C 
BRANCH  17  22
ATOM     18  C   UNL     1      -3.475  11.810  18.693  0.00  0.00    +0.000 C 
ATOM     19  C   UNL     1      -2.122  11.167  18.714  0.00  0.00    +0.000 A 
ATOM     20  C   UNL     1      -1.728  10.296  17.692  0.00  0.00    +0.000 A 
ATOM     21  C   UNL     1      -0.481   9.674  17.738  0.00  0.00    +0.000 A 
ATOM     22  C   UNL     1       0.385   9.907  18.810  0.00  0.00    +0.000 A 
ATOM     23  C   UNL     1       0.004  10.798  19.820  0.00  0.00    +0.000 A 
ATOM     24  C   UNL     1      -1.242  11.422  19.772  0.00  0.00    +0.000 A 
ENDBRANCH  17  22
ENDBRANCH  16  17
ENDBRANCH  15  16
ENDBRANCH   1  15
TORSDOF 4
ENDMDL
MODEL 4
REMARK VINA RESULT:      -8.0      5.194      6.982
REMARK  Name = 
REMARK  5 active torsions:
REMARK  status: ('A' for Active; 'I' for Inactive)
REMARK    1  A    between atoms: C_1  and  C_2
REMARK    2  A    between atoms: C_5  and  C_6
REMARK    3  A    between atoms: C_6  and  C_7
REMARK    4  A    between atoms: C_7  and  C_8
REMARK    5  A    between atoms: C_8  and  N_9
REMARK                            x       y       z     vdW  Elec       q    Type
REMARK                         _______ _______ _______ _____ _____    ______ ____
ROOT
ATOM      1  N   UNL     1       3.297   6.210  18.103  0.00  0.00    +0.000 NA
ATOM      2  C   UNL     1       4.285   5.412  17.352  0.00  0.00    +0.000 C 
ATOM      3  C   UNL     1       4.040   3.903  17.245  0.00  0.00    +0.000 C 
ATOM      4  C   UNL     1       2.603   3.639  16.822  0.00  0.00    +0.000 C 
ATOM      5  C   UNL     1       1.715   4.202  17.923  0.00  0.00    +0.000 C 
ATOM      6  C   UNL     1       1.907   5.735  17.982  0.00  0.00    +0.000 C 
ATOM      7  C   UNL     1       2.002   3.538  19.258  0.00  0.00    +0.000 A 
ATOM      8  C   UNL     1       1.023   3.339  20.160  0.00  0.00    +0.000 A 
ATOM      9  C   UNL     1       1.305   2.731  21.434  0.00  0.00    +0.000 A 
ATOM     10  C   UNL     1       2.547   2.351  21.746  0.00  0.00    +0.000 A 
ATOM     11  C   UNL     1       3.646   2.519  20.763  0.00  0.00    +0.000 A 
ATOM     12  O   UNL     1       4.770   2.105  21.047  0.00  0.00    +0.000 OA
ATOM     13  N   UNL     1       3.303   3.120  19.546  0.00  0.00    +0.000 N 
ATOM     14  C   UNL     1       4.355   3.159  18.540  0.00  0.00    +0.000 C 
ENDROOT
BRANCH   1  15
ATOM     15  C   UNL     1       3.438   7.610  17.659  0.00  0.00    +0.000 C 
BRANCH  15  16
ATOM     16  C   UNL     1       2.189   8.493  17.679  0.00  0.00    +0.000 C 
BRANCH  16  17
ATOM     17  C   UNL     1       1.879   8.825  19.141  0.00  0.00    +0.000 C 
BRANCH  17  22
ATOM     18  C   UNL     1      -2.685  12.359  19.750  0.00  0.00    +0.000 C 
ATOM     19  C   UNL     1      -1.533  11.411  19.608  0.00  0.00    +0.000 A 
ATOM     20  C   UNL     1      -0.712  11.113  20.702  0.00  0.00    +0.000 A 
ATOM     21  C   UNL     1       0.378  10.258  20.552  0.00  0.00    +0.000 A 
ATOM     22  C   UNL     1       0.669   9.696  19.306  0.00  0.00    +0.000 A 
ATOM     23  C   UNL     1      -0.166   9.971  18.217  0.00  0.00    +0.000 A 
ATOM     24  C   UNL     1      -1.259  10.824  18.368  0.00  0.00    +0.000 A 
ENDBRANCH  17  22
ENDBRANCH  16  17
ENDBRANCH  15  16
ENDBRANCH   1  15
TORSDOF 4
ENDMDL
MODEL 5
REMARK VINA RESULT:      -8.0      1.091      1.325
REMARK  Name = 
REMARK  5 active torsions:
REMARK  status: ('A' for Active; 'I' for Inactive)
REMARK    1  A    between atoms: C_1  and  C_2
REMARK    2  A    between atoms: C_5  and  C_6
REMARK    3  A    between atoms: C_6  and  C_7
REMARK    4  A    between atoms: C_7  and  C_8
REMARK    5  A    between atoms: C_8  and  N_9
REMARK                            x       y       z     vdW  Elec       q    Type
REMARK                         _______ _______ _______ _____ _____    ______ ____
ROOT
ATOM      1  N   UNL     1       6.599   6.173  17.910  0.00  0.00    +0.000 NA
ATOM      2  C   UNL     1       6.733   4.814  17.351  0.00  0.00    +0.000 C 
ATOM      3  C   UNL     1       5.443   4.061  17.006  0.00  0.00    +0.000 C 
ATOM      4  C   UNL     1       4.519   4.960  16.198  0.00  0.00    +0.000 C 
ATOM      5  C   UNL     1       4.171   6.143  17.092  0.00  0.00    +0.000 C 
ATOM      6  C   UNL     1       5.462   6.945  17.379  0.00  0.00    +0.000 C 
ATOM      7  C   UNL     1       3.484   5.689  18.367  0.00  0.00    +0.000 A 
ATOM      8  C   UNL     1       2.540   6.446  18.955  0.00  0.00    +0.000 A 
ATOM      9  C   UNL     1       1.908   6.024  20.177  0.00  0.00    +0.000 A 
ATOM     10  C   UNL     1       2.247   4.866  20.753  0.00  0.00    +0.000 A 
ATOM     11  C   UNL     1       3.255   3.985  20.113  0.00  0.00    +0.000 A 
ATOM     12  O   UNL     1       3.507   2.895  20.627  0.00  0.00    +0.000 OA
ATOM     13  N   UNL     1       3.833   4.459  18.929  0.00  0.00    +0.000 N 
ATOM     14  C   UNL     1       4.720   3.532  18.241  0.00  0.00    +0.000 C 
ENDROOT
BRANCH   1  15
ATOM     15  C   UNL     1       7.883   6.866  17.687  0.00  0.00    +0.000 C 
BRANCH  15  16
ATOM     16  C   UNL     1       8.232   8.034  18.612  0.00  0.00    +0.000 C 
BRANCH  16  17
ATOM     17  C   UNL     1       8.219   9.312  17.770  0.00  0.00    +0.000 C 
BRANCH  17  22
ATOM     18  C   UNL     1      10.956  13.746  20.327  0.00  0.00    +0.000 C 
ATOM     19  C   UNL     1      10.210  12.612  19.691  0.00  0.00    +0.000 A 
ATOM     20  C   UNL     1      10.129  11.366  20.324  0.00  0.00    +0.000 A 
ATOM     21  C   UNL     1       9.464  10.306  19.708  0.00  0.00    +0.000 A 
ATOM     22  C   UNL     1       8.880  10.474  18.450  0.00  0.00    +0.000 A 
ATOM     23  C   UNL     1       8.937  11.727  17.828  0.00  0.00    +0.000 A 
ATOM     24  C   UNL     1       9.599  12.788  18.445  0.00  0.00    +0.000 A 
ENDBRANCH  17  22
ENDBRANCH  16  17
ENDBRANCH  15  16
ENDBRANCH   1  15
TORSDOF 4
ENDMDL
MODEL 6
REMARK VINA RESULT:      -7.9      0.946      1.119
REMARK  Name = 
REMARK  5 active torsions:
REMARK  status: ('A' for Active; 'I' for Inactive)
REMARK    1  A    between atoms: C_1  and  C_2
REMARK    2  A    between atoms: C_5  and  C_6
REMARK    3  A    between atoms: C_6  and  C_7
REMARK    4  A    between atoms: C_7  and  C_8
REMARK    5  A    between atoms: C_8  and  N_9
REMARK                            x       y       z     vdW  Elec       q    Type
REMARK                         _______ _______ _______ _____ _____    ______ ____
ROOT
ATOM      1  N   UNL     1       6.967   6.942  17.635  0.00  0.00    +0.000 NA
ATOM      2  C   UNL     1       7.288   5.666  16.969  0.00  0.00    +0.000 C 
ATOM      3  C   UNL     1       6.114   4.790  16.516  0.00  0.00    +0.000 C 
ATOM      4  C   UNL     1       5.102   5.633  15.755  0.00  0.00    +0.000 C 
ATOM      5  C   UNL     1       4.584   6.679  16.732  0.00  0.00    +0.000 C 
ATOM      6  C   UNL     1       5.753   7.609  17.131  0.00  0.00    +0.000 C 
ATOM      7  C   UNL     1       3.929   6.033  17.939  0.00  0.00    +0.000 A 
ATOM      8  C   UNL     1       2.882   6.611  18.555  0.00  0.00    +0.000 A 
ATOM      9  C   UNL     1       2.280   6.006  19.714  0.00  0.00    +0.000 A 
ATOM     10  C   UNL     1       2.750   4.855  20.202  0.00  0.00    +0.000 A 
ATOM     11  C   UNL     1       3.878   4.167  19.527  0.00  0.00    +0.000 A 
ATOM     12  O   UNL     1       4.255   3.076  19.956  0.00  0.00    +0.000 OA
ATOM     13  N   UNL     1       4.419   4.812  18.408  0.00  0.00    +0.000 N 
ATOM     14  C   UNL     1       5.434   4.067  17.676  0.00  0.00    +0.000 C 
ENDROOT
BRANCH   1  15
ATOM     15  C   UNL     1       8.156   7.808  17.517  0.00  0.00    +0.000 C 
BRANCH  15  16
ATOM     16  C   UNL     1       8.027   9.262  17.975  0.00  0.00    +0.000 C 
BRANCH  16  17
ATOM     17  C   UNL     1       8.945   9.450  19.186  0.00  0.00    +0.000 C 
BRANCH  17  22
ATOM     18  C   UNL     1      11.841  14.475  18.954  0.00  0.00    +0.000 C 
ATOM     19  C   UNL     1      11.134  13.154  19.013  0.00  0.00    +0.000 A 
ATOM     20  C   UNL     1      10.838  12.449  17.841  0.00  0.00    +0.000 A 
ATOM     21  C   UNL     1      10.149  11.239  17.903  0.00  0.00    +0.000 A 
ATOM     22  C   UNL     1       9.738  10.722  19.135  0.00  0.00    +0.000 A 
ATOM     23  C   UNL     1      10.058  11.413  20.310  0.00  0.00    +0.000 A 
ATOM     24  C   UNL     1      10.750  12.621  20.248  0.00  0.00    +0.000 A 
ENDBRANCH  17  22
ENDBRANCH  16  17
ENDBRANCH  15  16
ENDBRANCH   1  15
TORSDOF 4
ENDMDL
MODEL 7
REMARK VINA RESULT:      -7.8      4.133      7.636
REMARK  Name = 
REMARK  5 active torsions:
REMARK  status: ('A' for Active; 'I' for Inactive)
REMARK    1  A    between atoms: C_1  and  C_2
REMARK    2  A    between atoms: C_5  and  C_6
REMARK    3  A    between atoms: C_6  and  C_7
REMARK    4  A    between atoms: C_7  and  C_8
REMARK    5  A    between atoms: C_8  and  N_9
REMARK                            x       y       z     vdW  Elec       q    Type
REMARK                         _______ _______ _______ _____ _____    ______ ____
ROOT
ATOM      1  N   UNL     1       2.593   5.265  19.182  0.00  0.00    +0.000 NA
ATOM      2  C   UNL     1       2.268   4.444  17.999  0.00  0.00    +0.000 C 
ATOM      3  C   UNL     1       3.408   3.643  17.360  0.00  0.00    +0.000 C 
ATOM      4  C   UNL     1       4.170   2.881  18.433  0.00  0.00    +0.000 C 
ATOM      5  C   UNL     1       4.770   3.925  19.366  0.00  0.00    +0.000 C 
ATOM      6  C   UNL     1       3.619   4.685  20.066  0.00  0.00    +0.000 C 
ATOM      7  C   UNL     1       5.702   4.862  18.620  0.00  0.00    +0.000 A 
ATOM      8  C   UNL     1       6.792   5.380  19.217  0.00  0.00    +0.000 A 
ATOM      9  C   UNL     1       7.660   6.287  18.513  0.00  0.00    +0.000 A 
ATOM     10  C   UNL     1       7.401   6.632  17.249  0.00  0.00    +0.000 A 
ATOM     11  C   UNL     1       6.232   6.052  16.543  0.00  0.00    +0.000 A 
ATOM     12  O   UNL     1       6.048   6.335  15.360  0.00  0.00    +0.000 OA
ATOM     13  N   UNL     1       5.428   5.180  17.288  0.00  0.00    +0.000 N 
ATOM     14  C   UNL     1       4.363   4.515  16.551  0.00  0.00    +0.000 C 
ENDROOT
BRANCH   1  15
ATOM     15  C   UNL     1       1.328   5.515  19.900  0.00  0.00    +0.000 C 
BRANCH  15  16
ATOM     16  C   UNL     1       1.349   6.528  21.047  0.00  0.00    +0.000 C 
BRANCH  16  17
ATOM     17  C   UNL     1       1.591   7.912  20.439  0.00  0.00    +0.000 C 
BRANCH  17  22
ATOM     18  C   UNL     1      -1.614  12.035  22.970  0.00  0.00    +0.000 C 
ATOM     19  C   UNL     1      -0.747  10.995  22.327  0.00  0.00    +0.000 A 
ATOM     20  C   UNL     1      -0.338  11.129  20.995  0.00  0.00    +0.000 A 
ATOM     21  C   UNL     1       0.438  10.140  20.394  0.00  0.00    +0.000 A 
ATOM     22  C   UNL     1       0.807   8.999  21.112  0.00  0.00    +0.000 A 
ATOM     23  C   UNL     1       0.421   8.875  22.452  0.00  0.00    +0.000 A 
ATOM     24  C   UNL     1      -0.352   9.867  23.054  0.00  0.00    +0.000 A 
ENDBRANCH  17  22
ENDBRANCH  16  17
ENDBRANCH  15  16
ENDBRANCH   1  15
TORSDOF 4
ENDMDL
MODEL 8
REMARK VINA RESULT:      -7.8      4.129      7.573
REMARK  Name = 
REMARK  5 active torsions:
REMARK  status: ('A' for Active; 'I' for Inactive)
REMARK    1  A    between atoms: C_1  and  C_2
REMARK    2  A    between atoms: C_5  and  C_6
REMARK    3  A    between atoms: C_6  and  C_7
REMARK    4  A    between atoms: C_7  and  C_8
REMARK    5  A    between atoms: C_8  and  N_9
REMARK                            x       y       z     vdW  Elec       q    Type
REMARK                         _______ _______ _______ _____ _____    ______ ____
ROOT
ATOM      1  N   UNL     1       2.571   5.088  19.311  0.00  0.00    +0.000 NA
ATOM      2  C   UNL     1       2.199   4.383  18.069  0.00  0.00    +0.000 C 
ATOM      3  C   UNL     1       3.314   3.661  17.305  0.00  0.00    +0.000 C 
ATOM      4  C   UNL     1       4.131   2.808  18.263  0.00  0.00    +0.000 C 
ATOM      5  C   UNL     1       4.764   3.764  19.265  0.00  0.00    +0.000 C 
ATOM      6  C   UNL     1       3.641   4.437  20.087  0.00  0.00    +0.000 C 
ATOM      7  C   UNL     1       5.655   4.780  18.574  0.00  0.00    +0.000 A 
ATOM      8  C   UNL     1       6.766   5.251  19.169  0.00  0.00    +0.000 A 
ATOM      9  C   UNL     1       7.594   6.233  18.520  0.00  0.00    +0.000 A 
ATOM     10  C   UNL     1       7.275   6.696  17.308  0.00  0.00    +0.000 A 
ATOM     11  C   UNL     1       6.079   6.173  16.602  0.00  0.00    +0.000 A 
ATOM     12  O   UNL     1       5.839   6.568  15.461  0.00  0.00    +0.000 OA
ATOM     13  N   UNL     1       5.317   5.223  17.293  0.00  0.00    +0.000 N 
ATOM     14  C   UNL     1       4.225   4.620  16.543  0.00  0.00    +0.000 C 
ENDROOT
BRANCH   1  15
ATOM     15  C   UNL     1       1.339   5.252  20.107  0.00  0.00    +0.000 C 
BRANCH  15  16
ATOM     16  C   UNL     1       1.300   6.384  21.134  0.00  0.00    +0.000 C 
BRANCH  16  17
ATOM     17  C   UNL     1       1.483   7.703  20.378  0.00  0.00    +0.000 C 
BRANCH  17  22
ATOM     18  C   UNL     1      -1.244  12.207  22.819  0.00  0.00    +0.000 C 
ATOM     19  C   UNL     1      -0.581  11.023  22.183  0.00  0.00    +0.000 A 
ATOM     20  C   UNL     1      -0.235   9.902  22.946  0.00  0.00    +0.000 A 
ATOM     21  C   UNL     1       0.413   8.820  22.353  0.00  0.00    +0.000 A 
ATOM     22  C   UNL     1       0.732   8.846  20.993  0.00  0.00    +0.000 A 
ATOM     23  C   UNL     1       0.363   9.955  20.223  0.00  0.00    +0.000 A 
ATOM     24  C   UNL     1      -0.288  11.036  20.815  0.00  0.00    +0.000 A 
ENDBRANCH  17  22
ENDBRANCH  16  17
ENDBRANCH  15  16
ENDBRANCH   1  15
TORSDOF 4
ENDMDL
MODEL 9
REMARK VINA RESULT:      -7.6      1.311      1.720
REMARK  Name = 
REMARK  5 active torsions:
REMARK  status: ('A' for Active; 'I' for Inactive)
REMARK    1  A    between atoms: C_1  and  C_2
REMARK    2  A    between atoms: C_5  and  C_6
REMARK    3  A    between atoms: C_6  and  C_7
REMARK    4  A    between atoms: C_7  and  C_8
REMARK    5  A    between atoms: C_8  and  N_9
REMARK                            x       y       z     vdW  Elec       q    Type
REMARK                         _______ _______ _______ _____ _____    ______ ____
ROOT
ATOM      1  N   UNL     1       6.689   6.278  18.019  0.00  0.00    +0.000 NA
ATOM      2  C   UNL     1       7.172   5.370  16.961  0.00  0.00    +0.000 C 
ATOM      3  C   UNL     1       6.132   4.788  15.998  0.00  0.00    +0.000 C 
ATOM      4  C   UNL     1       5.229   5.897  15.479  0.00  0.00    +0.000 C 
ATOM      5  C   UNL     1       4.507   6.474  16.689  0.00  0.00    +0.000 C 
ATOM      6  C   UNL     1       5.551   7.127  17.625  0.00  0.00    +0.000 C 
ATOM      7  C   UNL     1       3.686   5.414  17.400  0.00  0.00    +0.000 A 
ATOM      8  C   UNL     1       2.525   5.725  18.005  0.00  0.00    +0.000 A 
ATOM      9  C   UNL     1       1.761   4.721  18.699  0.00  0.00    +0.000 A 
ATOM     10  C   UNL     1       2.191   3.458  18.754  0.00  0.00    +0.000 A 
ATOM     11  C   UNL     1       3.445   3.068  18.065  0.00  0.00    +0.000 A 
ATOM     12  O   UNL     1       3.790   1.886  18.076  0.00  0.00    +0.000 OA
ATOM     13  N   UNL     1       4.140   4.094  17.413  0.00  0.00    +0.000 N 
ATOM     14  C   UNL     1       5.296   3.679  16.632  0.00  0.00    +0.000 C 
ENDROOT
BRANCH   1  15
ATOM     15  C   UNL     1       7.843   7.081  18.468  0.00  0.00    +0.000 C 
BRANCH  15  16
ATOM     16  C   UNL     1       8.393   8.136  17.506  0.00  0.00    +0.000 C 
BRANCH  16  17
ATOM     17  C   UNL     1       7.783   9.484  17.897  0.00  0.00    +0.000 C 
BRANCH  17  22
ATOM     18  C   UNL     1      11.549  13.367  20.002  0.00  0.00    +0.000 C 
ATOM     19  C   UNL     1      10.610  12.348  19.429  0.00  0.00    +0.000 A 
ATOM     20  C   UNL     1       9.892  12.615  18.258  0.00  0.00    +0.000 A 
ATOM     21  C   UNL     1       8.994  11.676  17.753  0.00  0.00    +0.000 A 
ATOM     22  C   UNL     1       8.795  10.462  18.416  0.00  0.00    +0.000 A 
ATOM     23  C   UNL     1       9.531  10.182  19.572  0.00  0.00    +0.000 A 
ATOM     24  C   UNL     1      10.432  11.120  20.076  0.00  0.00    +0.000 A 
ENDBRANCH  17  22
ENDBRANCH  16  17
ENDBRANCH  15  16
ENDBRANCH   1  15
TORSDOF 4
ENDMDL
