MODEL 1
REMARK VINA RESULT:      -8.3      0.000      0.000
REMARK  Name = 
REMARK  5 active torsions:
REMARK  status: ('A' for Active; 'I' for Inactive)
REMARK    1  A    between atoms: C_4  and  C_5
REMARK    2  A    between atoms: C_5  and  C_6
REMARK    3  A    between atoms: C_6  and  C_7
REMARK    4  A    between atoms: N_15  and  C_16
REMARK    5  A    between atoms: C_16  and  C_17
REMARK                            x       y       z     vdW  Elec       q    Type
REMARK                         _______ _______ _______ _____ _____    ______ ____
ROOT
ATOM      1  O   UNL     1       4.779   2.132  19.972  0.00  0.00    +0.000 OA
ATOM      2  C   UNL     1       3.698   2.549  19.593  0.00  0.00    +0.000 C 
ATOM      3  N   UNL     1       2.605   2.667  20.422  0.00  0.00    +0.000 N 
ATOM      4  C   UNL     1       1.537   3.416  19.811  0.00  0.00    +0.000 C 
ATOM      5  C   UNL     1       2.095   3.535  18.388  0.00  0.00    +0.000 C 
ATOM      6  O   UNL     1       1.515   4.067  17.450  0.00  0.00    +0.000 OA
ATOM      7  N   UNL     1       3.356   3.010  18.361  0.00  0.00    +0.000 N 
ATOM      8  H   UNL     1       2.681   2.423  21.402  0.00  0.00    +0.000 HD
ENDROOT
BRANCH   4   9
ATOM      9  C   UNL     1       1.377   4.773  20.494  0.00  0.00    +0.000 C 
BRANCH   9  10
ATOM     10  C   UNL     1       2.597   5.678  20.304  0.00  0.00    +0.000 C 
BRANCH  10  11
ATOM     11  C   UNL     1       2.221   6.999  19.681  0.00  0.00    +0.000 A 
ATOM     12  C   UNL     1       1.522   7.960  20.425  0.00  0.00    +0.000 A 
ATOM     13  C   UNL     1       1.178   9.186  19.852  0.00  0.00    +0.000 A 
ATOM     14  C   UNL     1       1.523   9.460  18.530  0.00  0.00    +0.000 A 
ATOM     15  C   UNL     1       2.211   8.507  17.780  0.00  0.00    +0.000 A 
ATOM     16  C   UNL     1       2.557   7.282  18.351  0.00  0.00    +0.000 A 
ENDBRANCH  10  11
ENDBRANCH   9  10
ENDBRANCH   4   9
BRANCH   7  17
ATOM     17  C   UNL     1       4.251   3.089  17.227  0.00  0.00    +0.000 C 
BRANCH  17  18
ATOM     18  C   UNL     1       5.234   4.237  17.308  0.00  0.00    +0.000 A 
ATOM     19  C   UNL     1       5.400   4.905  18.538  0.00  0.00    +0.000 A 
ATOM     20  C   UNL     1       6.339   5.929  18.683  0.00  0.00    +0.000 A 
ATOM     21  C   UNL     1       7.121   6.315  17.598  0.00  0.00    +0.000 A 
ATOM     22  C   UNL     1       6.953   5.685  16.367  0.00  0.00    +0.000 A 
ATOM     23  C   UNL     1       6.016   4.655  16.220  0.00  0.00    +0.000 A 
ATOM     24 CL   UNL     1       5.906   3.921  14.662  0.00  0.00    +0.000 Cl
ENDBRANCH  17  18
ENDBRANCH   7  17
TORSDOF 5
ENDMDL
MODEL 2
REMARK VINA RESULT:      -8.3      3.636      6.232
REMARK  Name = 
REMARK  5 active torsions:
REMARK  status: ('A' for Active; 'I' for Inactive)
REMARK    1  A    between atoms: C_4  and  C_5
REMARK    2  A    between atoms: C_5  and  C_6
REMARK    3  A    between atoms: C_6  and  C_7
REMARK    4  A    between atoms: N_15  and  C_16
REMARK    5  A    between atoms: C_16  and  C_17
REMARK                            x       y       z     vdW  Elec       q    Type
REMARK                         _______ _______ _______ _____ _____    ______ ____
ROOT
ATOM      1  O   UNL     1       5.538   6.195  15.267  0.00  0.00    +0.000 OA
ATOM      2  C   UNL     1       6.046   5.912  16.339  0.00  0.00    +0.000 C 
ATOM      3  N   UNL     1       7.390   6.061  16.596  0.00  0.00    +0.000 N 
ATOM      4  C   UNL     1       7.697   5.906  17.995  0.00  0.00    +0.000 C 
ATOM      5  C   UNL     1       6.334   5.417  18.499  0.00  0.00    +0.000 C 
ATOM      6  O   UNL     1       6.088   5.095  19.654  0.00  0.00    +0.000 OA
ATOM      7  N   UNL     1       5.438   5.461  17.468  0.00  0.00    +0.000 N 
ATOM      8  H   UNL     1       8.005   6.442  15.887  0.00  0.00    +0.000 HD
ENDROOT
BRANCH   4   9
ATOM      9  C   UNL     1       8.101   7.247  18.605  0.00  0.00    +0.000 C 
BRANCH   9  10
ATOM     10  C   UNL     1       7.861   8.425  17.657  0.00  0.00    +0.000 C 
BRANCH  10  11
ATOM     11  C   UNL     1       8.483   9.697  18.178  0.00  0.00    +0.000 A 
ATOM     12  C   UNL     1       8.301  10.907  17.492  0.00  0.00    +0.000 A 
ATOM     13  C   UNL     1       8.871  12.086  17.974  0.00  0.00    +0.000 A 
ATOM     14  C   UNL     1       9.632  12.066  19.142  0.00  0.00    +0.000 A 
ATOM     15  C   UNL     1       9.825  10.866  19.826  0.00  0.00    +0.000 A 
ATOM     16  C   UNL     1       9.255   9.687  19.346  0.00  0.00    +0.000 A 
ENDBRANCH  10  11
ENDBRANCH   9  10
ENDBRANCH   4   9
BRANCH   7  17
ATOM     17  C   UNL     1       4.019   5.221  17.607  0.00  0.00    +0.000 C 
BRANCH  17  18
ATOM     18  C   UNL     1       3.266   6.378  18.229  0.00  0.00    +0.000 A 
ATOM     19  C   UNL     1       3.113   7.567  17.488  0.00  0.00    +0.000 A 
ATOM     20  C   UNL     1       2.374   8.641  17.992  0.00  0.00    +0.000 A 
ATOM     21  C   UNL     1       1.786   8.553  19.250  0.00  0.00    +0.000 A 
ATOM     22  C   UNL     1       1.950   7.396  20.008  0.00  0.00    +0.000 A 
ATOM     23  C   UNL     1       2.685   6.316  19.505  0.00  0.00    +0.000 A 
ATOM     24 CL   UNL     1       2.804   4.920  20.513  0.00  0.00    +0.000 Cl
ENDBRANCH  17  18
ENDBRANCH   7  17
TORSDOF 5
ENDMDL
MODEL 3
REMARK VINA RESULT:      -8.2      3.907      6.433
REMARK  Name = 
REMARK  5 active torsions:
REMARK  status: ('A' for Active; 'I' for Inactive)
REMARK    1  A    between atoms: C_4  and  C_5
REMARK    2  A    between atoms: C_5  and  C_6
REMARK    3  A    between atoms: C_6  and  C_7
REMARK    4  A    between atoms: N_15  and  C_16
REMARK    5  A    between atoms: C_16  and  C_17
REMARK                            x       y       z     vdW  Elec       q    Type
REMARK                         _______ _______ _______ _____ _____    ______ ____
ROOT
ATOM      1  O   UNL     1       4.165   7.157  17.031  0.00  0.00    +0.000 OA
ATOM      2  C   UNL     1       5.183   6.691  17.514  0.00  0.00    +0.000 C 
ATOM      3  N   UNL     1       6.435   6.917  16.987  0.00  0.00    +0.000 N 
ATOM      4  C   UNL     1       7.485   6.480  17.871  0.00  0.00    +0.000 C 
ATOM      5  C   UNL     1       6.640   5.750  18.923  0.00  0.00    +0.000 C 
ATOM      6  O   UNL     1       7.091   5.149  19.890  0.00  0.00    +0.000 OA
ATOM      7  N   UNL     1       5.317   5.934  18.634  0.00  0.00    +0.000 N 
ATOM      8  H   UNL     1       6.546   7.511  16.174  0.00  0.00    +0.000 HD
ENDROOT
BRANCH   4   9
ATOM      9  C   UNL     1       8.231   7.681  18.450  0.00  0.00    +0.000 C 
BRANCH   9  10
ATOM     10  C   UNL     1       8.041   8.952  17.619  0.00  0.00    +0.000 C 
BRANCH  10  11
ATOM     11  C   UNL     1       8.661  10.154  18.286  0.00  0.00    +0.000 A 
ATOM     12  C   UNL     1       8.553  11.424  17.701  0.00  0.00    +0.000 A 
ATOM     13  C   UNL     1       9.122  12.538  18.320  0.00  0.00    +0.000 A 
ATOM     14  C   UNL     1       9.808  12.394  19.524  0.00  0.00    +0.000 A 
ATOM     15  C   UNL     1       9.929  11.133  20.108  0.00  0.00    +0.000 A 
ATOM     16  C   UNL     1       9.360  10.018  19.492  0.00  0.00    +0.000 A 
ENDBRANCH  10  11
ENDBRANCH   9  10
ENDBRANCH   4   9
BRANCH   7  17
ATOM     17  C   UNL     1       4.228   5.522  19.492  0.00  0.00    +0.000 C 
BRANCH  17  18
ATOM     18  C   UNL     1       3.468   4.320  18.975  0.00  0.00    +0.000 A 
ATOM     19  C   UNL     1       4.098   3.464  18.049  0.00  0.00    +0.000 A 
ATOM     20  C   UNL     1       3.464   2.307  17.589  0.00  0.00    +0.000 A 
ATOM     21  C   UNL     1       2.184   1.991  18.032  0.00  0.00    +0.000 A 
ATOM     22  C   UNL     1       1.534   2.839  18.926  0.00  0.00    +0.000 A 
ATOM     23  C   UNL     1       2.168   3.997  19.393  0.00  0.00    +0.000 A 
ATOM     24 CL   UNL     1       1.288   4.965  20.519  0.00  0.00    +0.000 Cl
ENDBRANCH  17  18
ENDBRANCH   7  17
TORSDOF 5
ENDMDL
MODEL 4
REMARK VINA RESULT:      -8.2      3.622      6.166
REMARK  Name = 
REMARK  5 active torsions:
REMARK  status: ('A' for Active; 'I' for Inactive)
REMARK    1  A    between atoms: C_4  and  C_5
REMARK    2  A    between atoms: C_5  and  C_6
REMARK    3  A    between atoms: C_6  and  C_7
REMARK    4  A    between atoms: N_15  and  C_16
REMARK    5  A    between atoms: C_16  and  C_17
REMARK                            x       y       z     vdW  Elec       q    Type
REMARK                         _______ _______ _______ _____ _____    ______ ____
ROOT
ATOM      1  O   UNL     1       5.436   6.173  15.188  0.00  0.00    +0.000 OA
ATOM      2  C   UNL     1       5.848   5.932  16.310  0.00  0.00    +0.000 C 
ATOM      3  N   UNL     1       7.185   5.779  16.603  0.00  0.00    +0.000 N 
ATOM      4  C   UNL     1       7.431   5.757  18.022  0.00  0.00    +0.000 C 
ATOM      5  C   UNL     1       5.985   5.700  18.528  0.00  0.00    +0.000 C 
ATOM      6  O   UNL     1       5.657   5.620  19.705  0.00  0.00    +0.000 OA
ATOM      7  N   UNL     1       5.137   5.814  17.463  0.00  0.00    +0.000 N 
ATOM      8  H   UNL     1       7.881   5.888  15.876  0.00  0.00    +0.000 HD
ENDROOT
BRANCH   4   9
ATOM      9  C   UNL     1       8.155   7.030  18.459  0.00  0.00    +0.000 C 
BRANCH   9  10
ATOM     10  C   UNL     1       7.711   8.263  17.668  0.00  0.00    +0.000 C 
BRANCH  10  11
ATOM     11  C   UNL     1       8.361   9.522  18.184  0.00  0.00    +0.000 A 
ATOM     12  C   UNL     1       9.093   9.503  19.380  0.00  0.00    +0.000 A 
ATOM     13  C   UNL     1       9.699  10.666  19.857  0.00  0.00    +0.000 A 
ATOM     14  C   UNL     1       9.575  11.859  19.148  0.00  0.00    +0.000 A 
ATOM     15  C   UNL     1       8.842  11.890  17.962  0.00  0.00    +0.000 A 
ATOM     16  C   UNL     1       8.236  10.728  17.483  0.00  0.00    +0.000 A 
ENDBRANCH  10  11
ENDBRANCH   9  10
ENDBRANCH   4   9
BRANCH   7  17
ATOM     17  C   UNL     1       3.702   5.956  17.571  0.00  0.00    +0.000 C 
BRANCH  17  18
ATOM     18  C   UNL     1       2.998   4.690  18.009  0.00  0.00    +0.000 A 
ATOM     19  C   UNL     1       3.103   3.539  17.204  0.00  0.00    +0.000 A 
ATOM     20  C   UNL     1       2.525   2.328  17.595  0.00  0.00    +0.000 A 
ATOM     21  C   UNL     1       1.818   2.248  18.790  0.00  0.00    +0.000 A 
ATOM     22  C   UNL     1       1.679   3.383  19.587  0.00  0.00    +0.000 A 
ATOM     23  C   UNL     1       2.261   4.596  19.201  0.00  0.00    +0.000 A 
ATOM     24 CL   UNL     1       2.054   5.934  20.272  0.00  0.00    +0.000 Cl
ENDBRANCH  17  18
ENDBRANCH   7  17
TORSDOF 5
ENDMDL
MODEL 5
REMARK VINA RESULT:      -8.0      3.411      6.864
REMARK  Name = 
REMARK  5 active torsions:
REMARK  status: ('A' for Active; 'I' for Inactive)
REMARK    1  A    between atoms: C_4  and  C_5
REMARK    2  A    between atoms: C_5  and  C_6
REMARK    3  A    between atoms: C_6  and  C_7
REMARK    4  A    between atoms: N_15  and  C_16
REMARK    5  A    between atoms: C_16  and  C_17
REMARK                            x       y       z     vdW  Elec       q    Type
REMARK                         _______ _______ _______ _____ _____    ______ ____
ROOT
ATOM      1  O   UNL     1       6.023   4.998  19.714  0.00  0.00    +0.000 OA
ATOM      2  C   UNL     1       6.055   5.460  18.587  0.00  0.00    +0.000 C 
ATOM      3  N   UNL     1       7.173   5.406  17.784  0.00  0.00    +0.000 N 
ATOM      4  C   UNL     1       6.885   5.782  16.424  0.00  0.00    +0.000 C 
ATOM      5  C   UNL     1       5.447   6.285  16.600  0.00  0.00    +0.000 C 
ATOM      6  O   UNL     1       4.759   6.767  15.710  0.00  0.00    +0.000 OA
ATOM      7  N   UNL     1       5.050   6.051  17.887  0.00  0.00    +0.000 N 
ATOM      8  H   UNL     1       8.014   4.948  18.114  0.00  0.00    +0.000 HD
ENDROOT
BRANCH   4   9
ATOM      9  C   UNL     1       6.971   4.565  15.503  0.00  0.00    +0.000 C 
BRANCH   9  10
ATOM     10  C   UNL     1       7.282   4.942  14.053  0.00  0.00    +0.000 C 
BRANCH  10  11
ATOM     11  C   UNL     1       6.565   4.044  13.076  0.00  0.00    +0.000 A 
ATOM     12  C   UNL     1       7.292   3.239  12.188  0.00  0.00    +0.000 A 
ATOM     13  C   UNL     1       6.630   2.403  11.287  0.00  0.00    +0.000 A 
ATOM     14  C   UNL     1       5.238   2.369  11.260  0.00  0.00    +0.000 A 
ATOM     15  C   UNL     1       4.506   3.173  12.133  0.00  0.00    +0.000 A 
ATOM     16  C   UNL     1       5.165   4.008  13.036  0.00  0.00    +0.000 A 
ENDBRANCH  10  11
ENDBRANCH   9  10
ENDBRANCH   4   9
BRANCH   7  17
ATOM     17  C   UNL     1       3.704   6.251  18.377  0.00  0.00    +0.000 C 
BRANCH  17  18
ATOM     18  C   UNL     1       2.886   4.980  18.438  0.00  0.00    +0.000 A 
ATOM     19  C   UNL     1       3.078   3.997  17.447  0.00  0.00    +0.000 A 
ATOM     20  C   UNL     1       2.394   2.780  17.493  0.00  0.00    +0.000 A 
ATOM     21  C   UNL     1       1.493   2.526  18.523  0.00  0.00    +0.000 A 
ATOM     22  C   UNL     1       1.269   3.496  19.498  0.00  0.00    +0.000 A 
ATOM     23  C   UNL     1       1.957   4.715  19.457  0.00  0.00    +0.000 A 
ATOM     24 CL   UNL     1       1.627   5.836  20.727  0.00  0.00    +0.000 Cl
ENDBRANCH  17  18
ENDBRANCH   7  17
TORSDOF 5
ENDMDL
MODEL 6
REMARK VINA RESULT:      -7.9      3.138      6.421
REMARK  Name = 
REMARK  5 active torsions:
REMARK  status: ('A' for Active; 'I' for Inactive)
REMARK    1  A    between atoms: C_4  and  C_5
REMARK    2  A    between atoms: C_5  and  C_6
REMARK    3  A    between atoms: C_6  and  C_7
REMARK    4  A    between atoms: N_15  and  C_16
REMARK    5  A    between atoms: C_16  and  C_17
REMARK                            x       y       z     vdW  Elec       q    Type
REMARK                         _______ _______ _______ _____ _____    ______ ____
ROOT
ATOM      1  O   UNL     1       7.217   4.425  18.720  0.00  0.00    +0.000 OA
ATOM      2  C   UNL     1       6.456   5.288  18.317  0.00  0.00    +0.000 C 
ATOM      3  N   UNL     1       6.761   6.129  17.269  0.00  0.00    +0.000 N 
ATOM      4  C   UNL     1       5.614   6.877  16.821  0.00  0.00    +0.000 C 
ATOM      5  C   UNL     1       4.621   6.503  17.928  0.00  0.00    +0.000 C 
ATOM      6  O   UNL     1       3.480   6.937  18.022  0.00  0.00    +0.000 OA
ATOM      7  N   UNL     1       5.197   5.572  18.745  0.00  0.00    +0.000 N 
ATOM      8  H   UNL     1       7.642   6.033  16.780  0.00  0.00    +0.000 HD
ENDROOT
BRANCH   4   9
ATOM      9  C   UNL     1       5.165   6.394  15.443  0.00  0.00    +0.000 C 
BRANCH   9  10
ATOM     10  C   UNL     1       5.175   4.868  15.320  0.00  0.00    +0.000 C 
BRANCH  10  11
ATOM     11  C   UNL     1       5.804   4.416  14.026  0.00  0.00    +0.000 A 
ATOM     12  C   UNL     1       5.135   3.508  13.192  0.00  0.00    +0.000 A 
ATOM     13  C   UNL     1       5.714   3.092  11.992  0.00  0.00    +0.000 A 
ATOM     14  C   UNL     1       6.966   3.574  11.617  0.00  0.00    +0.000 A 
ATOM     15  C   UNL     1       7.643   4.470  12.444  0.00  0.00    +0.000 A 
ATOM     16  C   UNL     1       7.066   4.888  13.644  0.00  0.00    +0.000 A 
ENDBRANCH  10  11
ENDBRANCH   9  10
ENDBRANCH   4   9
BRANCH   7  17
ATOM     17  C   UNL     1       4.504   4.872  19.804  0.00  0.00    +0.000 C 
BRANCH  17  18
ATOM     18  C   UNL     1       3.391   3.973  19.310  0.00  0.00    +0.000 A 
ATOM     19  C   UNL     1       3.711   2.906  18.447  0.00  0.00    +0.000 A 
ATOM     20  C   UNL     1       2.730   2.010  18.013  0.00  0.00    +0.000 A 
ATOM     21  C   UNL     1       1.410   2.170  18.421  0.00  0.00    +0.000 A 
ATOM     22  C   UNL     1       1.069   3.235  19.253  0.00  0.00    +0.000 A 
ATOM     23  C   UNL     1       2.050   4.132  19.693  0.00  0.00    +0.000 A 
ATOM     24 CL   UNL     1       1.529   5.399  20.743  0.00  0.00    +0.000 Cl
ENDBRANCH  17  18
ENDBRANCH   7  17
TORSDOF 5
ENDMDL
MODEL 7
REMARK VINA RESULT:      -7.9      3.668      6.275
REMARK  Name = 
REMARK  5 active torsions:
REMARK  status: ('A' for Active; 'I' for Inactive)
REMARK    1  A    between atoms: C_4  and  C_5
REMARK    2  A    between atoms: C_5  and  C_6
REMARK    3  A    between atoms: C_6  and  C_7
REMARK    4  A    between atoms: N_15  and  C_16
REMARK    5  A    between atoms: C_16  and  C_17
REMARK                            x       y       z     vdW  Elec       q    Type
REMARK                         _______ _______ _______ _____ _____    ______ ____
ROOT
ATOM      1  O   UNL     1       4.105   7.040  17.072  0.00  0.00    +0.000 OA
ATOM      2  C   UNL     1       5.122   6.565  17.546  0.00  0.00    +0.000 C 
ATOM      3  N   UNL     1       6.367   6.740  16.984  0.00  0.00    +0.000 N 
ATOM      4  C   UNL     1       7.425   6.306  17.859  0.00  0.00    +0.000 C 
ATOM      5  C   UNL     1       6.588   5.635  18.954  0.00  0.00    +0.000 C 
ATOM      6  O   UNL     1       7.046   5.056  19.931  0.00  0.00    +0.000 OA
ATOM      7  N   UNL     1       5.263   5.843  18.689  0.00  0.00    +0.000 N 
ATOM      8  H   UNL     1       6.473   7.302  16.148  0.00  0.00    +0.000 HD
ENDROOT
BRANCH   4   9
ATOM      9  C   UNL     1       8.215   7.507  18.379  0.00  0.00    +0.000 C 
BRANCH   9  10
ATOM     10  C   UNL     1       7.926   8.789  17.593  0.00  0.00    +0.000 C 
BRANCH  10  11
ATOM     11  C   UNL     1       8.547   9.997  18.249  0.00  0.00    +0.000 A 
ATOM     12  C   UNL     1       8.475  11.254  17.631  0.00  0.00    +0.000 A 
ATOM     13  C   UNL     1       9.044  12.374  18.239  0.00  0.00    +0.000 A 
ATOM     14  C   UNL     1       9.696  12.248  19.464  0.00  0.00    +0.000 A 
ATOM     15  C   UNL     1       9.780  11.001  20.082  0.00  0.00    +0.000 A 
ATOM     16  C   UNL     1       9.211   9.880  19.477  0.00  0.00    +0.000 A 
ENDBRANCH  10  11
ENDBRANCH   9  10
ENDBRANCH   4   9
BRANCH   7  17
ATOM     17  C   UNL     1       4.185   5.489  19.586  0.00  0.00    +0.000 C 
BRANCH  17  18
ATOM     18  C   UNL     1       3.289   4.391  19.055  0.00  0.00    +0.000 A 
ATOM     19  C   UNL     1       2.158   4.745  18.291  0.00  0.00    +0.000 A 
ATOM     20  C   UNL     1       1.335   3.768  17.725  0.00  0.00    +0.000 A 
ATOM     21  C   UNL     1       1.616   2.420  17.923  0.00  0.00    +0.000 A 
ATOM     22  C   UNL     1       2.713   2.051  18.698  0.00  0.00    +0.000 A 
ATOM     23  C   UNL     1       3.543   3.027  19.262  0.00  0.00    +0.000 A 
ATOM     24 CL   UNL     1       4.892   2.463  20.181  0.00  0.00    +0.000 Cl
ENDBRANCH  17  18
ENDBRANCH   7  17
TORSDOF 5
ENDMDL
MODEL 8
REMARK VINA RESULT:      -7.9      3.057      6.507
REMARK  Name = 
REMARK  5 active torsions:
REMARK  status: ('A' for Active; 'I' for Inactive)
REMARK    1  A    between atoms: C_4  and  C_5
REMARK    2  A    between atoms: C_5  and  C_6
REMARK    3  A    between atoms: C_6  and  C_7
REMARK    4  A    between atoms: N_15  and  C_16
REMARK    5  A    between atoms: C_16  and  C_17
REMARK                            x       y       z     vdW  Elec       q    Type
REMARK                         _______ _______ _______ _____ _____    ______ ____
ROOT
ATOM      1  O   UNL     1       5.124   4.537  20.182  0.00  0.00    +0.000 OA
ATOM      2  C   UNL     1       5.571   5.160  19.234  0.00  0.00    +0.000 C 
ATOM      3  N   UNL     1       6.905   5.150  18.891  0.00  0.00    +0.000 N 
ATOM      4  C   UNL     1       7.138   5.746  17.600  0.00  0.00    +0.000 C 
ATOM      5  C   UNL     1       5.740   6.314  17.328  0.00  0.00    +0.000 C 
ATOM      6  O   UNL     1       5.430   6.970  16.342  0.00  0.00    +0.000 OA
ATOM      7  N   UNL     1       4.898   5.917  18.328  0.00  0.00    +0.000 N 
ATOM      8  H   UNL     1       7.563   4.592  19.420  0.00  0.00    +0.000 HD
ENDROOT
BRANCH   4   9
ATOM      9  C   UNL     1       7.544   4.679  16.584  0.00  0.00    +0.000 C 
BRANCH   9  10
ATOM     10  C   UNL     1       6.360   4.162  15.764  0.00  0.00    +0.000 C 
BRANCH  10  11
ATOM     11  C   UNL     1       6.629   4.242  14.282  0.00  0.00    +0.000 A 
ATOM     12  C   UNL     1       5.981   3.370  13.395  0.00  0.00    +0.000 A 
ATOM     13  C   UNL     1       6.225   3.447  12.023  0.00  0.00    +0.000 A 
ATOM     14  C   UNL     1       7.122   4.390  11.525  0.00  0.00    +0.000 A 
ATOM     15  C   UNL     1       7.778   5.256  12.400  0.00  0.00    +0.000 A 
ATOM     16  C   UNL     1       7.534   5.182  13.772  0.00  0.00    +0.000 A 
ENDBRANCH  10  11
ENDBRANCH   9  10
ENDBRANCH   4   9
BRANCH   7  17
ATOM     17  C   UNL     1       3.468   6.132  18.327  0.00  0.00    +0.000 C 
BRANCH  17  18
ATOM     18  C   UNL     1       2.661   4.858  18.455  0.00  0.00    +0.000 A 
ATOM     19  C   UNL     1       2.799   3.863  17.467  0.00  0.00    +0.000 A 
ATOM     20  C   UNL     1       2.126   2.643  17.571  0.00  0.00    +0.000 A 
ATOM     21  C   UNL     1       1.291   2.399  18.657  0.00  0.00    +0.000 A 
ATOM     22  C   UNL     1       1.120   3.381  19.630  0.00  0.00    +0.000 A 
ATOM     23  C   UNL     1       1.797   4.603  19.531  0.00  0.00    +0.000 A 
ATOM     24 CL   UNL     1       1.538   5.740  20.803  0.00  0.00    +0.000 Cl
ENDBRANCH  17  18
ENDBRANCH   7  17
TORSDOF 5
ENDMDL
MODEL 9
REMARK VINA RESULT:      -7.8      2.741      6.296
REMARK  Name = 
REMARK  5 active torsions:
REMARK  status: ('A' for Active; 'I' for Inactive)
REMARK    1  A    between atoms: C_4  and  C_5
REMARK    2  A    between atoms: C_5  and  C_6
REMARK    3  A    between atoms: C_6  and  C_7
REMARK    4  A    between atoms: N_15  and  C_16
REMARK    5  A    between atoms: C_16  and  C_17
REMARK                            x       y       z     vdW  Elec       q    Type
REMARK                         _______ _______ _______ _____ _____    ______ ____
ROOT
ATOM      1  O   UNL     1       4.001   2.954  19.125  0.00  0.00    +0.000 OA
ATOM      2  C   UNL     1       4.672   3.908  18.768  0.00  0.00    +0.000 C 
ATOM      3  N   UNL     1       6.047   3.926  18.835  0.00  0.00    +0.000 N 
ATOM      4  C   UNL     1       6.612   5.044  18.124  0.00  0.00    +0.000 C 
ATOM      5  C   UNL     1       5.325   5.816  17.806  0.00  0.00    +0.000 C 
ATOM      6  O   UNL     1       5.280   6.897  17.233  0.00  0.00    +0.000 OA
ATOM      7  N   UNL     1       4.251   5.075  18.213  0.00  0.00    +0.000 N 
ATOM      8  H   UNL     1       6.551   3.115  19.173  0.00  0.00    +0.000 HD
ENDROOT
BRANCH   4   9
ATOM      9  C   UNL     1       7.334   4.567  16.865  0.00  0.00    +0.000 C 
BRANCH   9  10
ATOM     10  C   UNL     1       7.196   5.547  15.697  0.00  0.00    +0.000 C 
BRANCH  10  11
ATOM     11  C   UNL     1       6.813   4.843  14.419  0.00  0.00    +0.000 A 
ATOM     12  C   UNL     1       7.639   4.925  13.289  0.00  0.00    +0.000 A 
ATOM     13  C   UNL     1       7.289   4.270  12.108  0.00  0.00    +0.000 A 
ATOM     14  C   UNL     1       6.108   3.532  12.042  0.00  0.00    +0.000 A 
ATOM     15  C   UNL     1       5.275   3.452  13.158  0.00  0.00    +0.000 A 
ATOM     16  C   UNL     1       5.624   4.106  14.340  0.00  0.00    +0.000 A 
ENDBRANCH  10  11
ENDBRANCH   9  10
ENDBRANCH   4   9
BRANCH   7  17
ATOM     17  C   UNL     1       2.873   5.413  17.936  0.00  0.00    +0.000 C 
BRANCH  17  18
ATOM     18  C   UNL     1       2.370   6.603  18.726  0.00  0.00    +0.000 A 
ATOM     19  C   UNL     1       2.230   7.843  18.073  0.00  0.00    +0.000 A 
ATOM     20  C   UNL     1       1.711   8.956  18.739  0.00  0.00    +0.000 A 
ATOM     21  C   UNL     1       1.335   8.855  20.075  0.00  0.00    +0.000 A 
ATOM     22  C   UNL     1       1.492   7.644  20.746  0.00  0.00    +0.000 A 
ATOM     23  C   UNL     1       2.007   6.526  20.080  0.00  0.00    +0.000 A 
ATOM     24 CL   UNL     1       2.134   5.067  20.993  0.00  0.00    +0.000 Cl
ENDBRANCH  17  18
ENDBRANCH   7  17
TORSDOF 5
ENDMDL
