MODEL 1
REMARK VINA RESULT:      -7.1      0.000      0.000
REMARK  Name = 
REMARK  3 active torsions:
REMARK  status: ('A' for Active; 'I' for Inactive)
REMARK    1  A    between atoms: C_2  and  C_3
REMARK    2  A    between atoms: C_8  and  N_9
REMARK    3  A    between atoms: C_10  and  C_12
REMARK                            x       y       z     vdW  Elec       q    Type
REMARK                         _______ _______ _______ _____ _____    ______ ____
ROOT
ATOM      1  N   UNL     1       4.634   3.570  17.430  0.00  0.00    +0.000 N 
ATOM      2  C   UNL     1       3.587   4.317  17.959  0.00  0.00    +0.000 C 
ATOM      3  O   UNL     1       3.233   5.431  17.585  0.00  0.00    +0.000 OA
ATOM      4  H   UNL     1       4.905   2.739  17.942  0.00  0.00    +0.000 HD
ENDROOT
BRANCH   1  10
ATOM      5  C   UNL     1       6.734   4.578  16.613  0.00  0.00    +0.000 A 
ATOM      6  C   UNL     1       7.552   4.985  15.545  0.00  0.00    +0.000 A 
ATOM      7  C   UNL     1       7.145   4.816  14.226  0.00  0.00    +0.000 A 
ATOM      8  C   UNL     1       5.920   4.221  13.964  0.00  0.00    +0.000 A 
ATOM      9  C   UNL     1       5.108   3.795  15.017  0.00  0.00    +0.000 A 
ATOM     10  C   UNL     1       5.483   3.974  16.357  0.00  0.00    +0.000 A 
BRANCH   5  12
ATOM     11  N   UNL     1       7.572   5.058  19.024  0.00  0.00    +0.000 NA
ATOM     12  C   UNL     1       7.202   4.839  17.945  0.00  0.00    +0.000 C 
ENDBRANCH   5  12
ENDBRANCH   1  10
BRANCH   2  13
ATOM     13  C   UNL     1       2.899   3.748  19.152  0.00  0.00    +0.000 A 
ATOM     14  C   UNL     1       1.522   3.995  19.282  0.00  0.00    +0.000 A 
ATOM     15  C   UNL     1       0.829   3.559  20.410  0.00  0.00    +0.000 A 
ATOM     16  C   UNL     1       1.503   2.860  21.406  0.00  0.00    +0.000 A 
ATOM     17  C   UNL     1       2.859   2.565  21.260  0.00  0.00    +0.000 A 
ATOM     18  C   UNL     1       3.560   3.000  20.131  0.00  0.00    +0.000 A 
ENDBRANCH   2  13
TORSDOF 3
ENDMDL
MODEL 2
REMARK VINA RESULT:      -6.9      1.009      1.536
REMARK  Name = 
REMARK  3 active torsions:
REMARK  status: ('A' for Active; 'I' for Inactive)
REMARK    1  A    between atoms: C_2  and  C_3
REMARK    2  A    between atoms: C_8  and  N_9
REMARK    3  A    between atoms: C_10  and  C_12
REMARK                            x       y       z     vdW  Elec       q    Type
REMARK                         _______ _______ _______ _____ _____    ______ ____
ROOT
ATOM      1  N   UNL     1       4.475   4.198  17.723  0.00  0.00    +0.000 N 
ATOM      2  C   UNL     1       3.871   3.009  18.116  0.00  0.00    +0.000 C 
ATOM      3  O   UNL     1       3.974   1.925  17.552  0.00  0.00    +0.000 OA
ATOM      4  H   UNL     1       4.172   5.042  18.197  0.00  0.00    +0.000 HD
ENDROOT
BRANCH   1  10
ATOM      5  C   UNL     1       6.686   4.694  16.744  0.00  0.00    +0.000 A 
ATOM      6  C   UNL     1       7.503   4.868  15.614  0.00  0.00    +0.000 A 
ATOM      7  C   UNL     1       6.987   4.734  14.329  0.00  0.00    +0.000 A 
ATOM      8  C   UNL     1       5.650   4.406  14.165  0.00  0.00    +0.000 A 
ATOM      9  C   UNL     1       4.833   4.211  15.280  0.00  0.00    +0.000 A 
ATOM     10  C   UNL     1       5.322   4.364  16.587  0.00  0.00    +0.000 A 
BRANCH   5  12
ATOM     11  N   UNL     1       7.771   5.067  19.073  0.00  0.00    +0.000 NA
ATOM     12  C   UNL     1       7.282   4.905  18.032  0.00  0.00    +0.000 C 
ENDBRANCH   5  12
ENDBRANCH   1  10
BRANCH   2  13
ATOM     13  C   UNL     1       2.935   3.088  19.274  0.00  0.00    +0.000 A 
ATOM     14  C   UNL     1       3.406   2.632  20.516  0.00  0.00    +0.000 A 
ATOM     15  C   UNL     1       2.564   2.605  21.626  0.00  0.00    +0.000 A 
ATOM     16  C   UNL     1       1.250   3.047  21.505  0.00  0.00    +0.000 A 
ATOM     17  C   UNL     1       0.789   3.550  20.287  0.00  0.00    +0.000 A 
ATOM     18  C   UNL     1       1.630   3.580  19.171  0.00  0.00    +0.000 A 
ENDBRANCH   2  13
TORSDOF 3
ENDMDL
MODEL 3
REMARK VINA RESULT:      -6.9      0.708      1.115
REMARK  Name = 
REMARK  3 active torsions:
REMARK  status: ('A' for Active; 'I' for Inactive)
REMARK    1  A    between atoms: C_2  and  C_3
REMARK    2  A    between atoms: C_8  and  N_9
REMARK    3  A    between atoms: C_10  and  C_12
REMARK                            x       y       z     vdW  Elec       q    Type
REMARK                         _______ _______ _______ _____ _____    ______ ____
ROOT
ATOM      1  N   UNL     1       4.321   3.805  17.220  0.00  0.00    +0.000 N 
ATOM      2  C   UNL     1       3.426   4.694  17.807  0.00  0.00    +0.000 C 
ATOM      3  O   UNL     1       3.348   5.896  17.578  0.00  0.00    +0.000 OA
ATOM      4  H   UNL     1       4.371   2.877  17.622  0.00  0.00    +0.000 HD
ENDROOT
BRANCH   1  10
ATOM      5  C   UNL     1       6.570   4.643  16.641  0.00  0.00    +0.000 A 
ATOM      6  C   UNL     1       7.527   4.985  15.670  0.00  0.00    +0.000 A 
ATOM      7  C   UNL     1       7.249   4.854  14.313  0.00  0.00    +0.000 A 
ATOM      8  C   UNL     1       6.016   4.360  13.917  0.00  0.00    +0.000 A 
ATOM      9  C   UNL     1       5.064   3.999  14.874  0.00  0.00    +0.000 A 
ATOM     10  C   UNL     1       5.309   4.143  16.247  0.00  0.00    +0.000 A 
BRANCH   5  12
ATOM     11  N   UNL     1       7.201   5.044  19.128  0.00  0.00    +0.000 NA
ATOM     12  C   UNL     1       6.914   4.861  18.018  0.00  0.00    +0.000 C 
ENDBRANCH   5  12
ENDBRANCH   1  10
BRANCH   2  13
ATOM     13  C   UNL     1       2.551   4.146  18.882  0.00  0.00    +0.000 A 
ATOM     14  C   UNL     1       2.865   4.490  20.207  0.00  0.00    +0.000 A 
ATOM     15  C   UNL     1       2.138   3.953  21.268  0.00  0.00    +0.000 A 
ATOM     16  C   UNL     1       1.083   3.083  21.011  0.00  0.00    +0.000 A 
ATOM     17  C   UNL     1       0.732   2.777  19.695  0.00  0.00    +0.000 A 
ATOM     18  C   UNL     1       1.458   3.312  18.627  0.00  0.00    +0.000 A 
ENDBRANCH   2  13
TORSDOF 3
ENDMDL
MODEL 4
REMARK VINA RESULT:      -6.6      1.518      6.132
REMARK  Name = 
REMARK  3 active torsions:
REMARK  status: ('A' for Active; 'I' for Inactive)
REMARK    1  A    between atoms: C_2  and  C_3
REMARK    2  A    between atoms: C_8  and  N_9
REMARK    3  A    between atoms: C_10  and  C_12
REMARK                            x       y       z     vdW  Elec       q    Type
REMARK                         _______ _______ _______ _____ _____    ______ ____
ROOT
ATOM      1  N   UNL     1       4.478   3.924  16.384  0.00  0.00    +0.000 N 
ATOM      2  C   UNL     1       5.071   4.963  15.673  0.00  0.00    +0.000 C 
ATOM      3  O   UNL     1       4.972   6.159  15.926  0.00  0.00    +0.000 OA
ATOM      4  H   UNL     1       4.522   3.003  15.965  0.00  0.00    +0.000 HD
ENDROOT
BRANCH   1  10
ATOM      5  C   UNL     1       4.197   4.433  18.783  0.00  0.00    +0.000 A 
ATOM      6  C   UNL     1       3.367   4.561  19.909  0.00  0.00    +0.000 A 
ATOM      7  C   UNL     1       1.999   4.324  19.821  0.00  0.00    +0.000 A 
ATOM      8  C   UNL     1       1.448   3.974  18.598  0.00  0.00    +0.000 A 
ATOM      9  C   UNL     1       2.261   3.864  17.468  0.00  0.00    +0.000 A 
ATOM     10  C   UNL     1       3.646   4.074  17.534  0.00  0.00    +0.000 A 
BRANCH   5  12
ATOM     11  N   UNL     1       6.743   4.810  19.133  0.00  0.00    +0.000 NA
ATOM     12  C   UNL     1       5.605   4.640  18.970  0.00  0.00    +0.000 C 
ENDBRANCH   5  12
ENDBRANCH   1  10
BRANCH   2  13
ATOM     13  C   UNL     1       5.812   4.586  14.436  0.00  0.00    +0.000 A 
ATOM     14  C   UNL     1       7.059   5.195  14.220  0.00  0.00    +0.000 A 
ATOM     15  C   UNL     1       7.773   4.949  13.049  0.00  0.00    +0.000 A 
ATOM     16  C   UNL     1       7.253   4.080  12.094  0.00  0.00    +0.000 A 
ATOM     17  C   UNL     1       6.039   3.430  12.325  0.00  0.00    +0.000 A 
ATOM     18  C   UNL     1       5.319   3.674  13.498  0.00  0.00    +0.000 A 
ENDBRANCH   2  13
TORSDOF 3
ENDMDL
MODEL 5
REMARK VINA RESULT:      -6.6      1.649      6.154
REMARK  Name = 
REMARK  3 active torsions:
REMARK  status: ('A' for Active; 'I' for Inactive)
REMARK    1  A    between atoms: C_2  and  C_3
REMARK    2  A    between atoms: C_8  and  N_9
REMARK    3  A    between atoms: C_10  and  C_12
REMARK                            x       y       z     vdW  Elec       q    Type
REMARK                         _______ _______ _______ _____ _____    ______ ____
ROOT
ATOM      1  N   UNL     1       3.748   3.921  17.909  0.00  0.00    +0.000 N 
ATOM      2  C   UNL     1       5.125   4.116  17.932  0.00  0.00    +0.000 C 
ATOM      3  O   UNL     1       5.833   4.154  18.933  0.00  0.00    +0.000 OA
ATOM      4  H   UNL     1       3.281   4.070  17.023  0.00  0.00    +0.000 HD
ENDROOT
BRANCH   1  10
ATOM      5  C   UNL     1       2.288   4.833  19.679  0.00  0.00    +0.000 A 
ATOM      6  C   UNL     1       1.486   4.633  20.816  0.00  0.00    +0.000 A 
ATOM      7  C   UNL     1       1.308   3.362  21.353  0.00  0.00    +0.000 A 
ATOM      8  C   UNL     1       1.919   2.276  20.744  0.00  0.00    +0.000 A 
ATOM      9  C   UNL     1       2.703   2.460  19.603  0.00  0.00    +0.000 A 
ATOM     10  C   UNL     1       2.918   3.734  19.055  0.00  0.00    +0.000 A 
BRANCH   5  12
ATOM     11  N   UNL     1       2.600   7.271  18.844  0.00  0.00    +0.000 NA
ATOM     12  C   UNL     1       2.466   6.181  19.221  0.00  0.00    +0.000 C 
ENDBRANCH   5  12
ENDBRANCH   1  10
BRANCH   2  13
ATOM     13  C   UNL     1       5.779   4.402  16.623  0.00  0.00    +0.000 A 
ATOM     14  C   UNL     1       5.051   4.102  15.460  0.00  0.00    +0.000 A 
ATOM     15  C   UNL     1       5.627   4.271  14.202  0.00  0.00    +0.000 A 
ATOM     16  C   UNL     1       6.928   4.755  14.098  0.00  0.00    +0.000 A 
ATOM     17  C   UNL     1       7.639   5.104  15.247  0.00  0.00    +0.000 A 
ATOM     18  C   UNL     1       7.066   4.937  16.511  0.00  0.00    +0.000 A 
ENDBRANCH   2  13
TORSDOF 3
ENDMDL
MODEL 6
REMARK VINA RESULT:      -6.6      2.310      5.771
REMARK  Name = 
REMARK  3 active torsions:
REMARK  status: ('A' for Active; 'I' for Inactive)
REMARK    1  A    between atoms: C_2  and  C_3
REMARK    2  A    between atoms: C_8  and  N_9
REMARK    3  A    between atoms: C_10  and  C_12
REMARK                            x       y       z     vdW  Elec       q    Type
REMARK                         _______ _______ _______ _____ _____    ______ ____
ROOT
ATOM      1  N   UNL     1       4.049   4.841  18.739  0.00  0.00    +0.000 N 
ATOM      2  C   UNL     1       4.914   4.986  17.660  0.00  0.00    +0.000 C 
ATOM      3  O   UNL     1       4.830   4.404  16.583  0.00  0.00    +0.000 OA
ATOM      4  H   UNL     1       4.334   5.268  19.613  0.00  0.00    +0.000 HD
ENDROOT
BRANCH   1  10
ATOM      5  C   UNL     1       2.968   2.735  19.441  0.00  0.00    +0.000 A 
ATOM      6  C   UNL     1       1.842   1.894  19.459  0.00  0.00    +0.000 A 
ATOM      7  C   UNL     1       0.662   2.263  18.821  0.00  0.00    +0.000 A 
ATOM      8  C   UNL     1       0.595   3.487  18.173  0.00  0.00    +0.000 A 
ATOM      9  C   UNL     1       1.701   4.339  18.165  0.00  0.00    +0.000 A 
ATOM     10  C   UNL     1       2.910   3.982  18.780  0.00  0.00    +0.000 A 
BRANCH   5  12
ATOM     11  N   UNL     1       5.137   1.881  20.585  0.00  0.00    +0.000 NA
ATOM     12  C   UNL     1       4.164   2.257  20.074  0.00  0.00    +0.000 C 
ENDBRANCH   5  12
ENDBRANCH   1  10
BRANCH   2  13
ATOM     13  C   UNL     1       6.105   5.857  17.873  0.00  0.00    +0.000 A 
ATOM     14  C   UNL     1       7.017   5.470  18.869  0.00  0.00    +0.000 A 
ATOM     15  C   UNL     1       8.113   6.275  19.176  0.00  0.00    +0.000 A 
ATOM     16  C   UNL     1       8.312   7.463  18.480  0.00  0.00    +0.000 A 
ATOM     17  C   UNL     1       7.439   7.829  17.454  0.00  0.00    +0.000 A 
ATOM     18  C   UNL     1       6.339   7.026  17.142  0.00  0.00    +0.000 A 
ENDBRANCH   2  13
TORSDOF 3
ENDMDL
MODEL 7
REMARK VINA RESULT:      -6.5      1.515      6.053
REMARK  Name = 
REMARK  3 active torsions:
REMARK  status: ('A' for Active; 'I' for Inactive)
REMARK    1  A    between atoms: C_2  and  C_3
REMARK    2  A    between atoms: C_8  and  N_9
REMARK    3  A    between atoms: C_10  and  C_12
REMARK                            x       y       z     vdW  Elec       q    Type
REMARK                         _______ _______ _______ _____ _____    ______ ____
ROOT
ATOM      1  N   UNL     1       4.508   3.996  16.396  0.00  0.00    +0.000 N 
ATOM      2  C   UNL     1       5.082   5.068  15.720  0.00  0.00    +0.000 C 
ATOM      3  O   UNL     1       4.954   6.254  16.005  0.00  0.00    +0.000 OA
ATOM      4  H   UNL     1       4.576   3.088  15.952  0.00  0.00    +0.000 HD
ENDROOT
BRANCH   1  10
ATOM      5  C   UNL     1       4.199   4.422  18.808  0.00  0.00    +0.000 A 
ATOM      6  C   UNL     1       3.357   4.499  19.931  0.00  0.00    +0.000 A 
ATOM      7  C   UNL     1       1.995   4.242  19.823  0.00  0.00    +0.000 A 
ATOM      8  C   UNL     1       1.460   3.923  18.585  0.00  0.00    +0.000 A 
ATOM      9  C   UNL     1       2.283   3.862  17.459  0.00  0.00    +0.000 A 
ATOM     10  C   UNL     1       3.664   4.094  17.543  0.00  0.00    +0.000 A 
BRANCH   5  12
ATOM     11  N   UNL     1       6.736   4.839  19.176  0.00  0.00    +0.000 NA
ATOM     12  C   UNL     1       5.602   4.647  19.014  0.00  0.00    +0.000 C 
ENDBRANCH   5  12
ENDBRANCH   1  10
BRANCH   2  13
ATOM     13  C   UNL     1       5.840   4.743  14.479  0.00  0.00    +0.000 A 
ATOM     14  C   UNL     1       5.255   3.832  13.584  0.00  0.00    +0.000 A 
ATOM     15  C   UNL     1       5.939   3.423  12.441  0.00  0.00    +0.000 A 
ATOM     16  C   UNL     1       7.207   3.934  12.177  0.00  0.00    +0.000 A 
ATOM     17  C   UNL     1       7.774   4.878  13.034  0.00  0.00    +0.000 A 
ATOM     18  C   UNL     1       7.092   5.292  14.182  0.00  0.00    +0.000 A 
ENDBRANCH   2  13
TORSDOF 3
ENDMDL
MODEL 8
REMARK VINA RESULT:      -6.5      1.284      6.309
REMARK  Name = 
REMARK  3 active torsions:
REMARK  status: ('A' for Active; 'I' for Inactive)
REMARK    1  A    between atoms: C_2  and  C_3
REMARK    2  A    between atoms: C_8  and  N_9
REMARK    3  A    between atoms: C_10  and  C_12
REMARK                            x       y       z     vdW  Elec       q    Type
REMARK                         _______ _______ _______ _____ _____    ______ ____
ROOT
ATOM      1  N   UNL     1       4.112   3.368  18.251  0.00  0.00    +0.000 N 
ATOM      2  C   UNL     1       4.880   4.514  18.079  0.00  0.00    +0.000 C 
ATOM      3  O   UNL     1       4.921   5.476  18.838  0.00  0.00    +0.000 OA
ATOM      4  H   UNL     1       4.063   2.730  17.466  0.00  0.00    +0.000 HD
ENDROOT
BRANCH   1  10
ATOM      5  C   UNL     1       1.850   3.387  19.242  0.00  0.00    +0.000 A 
ATOM      6  C   UNL     1       1.000   3.147  20.335  0.00  0.00    +0.000 A 
ATOM      7  C   UNL     1       1.499   2.652  21.536  0.00  0.00    +0.000 A 
ATOM      8  C   UNL     1       2.854   2.377  21.646  0.00  0.00    +0.000 A 
ATOM      9  C   UNL     1       3.705   2.594  20.560  0.00  0.00    +0.000 A 
ATOM     10  C   UNL     1       3.232   3.114  19.346  0.00  0.00    +0.000 A 
BRANCH   5  12
ATOM     11  N   UNL     1       0.790   4.416  17.106  0.00  0.00    +0.000 NA
ATOM     12  C   UNL     1       1.266   3.951  18.058  0.00  0.00    +0.000 C 
ENDBRANCH   5  12
ENDBRANCH   1  10
BRANCH   2  13
ATOM     13  C   UNL     1       5.645   4.618  16.804  0.00  0.00    +0.000 A 
ATOM     14  C   UNL     1       4.973   4.281  15.619  0.00  0.00    +0.000 A 
ATOM     15  C   UNL     1       5.646   4.281  14.398  0.00  0.00    +0.000 A 
ATOM     16  C   UNL     1       6.992   4.632  14.354  0.00  0.00    +0.000 A 
ATOM     17  C   UNL     1       7.655   5.018  15.521  0.00  0.00    +0.000 A 
ATOM     18  C   UNL     1       6.983   5.020  16.747  0.00  0.00    +0.000 A 
ENDBRANCH   2  13
TORSDOF 3
ENDMDL
MODEL 9
REMARK VINA RESULT:      -6.5      1.350      6.142
REMARK  Name = 
REMARK  3 active torsions:
REMARK  status: ('A' for Active; 'I' for Inactive)
REMARK    1  A    between atoms: C_2  and  C_3
REMARK    2  A    between atoms: C_8  and  N_9
REMARK    3  A    between atoms: C_10  and  C_12
REMARK                            x       y       z     vdW  Elec       q    Type
REMARK                         _______ _______ _______ _____ _____    ______ ____
ROOT
ATOM      1  N   UNL     1       3.815   3.644  18.153  0.00  0.00    +0.000 N 
ATOM      2  C   UNL     1       4.907   4.500  18.057  0.00  0.00    +0.000 C 
ATOM      3  O   UNL     1       5.281   5.293  18.914  0.00  0.00    +0.000 OA
ATOM      4  H   UNL     1       3.538   3.161  17.307  0.00  0.00    +0.000 HD
ENDROOT
BRANCH   1  10
ATOM      5  C   UNL     1       3.239   2.690  20.357  0.00  0.00    +0.000 A 
ATOM      6  C   UNL     1       2.354   2.591  21.444  0.00  0.00    +0.000 A 
ATOM      7  C   UNL     1       1.165   3.313  21.469  0.00  0.00    +0.000 A 
ATOM      8  C   UNL     1       0.860   4.155  20.411  0.00  0.00    +0.000 A 
ATOM      9  C   UNL     1       1.741   4.277  19.334  0.00  0.00    +0.000 A 
ATOM     10  C   UNL     1       2.935   3.543  19.273  0.00  0.00    +0.000 A 
BRANCH   5  12
ATOM     11  N   UNL     1       5.374   1.213  20.393  0.00  0.00    +0.000 NA
ATOM     12  C   UNL     1       4.417   1.871  20.382  0.00  0.00    +0.000 C 
ENDBRANCH   5  12
ENDBRANCH   1  10
BRANCH   2  13
ATOM     13  C   UNL     1       5.625   4.518  16.751  0.00  0.00    +0.000 A 
ATOM     14  C   UNL     1       6.812   5.266  16.678  0.00  0.00    +0.000 A 
ATOM     15  C   UNL     1       7.496   5.392  15.470  0.00  0.00    +0.000 A 
ATOM     16  C   UNL     1       7.007   4.757  14.331  0.00  0.00    +0.000 A 
ATOM     17  C   UNL     1       5.857   3.970  14.408  0.00  0.00    +0.000 A 
ATOM     18  C   UNL     1       5.167   3.840  15.617  0.00  0.00    +0.000 A 
ENDBRANCH   2  13
TORSDOF 3
ENDMDL
