MODEL 1
REMARK VINA RESULT:      -7.9      0.000      0.000
REMARK  Name = 
REMARK  8 active torsions:
REMARK  status: ('A' for Active; 'I' for Inactive)
REMARK    1  A    between atoms: C_1  and  O_2
REMARK    2  A    between atoms: O_2  and  C_3
REMARK    3  A    between atoms: C_6  and  C_7
REMARK    4  A    between atoms: C_9  and  C_10
REMARK    5  A    between atoms: C_10  and  C_11
REMARK    6  A    between atoms: C_10  and  N_12
REMARK    7  A    between atoms: N_15  and  C_16
REMARK    8  A    between atoms: C_24  and  O_25
REMARK                            x       y       z     vdW  Elec       q    Type
REMARK                         _______ _______ _______ _____ _____    ______ ____
ROOT
ATOM      1  N   UNL     1       3.175   6.076  19.045  0.00  0.00    +0.000 N 
ATOM      2  C   UNL     1       2.288   6.310  20.046  0.00  0.00    +0.000 C 
ATOM      3  O   UNL     1       1.823   5.420  20.767  0.00  0.00    +0.000 OA
ATOM      4  N   UNL     1       2.030   7.631  20.256  0.00  0.00    +0.000 N 
ATOM      5  H   UNL     1       3.342   6.806  18.362  0.00  0.00    +0.000 HD
ATOM      6  H   UNL     1       2.092   8.242  19.450  0.00  0.00    +0.000 HD
ENDROOT
BRANCH   4   7
ATOM      7  C   UNL     1       1.194   8.056  21.389  0.00  0.00    +0.000 C 
ATOM      8  C   UNL     1      -0.286   8.241  20.982  0.00  0.00    +0.000 C 
ATOM      9  C   UNL     1      -0.253   9.661  20.505  0.00  0.00    +0.000 A 
ATOM     10  C   UNL     1      -1.099  10.261  19.593  0.00  0.00    +0.000 A 
ATOM     11  C   UNL     1      -0.838  11.582  19.234  0.00  0.00    +0.000 A 
ATOM     12  C   UNL     1       0.238  12.282  19.809  0.00  0.00    +0.000 A 
ATOM     13  C   UNL     1       1.073  11.672  20.749  0.00  0.00    +0.000 A 
ATOM     14  C   UNL     1       0.825  10.352  21.077  0.00  0.00    +0.000 A 
ATOM     15  C   UNL     1       1.628   9.438  21.957  0.00  0.00    +0.000 C 
BRANCH  15  16
ATOM     16  O   UNL     1       1.246   9.571  23.323  0.00  0.00    +0.000 OA
ATOM     17  H   UNL     1       1.546  10.443  23.633  0.00  0.00    +0.000 HD
ENDBRANCH  15  16
ENDBRANCH   4   7
BRANCH   1  18
ATOM     18  C   UNL     1       3.636   4.724  18.725  0.00  0.00    +0.000 C 
ATOM     19  C   UNL     1       2.443   3.914  18.200  0.00  0.00    +0.000 C 
BRANCH  18  26
ATOM     20  C   UNL     1       6.185   4.937  18.284  0.00  0.00    +0.000 A 
ATOM     21  C   UNL     1       7.284   4.831  17.414  0.00  0.00    +0.000 A 
ATOM     22  C   UNL     1       7.122   4.557  16.074  0.00  0.00    +0.000 A 
ATOM     23  C   UNL     1       5.842   4.370  15.568  0.00  0.00    +0.000 A 
ATOM     24  C   UNL     1       5.648   4.025  14.122  0.00  0.00    +0.000 C 
ATOM     25  C   UNL     1       4.730   4.476  16.430  0.00  0.00    +0.000 A 
ATOM     26  C   UNL     1       4.872   4.740  17.814  0.00  0.00    +0.000 A 
BRANCH  20  28
ATOM     27  C   UNL     1       7.732   5.612  19.870  0.00  0.00    +0.000 C 
ATOM     28  O   UNL     1       6.406   5.153  19.622  0.00  0.00    +0.000 OA
ENDBRANCH  20  28
ENDBRANCH  18  26
ENDBRANCH   1  18
TORSDOF 5
ENDMDL
MODEL 2
REMARK VINA RESULT:      -7.8      2.783      7.786
REMARK  Name = 
REMARK  8 active torsions:
REMARK  status: ('A' for Active; 'I' for Inactive)
REMARK    1  A    between atoms: C_1  and  O_2
REMARK    2  A    between atoms: O_2  and  C_3
REMARK    3  A    between atoms: C_6  and  C_7
REMARK    4  A    between atoms: C_9  and  C_10
REMARK    5  A    between atoms: C_10  and  C_11
REMARK    6  A    between atoms: C_10  and  N_12
REMARK    7  A    between atoms: N_15  and  C_16
REMARK    8  A    between atoms: C_24  and  O_25
REMARK                            x       y       z     vdW  Elec       q    Type
REMARK                         _______ _______ _______ _____ _____    ______ ____
ROOT
ATOM      1  N   UNL     1       1.143   9.385  19.040  0.00  0.00    +0.000 N 
ATOM      2  C   UNL     1       1.949   8.502  18.396  0.00  0.00    +0.000 C 
ATOM      3  O   UNL     1       2.400   8.692  17.261  0.00  0.00    +0.000 OA
ATOM      4  N   UNL     1       2.303   7.427  19.155  0.00  0.00    +0.000 N 
ATOM      5  H   UNL     1       0.638   9.074  19.862  0.00  0.00    +0.000 HD
ATOM      6  H   UNL     1       1.638   7.123  19.855  0.00  0.00    +0.000 HD
ENDROOT
BRANCH   4   7
ATOM      7  C   UNL     1       3.277   6.448  18.648  0.00  0.00    +0.000 C 
ATOM      8  C   UNL     1       2.630   5.430  17.681  0.00  0.00    +0.000 C 
ATOM      9  C   UNL     1       2.145   4.405  18.662  0.00  0.00    +0.000 A 
ATOM     10  C   UNL     1       1.099   3.519  18.501  0.00  0.00    +0.000 A 
ATOM     11  C   UNL     1       0.770   2.699  19.580  0.00  0.00    +0.000 A 
ATOM     12  C   UNL     1       1.504   2.761  20.778  0.00  0.00    +0.000 A 
ATOM     13  C   UNL     1       2.577   3.645  20.919  0.00  0.00    +0.000 A 
ATOM     14  C   UNL     1       2.878   4.475  19.855  0.00  0.00    +0.000 A 
ATOM     15  C   UNL     1       3.891   5.583  19.787  0.00  0.00    +0.000 C 
BRANCH  15  16
ATOM     16  O   UNL     1       5.173   5.086  19.417  0.00  0.00    +0.000 OA
ATOM     17  H   UNL     1       5.268   4.195  19.796  0.00  0.00    +0.000 HD
ENDBRANCH  15  16
ENDBRANCH   4   7
BRANCH   1  18
ATOM     18  C   UNL     1       0.722  10.640  18.416  0.00  0.00    +0.000 C 
ATOM     19  C   UNL     1      -0.812  10.680  18.386  0.00  0.00    +0.000 C 
BRANCH  18  26
ATOM     20  C   UNL     1       1.361  12.132  20.441  0.00  0.00    +0.000 A 
ATOM     21  C   UNL     1       2.093  13.203  20.983  0.00  0.00    +0.000 A 
ATOM     22  C   UNL     1       2.850  14.036  20.189  0.00  0.00    +0.000 A 
ATOM     23  C   UNL     1       2.902  13.809  18.820  0.00  0.00    +0.000 A 
ATOM     24  C   UNL     1       3.757  14.676  17.946  0.00  0.00    +0.000 C 
ATOM     25  C   UNL     1       2.170  12.739  18.263  0.00  0.00    +0.000 A 
ATOM     26  C   UNL     1       1.399  11.858  19.060  0.00  0.00    +0.000 A 
BRANCH  20  28
ATOM     27  C   UNL     1      -0.346  11.991  22.001  0.00  0.00    +0.000 C 
ATOM     28  O   UNL     1       0.670  11.296  21.285  0.00  0.00    +0.000 OA
ENDBRANCH  20  28
ENDBRANCH  18  26
ENDBRANCH   1  18
TORSDOF 5
ENDMDL
MODEL 3
REMARK VINA RESULT:      -7.7      2.140      8.262
REMARK  Name = 
REMARK  8 active torsions:
REMARK  status: ('A' for Active; 'I' for Inactive)
REMARK    1  A    between atoms: C_1  and  O_2
REMARK    2  A    between atoms: O_2  and  C_3
REMARK    3  A    between atoms: C_6  and  C_7
REMARK    4  A    between atoms: C_9  and  C_10
REMARK    5  A    between atoms: C_10  and  C_11
REMARK    6  A    between atoms: C_10  and  N_12
REMARK    7  A    between atoms: N_15  and  C_16
REMARK    8  A    between atoms: C_24  and  O_25
REMARK                            x       y       z     vdW  Elec       q    Type
REMARK                         _______ _______ _______ _____ _____    ______ ____
ROOT
ATOM      1  N   UNL     1       1.831   9.203  18.151  0.00  0.00    +0.000 N 
ATOM      2  C   UNL     1       2.053   8.081  18.883  0.00  0.00    +0.000 C 
ATOM      3  O   UNL     1       1.855   8.011  20.101  0.00  0.00    +0.000 OA
ATOM      4  N   UNL     1       2.419   7.001  18.138  0.00  0.00    +0.000 N 
ATOM      5  H   UNL     1       2.217   9.258  17.216  0.00  0.00    +0.000 HD
ATOM      6  H   UNL     1       2.934   7.187  17.285  0.00  0.00    +0.000 HD
ENDROOT
BRANCH   4   7
ATOM      7  C   UNL     1       2.567   5.679  18.765  0.00  0.00    +0.000 C 
ATOM      8  C   UNL     1       3.889   5.556  19.558  0.00  0.00    +0.000 C 
ATOM      9  C   UNL     1       4.813   5.113  18.464  0.00  0.00    +0.000 A 
ATOM     10  C   UNL     1       6.180   5.289  18.398  0.00  0.00    +0.000 A 
ATOM     11  C   UNL     1       6.836   4.863  17.244  0.00  0.00    +0.000 A 
ATOM     12  C   UNL     1       6.123   4.250  16.199  0.00  0.00    +0.000 A 
ATOM     13  C   UNL     1       4.741   4.056  16.287  0.00  0.00    +0.000 A 
ATOM     14  C   UNL     1       4.095   4.508  17.422  0.00  0.00    +0.000 A 
ATOM     15  C   UNL     1       2.621   4.530  17.716  0.00  0.00    +0.000 C 
BRANCH  15  16
ATOM     16  O   UNL     1       2.192   3.298  18.286  0.00  0.00    +0.000 OA
ATOM     17  H   UNL     1       1.704   3.500  19.103  0.00  0.00    +0.000 HD
ENDBRANCH  15  16
ENDBRANCH   4   7
BRANCH   1  18
ATOM     18  C   UNL     1       1.355  10.442  18.767  0.00  0.00    +0.000 C 
ATOM     19  C   UNL     1       2.211  11.605  18.248  0.00  0.00    +0.000 C 
BRANCH  18  26
ATOM     20  C   UNL     1      -0.954  11.398  19.470  0.00  0.00    +0.000 A 
ATOM     21  C   UNL     1      -2.318  11.609  19.203  0.00  0.00    +0.000 A 
ATOM     22  C   UNL     1      -2.935  11.047  18.107  0.00  0.00    +0.000 A 
ATOM     23  C   UNL     1      -2.193  10.259  17.237  0.00  0.00    +0.000 A 
ATOM     24  C   UNL     1      -2.836   9.677  16.014  0.00  0.00    +0.000 C 
ATOM     25  C   UNL     1      -0.823  10.038  17.495  0.00  0.00    +0.000 A 
ATOM     26  C   UNL     1      -0.162  10.619  18.604  0.00  0.00    +0.000 A 
BRANCH  20  28
ATOM     27  C   UNL     1      -1.138  11.857  21.732  0.00  0.00    +0.000 C 
ATOM     28  O   UNL     1      -0.374  12.030  20.543  0.00  0.00    +0.000 OA
ENDBRANCH  20  28
ENDBRANCH  18  26
ENDBRANCH   1  18
TORSDOF 5
ENDMDL
MODEL 4
REMARK VINA RESULT:      -7.5      2.951      8.230
REMARK  Name = 
REMARK  8 active torsions:
REMARK  status: ('A' for Active; 'I' for Inactive)
REMARK    1  A    between atoms: C_1  and  O_2
REMARK    2  A    between atoms: O_2  and  C_3
REMARK    3  A    between atoms: C_6  and  C_7
REMARK    4  A    between atoms: C_9  and  C_10
REMARK    5  A    between atoms: C_10  and  C_11
REMARK    6  A    between atoms: C_10  and  N_12
REMARK    7  A    between atoms: N_15  and  C_16
REMARK    8  A    between atoms: C_24  and  O_25
REMARK                            x       y       z     vdW  Elec       q    Type
REMARK                         _______ _______ _______ _____ _____    ______ ____
ROOT
ATOM      1  N   UNL     1       1.093   9.303  19.315  0.00  0.00    +0.000 N 
ATOM      2  C   UNL     1       1.878   8.462  18.594  0.00  0.00    +0.000 C 
ATOM      3  O   UNL     1       2.266   8.707  17.447  0.00  0.00    +0.000 OA
ATOM      4  N   UNL     1       2.288   7.363  19.288  0.00  0.00    +0.000 N 
ATOM      5  H   UNL     1       0.636   8.950  20.148  0.00  0.00    +0.000 HD
ATOM      6  H   UNL     1       1.665   7.019  20.009  0.00  0.00    +0.000 HD
ENDROOT
BRANCH   4   7
ATOM      7  C   UNL     1       3.250   6.423  18.692  0.00  0.00    +0.000 C 
ATOM      8  C   UNL     1       2.572   5.444  17.707  0.00  0.00    +0.000 C 
ATOM      9  C   UNL     1       2.145   4.366  18.657  0.00  0.00    +0.000 A 
ATOM     10  C   UNL     1       1.103   3.474  18.501  0.00  0.00    +0.000 A 
ATOM     11  C   UNL     1       0.833   2.599  19.553  0.00  0.00    +0.000 A 
ATOM     12  C   UNL     1       1.620   2.614  20.718  0.00  0.00    +0.000 A 
ATOM     13  C   UNL     1       2.687   3.505  20.854  0.00  0.00    +0.000 A 
ATOM     14  C   UNL     1       2.929   4.390  19.819  0.00  0.00    +0.000 A 
ATOM     15  C   UNL     1       3.925   5.514  19.759  0.00  0.00    +0.000 C 
BRANCH  15  16
ATOM     16  O   UNL     1       5.195   5.053  19.309  0.00  0.00    +0.000 OA
ATOM     17  H   UNL     1       5.598   4.539  20.029  0.00  0.00    +0.000 HD
ENDBRANCH  15  16
ENDBRANCH   4   7
BRANCH   1  18
ATOM     18  C   UNL     1       0.619  10.575  18.766  0.00  0.00    +0.000 C 
ATOM     19  C   UNL     1      -0.765  10.352  18.142  0.00  0.00    +0.000 C 
BRANCH  18  26
ATOM     20  C   UNL     1       1.557  12.822  19.663  0.00  0.00    +0.000 A 
ATOM     21  C   UNL     1       1.506  13.883  20.585  0.00  0.00    +0.000 A 
ATOM     22  C   UNL     1       0.642  13.867  21.658  0.00  0.00    +0.000 A 
ATOM     23  C   UNL     1      -0.207  12.783  21.831  0.00  0.00    +0.000 A 
ATOM     24  C   UNL     1      -1.187  12.769  22.967  0.00  0.00    +0.000 C 
ATOM     25  C   UNL     1      -0.165  11.711  20.915  0.00  0.00    +0.000 A 
ATOM     26  C   UNL     1       0.701  11.711  19.795  0.00  0.00    +0.000 A 
BRANCH  20  28
ATOM     27  C   UNL     1       3.259  14.043  18.676  0.00  0.00    +0.000 C 
ATOM     28  O   UNL     1       2.394  12.916  18.578  0.00  0.00    +0.000 OA
ENDBRANCH  20  28
ENDBRANCH  18  26
ENDBRANCH   1  18
TORSDOF 5
ENDMDL
MODEL 5
REMARK VINA RESULT:      -7.5      2.673      8.211
REMARK  Name = 
REMARK  8 active torsions:
REMARK  status: ('A' for Active; 'I' for Inactive)
REMARK    1  A    between atoms: C_1  and  O_2
REMARK    2  A    between atoms: O_2  and  C_3
REMARK    3  A    between atoms: C_6  and  C_7
REMARK    4  A    between atoms: C_9  and  C_10
REMARK    5  A    between atoms: C_10  and  C_11
REMARK    6  A    between atoms: C_10  and  N_12
REMARK    7  A    between atoms: N_15  and  C_16
REMARK    8  A    between atoms: C_24  and  O_25
REMARK                            x       y       z     vdW  Elec       q    Type
REMARK                         _______ _______ _______ _____ _____    ______ ____
ROOT
ATOM      1  N   UNL     1       1.041   9.285  19.304  0.00  0.00    +0.000 N 
ATOM      2  C   UNL     1       1.834   8.439  18.596  0.00  0.00    +0.000 C 
ATOM      3  O   UNL     1       2.185   8.650  17.430  0.00  0.00    +0.000 OA
ATOM      4  N   UNL     1       2.295   7.382  19.321  0.00  0.00    +0.000 N 
ATOM      5  H   UNL     1       0.617   8.951  20.162  0.00  0.00    +0.000 HD
ATOM      6  H   UNL     1       1.702   7.048  20.071  0.00  0.00    +0.000 HD
ENDROOT
BRANCH   4   7
ATOM      7  C   UNL     1       3.271   6.449  18.737  0.00  0.00    +0.000 C 
ATOM      8  C   UNL     1       2.623   5.505  17.697  0.00  0.00    +0.000 C 
ATOM      9  C   UNL     1       2.147   4.406  18.598  0.00  0.00    +0.000 A 
ATOM     10  C   UNL     1       1.104   3.530  18.375  0.00  0.00    +0.000 A 
ATOM     11  C   UNL     1       0.783   2.629  19.390  0.00  0.00    +0.000 A 
ATOM     12  C   UNL     1       1.523   2.602  20.585  0.00  0.00    +0.000 A 
ATOM     13  C   UNL     1       2.593   3.477  20.789  0.00  0.00    +0.000 A 
ATOM     14  C   UNL     1       2.885   4.388  19.790  0.00  0.00    +0.000 A 
ATOM     15  C   UNL     1       3.894   5.502  19.803  0.00  0.00    +0.000 C 
BRANCH  15  16
ATOM     16  O   UNL     1       5.176   5.040  19.390  0.00  0.00    +0.000 OA
ATOM     17  H   UNL     1       5.824   5.736  19.594  0.00  0.00    +0.000 HD
ENDBRANCH  15  16
ENDBRANCH   4   7
BRANCH   1  18
ATOM     18  C   UNL     1       0.514  10.519  18.719  0.00  0.00    +0.000 C 
ATOM     19  C   UNL     1      -0.739  10.175  17.902  0.00  0.00    +0.000 C 
BRANCH  18  26
ATOM     20  C   UNL     1      -0.206  11.394  21.053  0.00  0.00    +0.000 A 
ATOM     21  C   UNL     1      -0.246  12.423  22.010  0.00  0.00    +0.000 A 
ATOM     22  C   UNL     1       0.211  13.692  21.726  0.00  0.00    +0.000 A 
ATOM     23  C   UNL     1       0.733  13.961  20.468  0.00  0.00    +0.000 A 
ATOM     24  C   UNL     1       1.278  15.322  20.155  0.00  0.00    +0.000 C 
ATOM     25  C   UNL     1       0.778  12.937  19.498  0.00  0.00    +0.000 A 
ATOM     26  C   UNL     1       0.331  11.621  19.771  0.00  0.00    +0.000 A 
BRANCH  20  28
ATOM     27  C   UNL     1      -0.394   9.873  22.790  0.00  0.00    +0.000 C 
ATOM     28  O   UNL     1      -0.619  10.132  21.408  0.00  0.00    +0.000 OA
ENDBRANCH  20  28
ENDBRANCH  18  26
ENDBRANCH   1  18
TORSDOF 5
ENDMDL
MODEL 6
REMARK VINA RESULT:      -7.4      2.659      8.465
REMARK  Name = 
REMARK  8 active torsions:
REMARK  status: ('A' for Active; 'I' for Inactive)
REMARK    1  A    between atoms: C_1  and  O_2
REMARK    2  A    between atoms: O_2  and  C_3
REMARK    3  A    between atoms: C_6  and  C_7
REMARK    4  A    between atoms: C_9  and  C_10
REMARK    5  A    between atoms: C_10  and  C_11
REMARK    6  A    between atoms: C_10  and  N_12
REMARK    7  A    between atoms: N_15  and  C_16
REMARK    8  A    between atoms: C_24  and  O_25
REMARK                            x       y       z     vdW  Elec       q    Type
REMARK                         _______ _______ _______ _____ _____    ______ ____
ROOT
ATOM      1  N   UNL     1       0.400   9.630  18.520  0.00  0.00    +0.000 N 
ATOM      2  C   UNL     1       1.230   9.012  19.399  0.00  0.00    +0.000 C 
ATOM      3  O   UNL     1       1.365   9.367  20.575  0.00  0.00    +0.000 OA
ATOM      4  N   UNL     1       1.829   7.895  18.897  0.00  0.00    +0.000 N 
ATOM      5  H   UNL     1       0.501   9.431  17.532  0.00  0.00    +0.000 HD
ATOM      6  H   UNL     1       2.008   7.882  17.900  0.00  0.00    +0.000 HD
ENDROOT
BRANCH   4   7
ATOM      7  C   UNL     1       2.653   7.039  19.765  0.00  0.00    +0.000 C 
ATOM      8  C   UNL     1       3.846   6.417  19.003  0.00  0.00    +0.000 C 
ATOM      9  C   UNL     1       3.193   5.187  18.450  0.00  0.00    +0.000 A 
ATOM     10  C   UNL     1       3.557   4.478  17.323  0.00  0.00    +0.000 A 
ATOM     11  C   UNL     1       2.757   3.401  16.945  0.00  0.00    +0.000 A 
ATOM     12  C   UNL     1       1.635   3.038  17.710  0.00  0.00    +0.000 A 
ATOM     13  C   UNL     1       1.290   3.748  18.863  0.00  0.00    +0.000 A 
ATOM     14  C   UNL     1       2.071   4.834  19.213  0.00  0.00    +0.000 A 
ATOM     15  C   UNL     1       1.857   5.825  20.323  0.00  0.00    +0.000 C 
BRANCH  15  16
ATOM     16  O   UNL     1       2.423   5.360  21.544  0.00  0.00    +0.000 OA
ATOM     17  H   UNL     1       2.792   6.128  22.013  0.00  0.00    +0.000 HD
ENDBRANCH  15  16
ENDBRANCH   4   7
BRANCH   1  18
ATOM     18  C   UNL     1      -0.393  10.800  18.903  0.00  0.00    +0.000 C 
ATOM     19  C   UNL     1       0.484  12.052  18.757  0.00  0.00    +0.000 C 
BRANCH  18  26
ATOM     20  C   UNL     1      -2.884  11.490  18.672  0.00  0.00    +0.000 A 
ATOM     21  C   UNL     1      -4.052  11.594  17.897  0.00  0.00    +0.000 A 
ATOM     22  C   UNL     1      -4.131  11.059  16.631  0.00  0.00    +0.000 A 
ATOM     23  C   UNL     1      -3.027  10.407  16.098  0.00  0.00    +0.000 A 
ATOM     24  C   UNL     1      -3.077   9.858  14.704  0.00  0.00    +0.000 C 
ATOM     25  C   UNL     1      -1.848  10.293  16.866  0.00  0.00    +0.000 A 
ATOM     26  C   UNL     1      -1.737  10.850  18.163  0.00  0.00    +0.000 A 
BRANCH  20  28
ATOM     27  C   UNL     1      -4.062  12.756  20.211  0.00  0.00    +0.000 C 
ATOM     28  O   UNL     1      -2.840  12.094  19.905  0.00  0.00    +0.000 OA
ENDBRANCH  20  28
ENDBRANCH  18  26
ENDBRANCH   1  18
TORSDOF 5
ENDMDL
MODEL 7
REMARK VINA RESULT:      -7.3      2.727      8.513
REMARK  Name = 
REMARK  8 active torsions:
REMARK  status: ('A' for Active; 'I' for Inactive)
REMARK    1  A    between atoms: C_1  and  O_2
REMARK    2  A    between atoms: O_2  and  C_3
REMARK    3  A    between atoms: C_6  and  C_7
REMARK    4  A    between atoms: C_9  and  C_10
REMARK    5  A    between atoms: C_10  and  C_11
REMARK    6  A    between atoms: C_10  and  N_12
REMARK    7  A    between atoms: N_15  and  C_16
REMARK    8  A    between atoms: C_24  and  O_25
REMARK                            x       y       z     vdW  Elec       q    Type
REMARK                         _______ _______ _______ _____ _____    ______ ____
ROOT
ATOM      1  N   UNL     1       0.639   9.295  19.832  0.00  0.00    +0.000 N 
ATOM      2  C   UNL     1       1.583   8.652  19.096  0.00  0.00    +0.000 C 
ATOM      3  O   UNL     1       2.140   9.154  18.114  0.00  0.00    +0.000 OA
ATOM      4  N   UNL     1       1.938   7.437  19.599  0.00  0.00    +0.000 N 
ATOM      5  H   UNL     1       0.072   8.755  20.476  0.00  0.00    +0.000 HD
ATOM      6  H   UNL     1       1.227   6.927  20.109  0.00  0.00    +0.000 HD
ENDROOT
BRANCH   4   7
ATOM      7  C   UNL     1       3.042   6.676  18.994  0.00  0.00    +0.000 C 
ATOM      8  C   UNL     1       2.568   5.816  17.800  0.00  0.00    +0.000 C 
ATOM      9  C   UNL     1       2.139   4.574  18.522  0.00  0.00    +0.000 A 
ATOM     10  C   UNL     1       1.206   3.644  18.110  0.00  0.00    +0.000 A 
ATOM     11  C   UNL     1       0.903   2.598  18.980  0.00  0.00    +0.000 A 
ATOM     12  C   UNL     1       1.552   2.487  20.222  0.00  0.00    +0.000 A 
ATOM     13  C   UNL     1       2.512   3.422  20.618  0.00  0.00    +0.000 A 
ATOM     14  C   UNL     1       2.785   4.473  19.762  0.00  0.00    +0.000 A 
ATOM     15  C   UNL     1       3.675   5.662  19.991  0.00  0.00    +0.000 C 
BRANCH  15  16
ATOM     16  O   UNL     1       5.023   5.372  19.636  0.00  0.00    +0.000 OA
ATOM     17  H   UNL     1       5.528   6.202  19.677  0.00  0.00    +0.000 HD
ENDBRANCH  15  16
ENDBRANCH   4   7
BRANCH   1  18
ATOM     18  C   UNL     1       0.186  10.645  19.493  0.00  0.00    +0.000 C 
ATOM     19  C   UNL     1      -0.437  10.614  18.091  0.00  0.00    +0.000 C 
BRANCH  18  26
ATOM     20  C   UNL     1      -0.437  11.109  21.969  0.00  0.00    +0.000 A 
ATOM     21  C   UNL     1      -1.225  11.775  22.923  0.00  0.00    +0.000 A 
ATOM     22  C   UNL     1      -2.293  12.563  22.555  0.00  0.00    +0.000 A 
ATOM     23  C   UNL     1      -2.596  12.713  21.208  0.00  0.00    +0.000 A 
ATOM     24  C   UNL     1      -3.726  13.603  20.785  0.00  0.00    +0.000 C 
ATOM     25  C   UNL     1      -1.814  12.048  20.240  0.00  0.00    +0.000 A 
ATOM     26  C   UNL     1      -0.700  11.247  20.592  0.00  0.00    +0.000 A 
BRANCH  20  28
ATOM     27  C   UNL     1       0.287   9.372  23.319  0.00  0.00    +0.000 C 
ATOM     28  O   UNL     1       0.653  10.384  22.387  0.00  0.00    +0.000 OA
ENDBRANCH  20  28
ENDBRANCH  18  26
ENDBRANCH   1  18
TORSDOF 5
ENDMDL
MODEL 8
REMARK VINA RESULT:      -7.1      2.303      8.404
REMARK  Name = 
REMARK  8 active torsions:
REMARK  status: ('A' for Active; 'I' for Inactive)
REMARK    1  A    between atoms: C_1  and  O_2
REMARK    2  A    between atoms: O_2  and  C_3
REMARK    3  A    between atoms: C_6  and  C_7
REMARK    4  A    between atoms: C_9  and  C_10
REMARK    5  A    between atoms: C_10  and  C_11
REMARK    6  A    between atoms: C_10  and  N_12
REMARK    7  A    between atoms: N_15  and  C_16
REMARK    8  A    between atoms: C_24  and  O_25
REMARK                            x       y       z     vdW  Elec       q    Type
REMARK                         _______ _______ _______ _____ _____    ______ ____
ROOT
ATOM      1  N   UNL     1       1.793   8.422  19.027  0.00  0.00    +0.000 N 
ATOM      2  C   UNL     1       2.782   7.853  18.291  0.00  0.00    +0.000 C 
ATOM      3  O   UNL     1       3.246   8.361  17.263  0.00  0.00    +0.000 OA
ATOM      4  N   UNL     1       3.294   6.717  18.842  0.00  0.00    +0.000 N 
ATOM      5  H   UNL     1       1.315   7.857  19.720  0.00  0.00    +0.000 HD
ATOM      6  H   UNL     1       2.664   6.158  19.404  0.00  0.00    +0.000 HD
ENDROOT
BRANCH   4   7
ATOM      7  C   UNL     1       4.460   6.056  18.235  0.00  0.00    +0.000 C 
ATOM      8  C   UNL     1       4.077   5.240  16.978  0.00  0.00    +0.000 C 
ATOM      9  C   UNL     1       3.699   3.937  17.615  0.00  0.00    +0.000 A 
ATOM     10  C   UNL     1       2.837   2.980  17.119  0.00  0.00    +0.000 A 
ATOM     11  C   UNL     1       2.568   1.870  17.918  0.00  0.00    +0.000 A 
ATOM     12  C   UNL     1       3.182   1.725  19.174  0.00  0.00    +0.000 A 
ATOM     13  C   UNL     1       4.072   2.689  19.656  0.00  0.00    +0.000 A 
ATOM     14  C   UNL     1       4.310   3.802  18.870  0.00  0.00    +0.000 A 
ATOM     15  C   UNL     1       5.120   5.025  19.196  0.00  0.00    +0.000 C 
BRANCH  15  16
ATOM     16  O   UNL     1       6.494   4.833  18.874  0.00  0.00    +0.000 OA
ATOM     17  H   UNL     1       6.902   5.710  18.772  0.00  0.00    +0.000 HD
ENDBRANCH  15  16
ENDBRANCH   4   7
BRANCH   1  18
ATOM     18  C   UNL     1       1.174   9.690  18.636  0.00  0.00    +0.000 C 
ATOM     19  C   UNL     1       0.103   9.404  17.576  0.00  0.00    +0.000 C 
BRANCH  18  26
ATOM     20  C   UNL     1       0.493  11.888  19.836  0.00  0.00    +0.000 A 
ATOM     21  C   UNL     1      -0.050  12.550  20.951  0.00  0.00    +0.000 A 
ATOM     22  C   UNL     1      -0.381  11.872  22.104  0.00  0.00    +0.000 A 
ATOM     23  C   UNL     1      -0.182  10.499  22.166  0.00  0.00    +0.000 A 
ATOM     24  C   UNL     1      -0.578   9.737  23.395  0.00  0.00    +0.000 C 
ATOM     25  C   UNL     1       0.365   9.823  21.055  0.00  0.00    +0.000 A 
ATOM     26  C   UNL     1       0.696  10.494  19.853  0.00  0.00    +0.000 A 
BRANCH  20  28
ATOM     27  C   UNL     1      -0.401  13.316  18.247  0.00  0.00    +0.000 C 
ATOM     28  O   UNL     1       0.749  12.602  18.691  0.00  0.00    +0.000 OA
ENDBRANCH  20  28
ENDBRANCH  18  26
ENDBRANCH   1  18
TORSDOF 5
ENDMDL
MODEL 9
REMARK VINA RESULT:      -7.1      2.897      8.195
REMARK  Name = 
REMARK  8 active torsions:
REMARK  status: ('A' for Active; 'I' for Inactive)
REMARK    1  A    between atoms: C_1  and  O_2
REMARK    2  A    between atoms: O_2  and  C_3
REMARK    3  A    between atoms: C_6  and  C_7
REMARK    4  A    between atoms: C_9  and  C_10
REMARK    5  A    between atoms: C_10  and  C_11
REMARK    6  A    between atoms: C_10  and  N_12
REMARK    7  A    between atoms: N_15  and  C_16
REMARK    8  A    between atoms: C_24  and  O_25
REMARK                            x       y       z     vdW  Elec       q    Type
REMARK                         _______ _______ _______ _____ _____    ______ ____
ROOT
ATOM      1  N   UNL     1       1.090   9.353  19.665  0.00  0.00    +0.000 N 
ATOM      2  C   UNL     1       1.875   8.574  18.876  0.00  0.00    +0.000 C 
ATOM      3  O   UNL     1       2.362   8.960  17.808  0.00  0.00    +0.000 OA
ATOM      4  N   UNL     1       2.164   7.358  19.417  0.00  0.00    +0.000 N 
ATOM      5  H   UNL     1       0.551   8.912  20.402  0.00  0.00    +0.000 HD
ATOM      6  H   UNL     1       1.468   6.955  20.034  0.00  0.00    +0.000 HD
ENDROOT
BRANCH   4   7
ATOM      7  C   UNL     1       3.109   6.451  18.747  0.00  0.00    +0.000 C 
ATOM      8  C   UNL     1       2.400   5.504  17.752  0.00  0.00    +0.000 C 
ATOM      9  C   UNL     1       2.020   4.387  18.675  0.00  0.00    +0.000 A 
ATOM     10  C   UNL     1       0.981   3.491  18.526  0.00  0.00    +0.000 A 
ATOM     11  C   UNL     1       0.760   2.573  19.552  0.00  0.00    +0.000 A 
ATOM     12  C   UNL     1       1.592   2.551  20.685  0.00  0.00    +0.000 A 
ATOM     13  C   UNL     1       2.657   3.447  20.814  0.00  0.00    +0.000 A 
ATOM     14  C   UNL     1       2.850   4.373  19.805  0.00  0.00    +0.000 A 
ATOM     15  C   UNL     1       3.833   5.508  19.751  0.00  0.00    +0.000 C 
BRANCH  15  16
ATOM     16  O   UNL     1       5.088   5.077  19.233  0.00  0.00    +0.000 OA
ATOM     17  H   UNL     1       5.203   4.141  19.470  0.00  0.00    +0.000 HD
ENDBRANCH  15  16
ENDBRANCH   4   7
BRANCH   1  18
ATOM     18  C   UNL     1       0.738  10.723  19.289  0.00  0.00    +0.000 C 
ATOM     19  C   UNL     1       1.798  11.249  18.312  0.00  0.00    +0.000 C 
BRANCH  18  26
ATOM     20  C   UNL     1      -1.696  11.612  19.439  0.00  0.00    +0.000 A 
ATOM     21  C   UNL     1      -2.978  11.754  18.882  0.00  0.00    +0.000 A 
ATOM     22  C   UNL     1      -3.332  11.118  17.712  0.00  0.00    +0.000 A 
ATOM     23  C   UNL     1      -2.398  10.324  17.060  0.00  0.00    +0.000 A 
ATOM     24  C   UNL     1      -2.749   9.661  15.762  0.00  0.00    +0.000 C 
ATOM     25  C   UNL     1      -1.108  10.172  17.610  0.00  0.00    +0.000 A 
ATOM     26  C   UNL     1      -0.714  10.829  18.802  0.00  0.00    +0.000 A 
BRANCH  20  28
ATOM     27  C   UNL     1      -2.181  13.484  20.715  0.00  0.00    +0.000 C 
ATOM     28  O   UNL     1      -1.377  12.316  20.575  0.00  0.00    +0.000 OA
ENDBRANCH  20  28
ENDBRANCH  18  26
ENDBRANCH   1  18
TORSDOF 5
ENDMDL
