MODEL 1
REMARK VINA RESULT:      -6.9      0.000      0.000
REMARK  Name = 
REMARK  10 active torsions:
REMARK  status: ('A' for Active; 'I' for Inactive)
REMARK    1  A    between atoms: C_1  and  O_2
REMARK    2  A    between atoms: O_2  and  C_3
REMARK    3  A    between atoms: C_7  and  N_8
REMARK    4  A    between atoms: C_9  and  C_11
REMARK    5  A    between atoms: N_20  and  C_21
REMARK    6  A    between atoms: C_21  and  C_22
REMARK    7  A    between atoms: C_21  and  C_23
REMARK    8  A    between atoms: C_24  and  C_25
REMARK    9  A    between atoms: N_27  and  C_28
REMARK   10  A    between atoms: C_33  and  C_34
REMARK                            x       y       z     vdW  Elec       q    Type
REMARK                         _______ _______ _______ _____ _____    ______ ____
ROOT
ATOM      1  C   UNL     1       0.272  12.965  21.248  0.00  0.00    +0.000 C 
ATOM      2  C   UNL     1      -0.215  11.591  20.689  0.00  0.00    +0.000 C 
ATOM      3  C   UNL     1      -0.093  10.453  21.675  0.00  0.00    +0.000 C 
ATOM      4  C   UNL     1      -1.035  10.649  22.611  0.00  0.00    +0.000 C 
ATOM      5  C   UNL     1      -1.675  11.955  22.237  0.00  0.00    +0.000 C 
ATOM      6  O   UNL     1      -1.651  11.816  20.805  0.00  0.00    +0.000 OA
ATOM      7  C   UNL     1      -0.618  13.057  22.491  0.00  0.00    +0.000 C 
ATOM      8  C   UNL     1      -1.417  14.173  23.119  0.00  0.00    +0.000 C 
ATOM      9  O   UNL     1      -1.001  15.307  23.280  0.00  0.00    +0.000 OA
ATOM     10  N   UNL     1      -2.533  13.545  23.698  0.00  0.00    +0.000 N 
ATOM     11  C   UNL     1      -2.972  12.442  22.844  0.00  0.00    +0.000 C 
ENDROOT
BRANCH   1  13
ATOM     12  N   UNL     1      -0.116  15.223  20.244  0.00  0.00    +0.000 N 
ATOM     13  C   UNL     1       0.254  13.914  20.055  0.00  0.00    +0.000 C 
ATOM     14  O   UNL     1       0.727  13.489  18.997  0.00  0.00    +0.000 OA
ATOM     15  H   UNL     1      -0.510  15.497  21.145  0.00  0.00    +0.000 HD
BRANCH  12  20
ATOM     16  C   UNL     1       1.393  17.455  17.658  0.00  0.00    +0.000 A 
ATOM     17  C   UNL     1       0.307  18.236  17.266  0.00  0.00    +0.000 A 
ATOM     18  C   UNL     1      -0.932  18.045  17.862  0.00  0.00    +0.000 A 
ATOM     19  C   UNL     1      -1.082  17.068  18.854  0.00  0.00    +0.000 A 
ATOM     20  C   UNL     1      -0.006  16.261  19.262  0.00  0.00    +0.000 A 
ATOM     21  C   UNL     1       1.238  16.473  18.654  0.00  0.00    +0.000 A 
BRANCH  16  23
ATOM     22  C   UNL     1       3.500  16.712  16.852  0.00  0.00    +0.000 C 
ATOM     23  O   UNL     1       2.550  17.758  16.990  0.00  0.00    +0.000 OA
ENDBRANCH  16  23
ENDBRANCH  12  20
ENDBRANCH   1  13
BRANCH  11  24
ATOM     24  C   UNL     1      -3.942  13.006  21.774  0.00  0.00    +0.000 C 
ATOM     25  O   UNL     1      -3.843  14.148  21.325  0.00  0.00    +0.000 OA
ATOM     26  N   UNL     1      -4.949  12.153  21.363  0.00  0.00    +0.000 N 
ATOM     27  H   UNL     1      -4.780  11.159  21.462  0.00  0.00    +0.000 HD
BRANCH  26  28
ATOM     28  C   UNL     1      -5.892  12.584  20.330  0.00  0.00    +0.000 C 
ATOM     29  C   UNL     1      -5.362  12.291  18.915  0.00  0.00    +0.000 C 
ATOM     30  C   UNL     1      -5.449  10.815  18.534  0.00  0.00    +0.000 C 
ATOM     31  C   UNL     1      -6.852  10.256  18.745  0.00  0.00    +0.000 C 
ATOM     32  C   UNL     1      -7.344  10.492  20.170  0.00  0.00    +0.000 C 
ATOM     33  C   UNL     1      -7.298  11.981  20.535  0.00  0.00    +0.000 C 
ATOM     34  C   UNL     1      -7.826  12.217  21.951  0.00  0.00    +0.000 C 
ENDBRANCH  26  28
ENDBRANCH  11  24
BRANCH  10  35
ATOM     35  C   UNL     1      -3.349  13.960  24.849  0.00  0.00    +0.000 C 
ATOM     36  C   UNL     1      -4.020  15.313  24.597  0.00  0.00    +0.000 C 
ATOM     37  C   UNL     1      -4.364  12.936  25.336  0.00  0.00    +0.000 C 
ENDBRANCH  10  35
TORSDOF 6
ENDMDL
MODEL 2
REMARK VINA RESULT:      -6.8      2.643      6.637
REMARK  Name = 
REMARK  10 active torsions:
REMARK  status: ('A' for Active; 'I' for Inactive)
REMARK    1  A    between atoms: C_1  and  O_2
REMARK    2  A    between atoms: O_2  and  C_3
REMARK    3  A    between atoms: C_7  and  N_8
REMARK    4  A    between atoms: C_9  and  C_11
REMARK    5  A    between atoms: N_20  and  C_21
REMARK    6  A    between atoms: C_21  and  C_22
REMARK    7  A    between atoms: C_21  and  C_23
REMARK    8  A    between atoms: C_24  and  C_25
REMARK    9  A    between atoms: N_27  and  C_28
REMARK   10  A    between atoms: C_33  and  C_34
REMARK                            x       y       z     vdW  Elec       q    Type
REMARK                         _______ _______ _______ _____ _____    ______ ____
ROOT
ATOM      1  C   UNL     1      -0.290  13.598  21.185  0.00  0.00    +0.000 C 
ATOM      2  C   UNL     1      -0.779  14.276  19.866  0.00  0.00    +0.000 C 
ATOM      3  C   UNL     1       0.343  14.763  18.979  0.00  0.00    +0.000 C 
ATOM      4  C   UNL     1       0.924  13.671  18.456  0.00  0.00    +0.000 C 
ATOM      5  C   UNL     1       0.206  12.517  19.094  0.00  0.00    +0.000 C 
ATOM      6  O   UNL     1      -1.123  13.068  19.126  0.00  0.00    +0.000 OA
ATOM      7  C   UNL     1       0.610  12.513  20.588  0.00  0.00    +0.000 C 
ATOM      8  C   UNL     1       0.818  11.049  20.892  0.00  0.00    +0.000 C 
ATOM      9  O   UNL     1       0.941  10.594  22.016  0.00  0.00    +0.000 OA
ATOM     10  N   UNL     1       1.122  10.457  19.655  0.00  0.00    +0.000 N 
ATOM     11  C   UNL     1       0.332  11.093  18.601  0.00  0.00    +0.000 C 
ENDROOT
BRANCH   1  13
ATOM     12  N   UNL     1      -2.713  14.012  21.652  0.00  0.00    +0.000 N 
ATOM     13  C   UNL     1      -1.553  13.369  22.009  0.00  0.00    +0.000 C 
ATOM     14  O   UNL     1      -1.504  12.487  22.871  0.00  0.00    +0.000 OA
ATOM     15  H   UNL     1      -2.672  14.739  20.936  0.00  0.00    +0.000 HD
BRANCH  12  20
ATOM     16  C   UNL     1      -6.075  12.462  22.147  0.00  0.00    +0.000 A 
ATOM     17  C   UNL     1      -6.543  13.121  23.284  0.00  0.00    +0.000 A 
ATOM     18  C   UNL     1      -5.761  14.094  23.889  0.00  0.00    +0.000 A 
ATOM     19  C   UNL     1      -4.506  14.408  23.353  0.00  0.00    +0.000 A 
ATOM     20  C   UNL     1      -4.005  13.754  22.215  0.00  0.00    +0.000 A 
ATOM     21  C   UNL     1      -4.811  12.779  21.614  0.00  0.00    +0.000 A 
BRANCH  16  23
ATOM     22  C   UNL     1      -7.373  11.698  20.311  0.00  0.00    +0.000 C 
ATOM     23  O   UNL     1      -6.953  11.532  21.656  0.00  0.00    +0.000 OA
ENDBRANCH  16  23
ENDBRANCH  12  20
ENDBRANCH   1  13
BRANCH  11  24
ATOM     24  C   UNL     1      -1.042  10.380  18.518  0.00  0.00    +0.000 C 
ATOM     25  O   UNL     1      -1.500   9.714  19.446  0.00  0.00    +0.000 OA
ATOM     26  N   UNL     1      -1.722  10.517  17.322  0.00  0.00    +0.000 N 
ATOM     27  H   UNL     1      -1.507  11.333  16.761  0.00  0.00    +0.000 HD
BRANCH  26  28
ATOM     28  C   UNL     1      -3.044   9.908  17.162  0.00  0.00    +0.000 C 
ATOM     29  C   UNL     1      -4.001  10.315  18.297  0.00  0.00    +0.000 C 
ATOM     30  C   UNL     1      -4.520  11.745  18.162  0.00  0.00    +0.000 C 
ATOM     31  C   UNL     1      -5.125  12.001  16.786  0.00  0.00    +0.000 C 
ATOM     32  C   UNL     1      -4.146  11.657  15.668  0.00  0.00    +0.000 C 
ATOM     33  C   UNL     1      -3.660  10.207  15.779  0.00  0.00    +0.000 C 
ATOM     34  C   UNL     1      -2.708   9.856  14.635  0.00  0.00    +0.000 C 
ENDBRANCH  26  28
ENDBRANCH  11  24
BRANCH  10  35
ATOM     35  C   UNL     1       1.914   9.253  19.361  0.00  0.00    +0.000 C 
ATOM     36  C   UNL     1       1.537   8.098  20.293  0.00  0.00    +0.000 C 
ATOM     37  C   UNL     1       1.905   8.800  17.909  0.00  0.00    +0.000 C 
ENDBRANCH  10  35
TORSDOF 6
ENDMDL
MODEL 3
REMARK VINA RESULT:      -6.8      4.497      7.691
REMARK  Name = 
REMARK  10 active torsions:
REMARK  status: ('A' for Active; 'I' for Inactive)
REMARK    1  A    between atoms: C_1  and  O_2
REMARK    2  A    between atoms: O_2  and  C_3
REMARK    3  A    between atoms: C_7  and  N_8
REMARK    4  A    between atoms: C_9  and  C_11
REMARK    5  A    between atoms: N_20  and  C_21
REMARK    6  A    between atoms: C_21  and  C_22
REMARK    7  A    between atoms: C_21  and  C_23
REMARK    8  A    between atoms: C_24  and  C_25
REMARK    9  A    between atoms: N_27  and  C_28
REMARK   10  A    between atoms: C_33  and  C_34
REMARK                            x       y       z     vdW  Elec       q    Type
REMARK                         _______ _______ _______ _____ _____    ______ ____
ROOT
ATOM      1  C   UNL     1       1.464   9.103  21.172  0.00  0.00    +0.000 C 
ATOM      2  C   UNL     1       0.222   8.748  22.050  0.00  0.00    +0.000 C 
ATOM      3  C   UNL     1      -0.020   9.716  23.184  0.00  0.00    +0.000 C 
ATOM      4  C   UNL     1      -0.468  10.855  22.632  0.00  0.00    +0.000 C 
ATOM      5  C   UNL     1      -0.416  10.604  21.152  0.00  0.00    +0.000 C 
ATOM      6  O   UNL     1      -0.816   9.222  21.144  0.00  0.00    +0.000 OA
ATOM      7  C   UNL     1       1.080  10.529  20.765  0.00  0.00    +0.000 C 
ATOM      8  C   UNL     1       1.146  11.294  19.466  0.00  0.00    +0.000 C 
ATOM      9  O   UNL     1       2.110  11.293  18.720  0.00  0.00    +0.000 OA
ATOM     10  N   UNL     1       0.047  12.168  19.498  0.00  0.00    +0.000 N 
ATOM     11  C   UNL     1      -1.087  11.504  20.139  0.00  0.00    +0.000 C 
ENDROOT
BRANCH   1  13
ATOM     12  N   UNL     1       1.806   6.659  20.765  0.00  0.00    +0.000 N 
ATOM     13  C   UNL     1       1.644   7.916  20.233  0.00  0.00    +0.000 C 
ATOM     14  O   UNL     1       1.478   8.126  19.029  0.00  0.00    +0.000 OA
ATOM     15  H   UNL     1       1.949   6.566  21.771  0.00  0.00    +0.000 HD
BRANCH  12  20
ATOM     16  C   UNL     1       2.718   4.149  18.154  0.00  0.00    +0.000 A 
ATOM     17  C   UNL     1       1.923   3.056  18.499  0.00  0.00    +0.000 A 
ATOM     18  C   UNL     1       1.067   3.142  19.588  0.00  0.00    +0.000 A 
ATOM     19  C   UNL     1       1.007   4.326  20.333  0.00  0.00    +0.000 A 
ATOM     20  C   UNL     1       1.802   5.440  20.013  0.00  0.00    +0.000 A 
ATOM     21  C   UNL     1       2.656   5.337  18.907  0.00  0.00    +0.000 A 
BRANCH  16  23
ATOM     22  C   UNL     1       4.894   4.189  17.204  0.00  0.00    +0.000 C 
ATOM     23  O   UNL     1       3.508   3.923  17.058  0.00  0.00    +0.000 OA
ENDBRANCH  16  23
ENDBRANCH  12  20
ENDBRANCH   1  13
BRANCH  11  24
ATOM     24  C   UNL     1      -1.858  10.699  19.062  0.00  0.00    +0.000 C 
ATOM     25  O   UNL     1      -1.326   9.816  18.387  0.00  0.00    +0.000 OA
ATOM     26  N   UNL     1      -3.184  11.045  18.882  0.00  0.00    +0.000 N 
ATOM     27  H   UNL     1      -3.657  11.479  19.667  0.00  0.00    +0.000 HD
BRANCH  26  28
ATOM     28  C   UNL     1      -4.002  10.316  17.912  0.00  0.00    +0.000 C 
ATOM     29  C   UNL     1      -5.331   9.842  18.528  0.00  0.00    +0.000 C 
ATOM     30  C   UNL     1      -6.347  10.968  18.705  0.00  0.00    +0.000 C 
ATOM     31  C   UNL     1      -6.562  11.746  17.411  0.00  0.00    +0.000 C 
ATOM     32  C   UNL     1      -5.247  12.269  16.843  0.00  0.00    +0.000 C 
ATOM     33  C   UNL     1      -4.244  11.130  16.623  0.00  0.00    +0.000 C 
ATOM     34  C   UNL     1      -2.940  11.654  16.019  0.00  0.00    +0.000 C 
ENDBRANCH  26  28
ENDBRANCH  11  24
BRANCH  10  35
ATOM     35  C   UNL     1      -0.132  13.472  18.843  0.00  0.00    +0.000 C 
ATOM     36  C   UNL     1      -1.158  14.332  19.587  0.00  0.00    +0.000 C 
ATOM     37  C   UNL     1       1.144  14.258  18.583  0.00  0.00    +0.000 C 
ENDBRANCH  10  35
TORSDOF 6
ENDMDL
MODEL 4
REMARK VINA RESULT:      -6.8      9.650     12.639
REMARK  Name = 
REMARK  10 active torsions:
REMARK  status: ('A' for Active; 'I' for Inactive)
REMARK    1  A    between atoms: C_1  and  O_2
REMARK    2  A    between atoms: O_2  and  C_3
REMARK    3  A    between atoms: C_7  and  N_8
REMARK    4  A    between atoms: C_9  and  C_11
REMARK    5  A    between atoms: N_20  and  C_21
REMARK    6  A    between atoms: C_21  and  C_22
REMARK    7  A    between atoms: C_21  and  C_23
REMARK    8  A    between atoms: C_24  and  C_25
REMARK    9  A    between atoms: N_27  and  C_28
REMARK   10  A    between atoms: C_33  and  C_34
REMARK                            x       y       z     vdW  Elec       q    Type
REMARK                         _______ _______ _______ _____ _____    ______ ____
ROOT
ATOM      1  C   UNL     1      10.022  11.386  18.588  0.00  0.00    +0.000 C 
ATOM      2  C   UNL     1      10.812  11.657  19.908  0.00  0.00    +0.000 C 
ATOM      3  C   UNL     1      11.911  12.682  19.762  0.00  0.00    +0.000 C 
ATOM      4  C   UNL     1      11.312  13.875  19.623  0.00  0.00    +0.000 C 
ATOM      5  C   UNL     1       9.844  13.561  19.601  0.00  0.00    +0.000 C 
ATOM      6  O   UNL     1       9.825  12.500  20.572  0.00  0.00    +0.000 OA
ATOM      7  C   UNL     1       9.568  12.814  18.274  0.00  0.00    +0.000 C 
ATOM      8  C   UNL     1       8.267  13.412  17.797  0.00  0.00    +0.000 C 
ATOM      9  O   UNL     1       7.593  12.952  16.892  0.00  0.00    +0.000 OA
ATOM     10  N   UNL     1       8.206  14.683  18.393  0.00  0.00    +0.000 N 
ATOM     11  C   UNL     1       8.772  14.619  19.740  0.00  0.00    +0.000 C 
ENDROOT
BRANCH   1  13
ATOM     12  N   UNL     1       8.694   9.391  17.872  0.00  0.00    +0.000 N 
ATOM     13  C   UNL     1       9.115  10.200  18.899  0.00  0.00    +0.000 C 
ATOM     14  O   UNL     1       8.931   9.936  20.090  0.00  0.00    +0.000 OA
ATOM     15  H   UNL     1       8.874   9.683  16.910  0.00  0.00    +0.000 HD
BRANCH  12  20
ATOM     16  C   UNL     1       6.178   6.686  17.323  0.00  0.00    +0.000 A 
ATOM     17  C   UNL     1       6.590   5.706  18.226  0.00  0.00    +0.000 A 
ATOM     18  C   UNL     1       7.694   5.934  19.036  0.00  0.00    +0.000 A 
ATOM     19  C   UNL     1       8.386   7.148  18.941  0.00  0.00    +0.000 A 
ATOM     20  C   UNL     1       7.997   8.149  18.034  0.00  0.00    +0.000 A 
ATOM     21  C   UNL     1       6.877   7.903  17.229  0.00  0.00    +0.000 A 
BRANCH  16  23
ATOM     22  C   UNL     1       5.291   5.456  15.495  0.00  0.00    +0.000 C 
ATOM     23  O   UNL     1       5.074   6.326  16.595  0.00  0.00    +0.000 OA
ENDBRANCH  16  23
ENDBRANCH  12  20
ENDBRANCH   1  13
BRANCH  11  24
ATOM     24  C   UNL     1       7.652  14.190  20.723  0.00  0.00    +0.000 C 
ATOM     25  O   UNL     1       6.480  14.052  20.373  0.00  0.00    +0.000 OA
ATOM     26  N   UNL     1       8.043  13.989  22.034  0.00  0.00    +0.000 N 
ATOM     27  H   UNL     1       9.016  13.753  22.193  0.00  0.00    +0.000 HD
BRANCH  26  28
ATOM     28  C   UNL     1       7.063  13.548  23.027  0.00  0.00    +0.000 C 
ATOM     29  C   UNL     1       7.119  12.025  23.247  0.00  0.00    +0.000 C 
ATOM     30  C   UNL     1       8.322  11.581  24.075  0.00  0.00    +0.000 C 
ATOM     31  C   UNL     1       8.423  12.352  25.387  0.00  0.00    +0.000 C 
ATOM     32  C   UNL     1       8.435  13.860  25.155  0.00  0.00    +0.000 C 
ATOM     33  C   UNL     1       7.201  14.309  24.362  0.00  0.00    +0.000 C 
ATOM     34  C   UNL     1       7.198  15.826  24.164  0.00  0.00    +0.000 C 
ENDBRANCH  26  28
ENDBRANCH  11  24
BRANCH  10  35
ATOM     35  C   UNL     1       7.521  15.901  17.935  0.00  0.00    +0.000 C 
ATOM     36  C   UNL     1       6.001  15.717  17.932  0.00  0.00    +0.000 C 
ATOM     37  C   UNL     1       7.909  17.182  18.658  0.00  0.00    +0.000 C 
ENDBRANCH  10  35
TORSDOF 6
ENDMDL
MODEL 5
REMARK VINA RESULT:      -6.7      1.023      1.727
REMARK  Name = 
REMARK  10 active torsions:
REMARK  status: ('A' for Active; 'I' for Inactive)
REMARK    1  A    between atoms: C_1  and  O_2
REMARK    2  A    between atoms: O_2  and  C_3
REMARK    3  A    between atoms: C_7  and  N_8
REMARK    4  A    between atoms: C_9  and  C_11
REMARK    5  A    between atoms: N_20  and  C_21
REMARK    6  A    between atoms: C_21  and  C_22
REMARK    7  A    between atoms: C_21  and  C_23
REMARK    8  A    between atoms: C_24  and  C_25
REMARK    9  A    between atoms: N_27  and  C_28
REMARK   10  A    between atoms: C_33  and  C_34
REMARK                            x       y       z     vdW  Elec       q    Type
REMARK                         _______ _______ _______ _____ _____    ______ ____
ROOT
ATOM      1  C   UNL     1       0.867  12.320  21.042  0.00  0.00    +0.000 C 
ATOM      2  C   UNL     1       0.190  11.017  20.509  0.00  0.00    +0.000 C 
ATOM      3  C   UNL     1       0.046   9.935  21.552  0.00  0.00    +0.000 C 
ATOM      4  C   UNL     1      -0.911  10.340  22.402  0.00  0.00    +0.000 C 
ATOM      5  C   UNL     1      -1.289  11.712  21.919  0.00  0.00    +0.000 C 
ATOM      6  O   UNL     1      -1.190  11.487  20.502  0.00  0.00    +0.000 OA
ATOM      7  C   UNL     1      -0.079  12.633  22.205  0.00  0.00    +0.000 C 
ATOM      8  C   UNL     1      -0.716  13.902  22.716  0.00  0.00    +0.000 C 
ATOM      9  O   UNL     1      -0.123  14.957  22.857  0.00  0.00    +0.000 OA
ATOM     10  N   UNL     1      -1.960  13.506  23.234  0.00  0.00    +0.000 N 
ATOM     11  C   UNL     1      -2.522  12.444  22.399  0.00  0.00    +0.000 C 
ENDROOT
BRANCH   1  13
ATOM     12  N   UNL     1       1.567  14.467  19.965  0.00  0.00    +0.000 N 
ATOM     13  C   UNL     1       1.095  13.186  19.808  0.00  0.00    +0.000 C 
ATOM     14  O   UNL     1       0.990  12.633  18.710  0.00  0.00    +0.000 OA
ATOM     15  H   UNL     1       1.615  14.861  20.907  0.00  0.00    +0.000 HD
BRANCH  12  20
ATOM     16  C   UNL     1       1.711  17.420  17.683  0.00  0.00    +0.000 A 
ATOM     17  C   UNL     1       2.804  17.117  16.871  0.00  0.00    +0.000 A 
ATOM     18  C   UNL     1       3.495  15.928  17.059  0.00  0.00    +0.000 A 
ATOM     19  C   UNL     1       3.089  15.040  18.063  0.00  0.00    +0.000 A 
ATOM     20  C   UNL     1       1.997  15.324  18.901  0.00  0.00    +0.000 A 
ATOM     21  C   UNL     1       1.309  16.526  18.693  0.00  0.00    +0.000 A 
BRANCH  16  23
ATOM     22  C   UNL     1      -0.271  18.604  17.128  0.00  0.00    +0.000 C 
ATOM     23  O   UNL     1       1.125  18.621  17.382  0.00  0.00    +0.000 OA
ENDBRANCH  16  23
ENDBRANCH  12  20
ENDBRANCH   1  13
BRANCH  11  24
ATOM     24  C   UNL     1      -3.303  13.099  21.232  0.00  0.00    +0.000 C 
ATOM     25  O   UNL     1      -2.991  14.190  20.754  0.00  0.00    +0.000 OA
ATOM     26  N   UNL     1      -4.396  12.393  20.765  0.00  0.00    +0.000 N 
ATOM     27  H   UNL     1      -4.393  11.390  20.912  0.00  0.00    +0.000 HD
BRANCH  26  28
ATOM     28  C   UNL     1      -5.175  12.915  19.641  0.00  0.00    +0.000 C 
ATOM     29  C   UNL     1      -4.821  12.204  18.322  0.00  0.00    +0.000 C 
ATOM     30  C   UNL     1      -5.409  10.798  18.220  0.00  0.00    +0.000 C 
ATOM     31  C   UNL     1      -6.910  10.790  18.488  0.00  0.00    +0.000 C 
ATOM     32  C   UNL     1      -7.247  11.437  19.828  0.00  0.00    +0.000 C 
ATOM     33  C   UNL     1      -6.694  12.866  19.910  0.00  0.00    +0.000 C 
ATOM     34  C   UNL     1      -7.066  13.523  21.241  0.00  0.00    +0.000 C 
ENDBRANCH  26  28
ENDBRANCH  11  24
BRANCH  10  35
ATOM     35  C   UNL     1      -2.771  14.118  24.297  0.00  0.00    +0.000 C 
ATOM     36  C   UNL     1      -3.208  15.536  23.917  0.00  0.00    +0.000 C 
ATOM     37  C   UNL     1      -3.960  13.296  24.771  0.00  0.00    +0.000 C 
ENDBRANCH  10  35
TORSDOF 6
ENDMDL
MODEL 6
REMARK VINA RESULT:      -6.7      3.770      7.162
REMARK  Name = 
REMARK  10 active torsions:
REMARK  status: ('A' for Active; 'I' for Inactive)
REMARK    1  A    between atoms: C_1  and  O_2
REMARK    2  A    between atoms: O_2  and  C_3
REMARK    3  A    between atoms: C_7  and  N_8
REMARK    4  A    between atoms: C_9  and  C_11
REMARK    5  A    between atoms: N_20  and  C_21
REMARK    6  A    between atoms: C_21  and  C_22
REMARK    7  A    between atoms: C_21  and  C_23
REMARK    8  A    between atoms: C_24  and  C_25
REMARK    9  A    between atoms: N_27  and  C_28
REMARK   10  A    between atoms: C_33  and  C_34
REMARK                            x       y       z     vdW  Elec       q    Type
REMARK                         _______ _______ _______ _____ _____    ______ ____
ROOT
ATOM      1  C   UNL     1       0.917  10.339  21.282  0.00  0.00    +0.000 C 
ATOM      2  C   UNL     1      -0.489  10.016  21.880  0.00  0.00    +0.000 C 
ATOM      3  C   UNL     1      -0.887  10.917  23.025  0.00  0.00    +0.000 C 
ATOM      4  C   UNL     1      -1.151  12.122  22.496  0.00  0.00    +0.000 C 
ATOM      5  C   UNL     1      -0.832  11.973  21.036  0.00  0.00    +0.000 C 
ATOM      6  O   UNL     1      -1.304  10.628  20.838  0.00  0.00    +0.000 OA
ATOM      7  C   UNL     1       0.704  11.814  20.931  0.00  0.00    +0.000 C 
ATOM      8  C   UNL     1       1.063  12.662  19.735  0.00  0.00    +0.000 C 
ATOM      9  O   UNL     1       2.150  12.642  19.184  0.00  0.00    +0.000 OA
ATOM     10  N   UNL     1       0.033  13.611  19.634  0.00  0.00    +0.000 N 
ATOM     11  C   UNL     1      -1.241  12.989  19.994  0.00  0.00    +0.000 C 
ENDROOT
BRANCH   1  13
ATOM     12  N   UNL     1       1.838   8.076  20.744  0.00  0.00    +0.000 N 
ATOM     13  C   UNL     1       1.203   9.210  20.298  0.00  0.00    +0.000 C 
ATOM     14  O   UNL     1       0.706   9.311  19.173  0.00  0.00    +0.000 OA
ATOM     15  H   UNL     1       2.234   8.072  21.685  0.00  0.00    +0.000 HD
BRANCH  12  20
ATOM     16  C   UNL     1       1.663   4.463  19.816  0.00  0.00    +0.000 A 
ATOM     17  C   UNL     1       2.230   4.453  18.542  0.00  0.00    +0.000 A 
ATOM     18  C   UNL     1       2.690   5.637  17.982  0.00  0.00    +0.000 A 
ATOM     19  C   UNL     1       2.581   6.833  18.702  0.00  0.00    +0.000 A 
ATOM     20  C   UNL     1       2.006   6.874  19.984  0.00  0.00    +0.000 A 
ATOM     21  C   UNL     1       1.553   5.668  20.535  0.00  0.00    +0.000 A 
BRANCH  16  23
ATOM     22  C   UNL     1       1.606   2.860  21.568  0.00  0.00    +0.000 C 
ATOM     23  O   UNL     1       1.259   3.225  20.241  0.00  0.00    +0.000 OA
ENDBRANCH  16  23
ENDBRANCH  12  20
ENDBRANCH   1  13
BRANCH  11  24
ATOM     24  C   UNL     1      -1.837  12.321  18.729  0.00  0.00    +0.000 C 
ATOM     25  O   UNL     1      -1.144  11.987  17.767  0.00  0.00    +0.000 OA
ATOM     26  N   UNL     1      -3.207  12.138  18.730  0.00  0.00    +0.000 N 
ATOM     27  H   UNL     1      -3.662  12.076  19.634  0.00  0.00    +0.000 HD
BRANCH  26  28
ATOM     28  C   UNL     1      -3.856  11.483  17.593  0.00  0.00    +0.000 C 
ATOM     29  C   UNL     1      -3.469   9.996  17.495  0.00  0.00    +0.000 C 
ATOM     30  C   UNL     1      -4.165   9.124  18.537  0.00  0.00    +0.000 C 
ATOM     31  C   UNL     1      -5.677   9.323  18.525  0.00  0.00    +0.000 C 
ATOM     32  C   UNL     1      -6.053  10.792  18.690  0.00  0.00    +0.000 C 
ATOM     33  C   UNL     1      -5.389  11.660  17.614  0.00  0.00    +0.000 C 
ATOM     34  C   UNL     1      -5.798  13.127  17.762  0.00  0.00    +0.000 C 
ENDBRANCH  26  28
ENDBRANCH  11  24
BRANCH  10  35
ATOM     35  C   UNL     1       0.060  14.968  19.067  0.00  0.00    +0.000 C 
ATOM     36  C   UNL     1      -0.992  15.866  19.723  0.00  0.00    +0.000 C 
ATOM     37  C   UNL     1       1.421  15.648  19.058  0.00  0.00    +0.000 C 
ENDBRANCH  10  35
TORSDOF 6
ENDMDL
MODEL 7
REMARK VINA RESULT:      -6.6      2.727      7.091
REMARK  Name = 
REMARK  10 active torsions:
REMARK  status: ('A' for Active; 'I' for Inactive)
REMARK    1  A    between atoms: C_1  and  O_2
REMARK    2  A    between atoms: O_2  and  C_3
REMARK    3  A    between atoms: C_7  and  N_8
REMARK    4  A    between atoms: C_9  and  C_11
REMARK    5  A    between atoms: N_20  and  C_21
REMARK    6  A    between atoms: C_21  and  C_22
REMARK    7  A    between atoms: C_21  and  C_23
REMARK    8  A    between atoms: C_24  and  C_25
REMARK    9  A    between atoms: N_27  and  C_28
REMARK   10  A    between atoms: C_33  and  C_34
REMARK                            x       y       z     vdW  Elec       q    Type
REMARK                         _______ _______ _______ _____ _____    ______ ____
ROOT
ATOM      1  C   UNL     1      -0.437  16.563  21.029  0.00  0.00    +0.000 C 
ATOM      2  C   UNL     1      -0.993  16.056  19.660  0.00  0.00    +0.000 C 
ATOM      3  C   UNL     1      -0.339  16.700  18.460  0.00  0.00    +0.000 C 
ATOM      4  C   UNL     1       0.905  16.202  18.383  0.00  0.00    +0.000 C 
ATOM      5  C   UNL     1       1.034  15.317  19.590  0.00  0.00    +0.000 C 
ATOM      6  O   UNL     1      -0.298  14.775  19.615  0.00  0.00    +0.000 OA
ATOM      7  C   UNL     1       1.048  16.248  20.826  0.00  0.00    +0.000 C 
ATOM      8  C   UNL     1       2.114  15.647  21.708  0.00  0.00    +0.000 C 
ATOM      9  O   UNL     1       2.294  15.957  22.872  0.00  0.00    +0.000 OA
ATOM     10  N   UNL     1       2.961  14.944  20.834  0.00  0.00    +0.000 N 
ATOM     11  C   UNL     1       2.165  14.330  19.771  0.00  0.00    +0.000 C 
ENDROOT
BRANCH   1  13
ATOM     12  N   UNL     1      -2.373  15.121  21.688  0.00  0.00    +0.000 N 
ATOM     13  C   UNL     1      -1.352  15.952  22.084  0.00  0.00    +0.000 C 
ATOM     14  O   UNL     1      -1.029  16.112  23.264  0.00  0.00    +0.000 OA
ATOM     15  H   UNL     1      -2.588  15.048  20.692  0.00  0.00    +0.000 HD
BRANCH  12  20
ATOM     16  C   UNL     1      -5.337  14.043  23.687  0.00  0.00    +0.000 A 
ATOM     17  C   UNL     1      -4.902  12.839  24.240  0.00  0.00    +0.000 A 
ATOM     18  C   UNL     1      -3.621  12.379  23.972  0.00  0.00    +0.000 A 
ATOM     19  C   UNL     1      -2.773  13.127  23.146  0.00  0.00    +0.000 A 
ATOM     20  C   UNL     1      -3.187  14.339  22.568  0.00  0.00    +0.000 A 
ATOM     21  C   UNL     1      -4.482  14.791  22.855  0.00  0.00    +0.000 A 
BRANCH  16  23
ATOM     22  C   UNL     1      -7.338  15.197  23.137  0.00  0.00    +0.000 C 
ATOM     23  O   UNL     1      -6.618  14.374  24.041  0.00  0.00    +0.000 OA
ENDBRANCH  16  23
ENDBRANCH  12  20
ENDBRANCH   1  13
BRANCH  11  24
ATOM     24  C   UNL     1       1.662  12.951  20.270  0.00  0.00    +0.000 C 
ATOM     25  O   UNL     1       1.851  12.552  21.419  0.00  0.00    +0.000 OA
ATOM     26  N   UNL     1       1.001  12.175  19.336  0.00  0.00    +0.000 N 
ATOM     27  H   UNL     1       0.557  12.661  18.565  0.00  0.00    +0.000 HD
BRANCH  26  28
ATOM     28  C   UNL     1       0.459  10.872  19.723  0.00  0.00    +0.000 C 
ATOM     29  C   UNL     1      -0.949  10.998  20.334  0.00  0.00    +0.000 C 
ATOM     30  C   UNL     1      -2.034  11.265  19.293  0.00  0.00    +0.000 C 
ATOM     31  C   UNL     1      -1.993  10.247  18.158  0.00  0.00    +0.000 C 
ATOM     32  C   UNL     1      -0.612  10.176  17.514  0.00  0.00    +0.000 C 
ATOM     33  C   UNL     1       0.471   9.864  18.555  0.00  0.00    +0.000 C 
ATOM     34  C   UNL     1       1.849   9.757  17.899  0.00  0.00    +0.000 C 
ENDBRANCH  26  28
ENDBRANCH  11  24
BRANCH  10  35
ATOM     35  C   UNL     1       4.389  14.621  20.970  0.00  0.00    +0.000 C 
ATOM     36  C   UNL     1       5.269  15.802  20.549  0.00  0.00    +0.000 C 
ATOM     37  C   UNL     1       4.815  14.088  22.329  0.00  0.00    +0.000 C 
ENDBRANCH  10  35
TORSDOF 6
ENDMDL
MODEL 8
REMARK VINA RESULT:      -6.6      9.447     12.902
REMARK  Name = 
REMARK  10 active torsions:
REMARK  status: ('A' for Active; 'I' for Inactive)
REMARK    1  A    between atoms: C_1  and  O_2
REMARK    2  A    between atoms: O_2  and  C_3
REMARK    3  A    between atoms: C_7  and  N_8
REMARK    4  A    between atoms: C_9  and  C_11
REMARK    5  A    between atoms: N_20  and  C_21
REMARK    6  A    between atoms: C_21  and  C_22
REMARK    7  A    between atoms: C_21  and  C_23
REMARK    8  A    between atoms: C_24  and  C_25
REMARK    9  A    between atoms: N_27  and  C_28
REMARK   10  A    between atoms: C_33  and  C_34
REMARK                            x       y       z     vdW  Elec       q    Type
REMARK                         _______ _______ _______ _____ _____    ______ ____
ROOT
ATOM      1  C   UNL     1       9.915  11.189  17.950  0.00  0.00    +0.000 C 
ATOM      2  C   UNL     1      11.067  11.328  18.995  0.00  0.00    +0.000 C 
ATOM      3  C   UNL     1      12.156  12.287  18.578  0.00  0.00    +0.000 C 
ATOM      4  C   UNL     1      11.638  13.523  18.665  0.00  0.00    +0.000 C 
ATOM      5  C   UNL     1      10.204  13.306  19.055  0.00  0.00    +0.000 C 
ATOM      6  O   UNL     1      10.380  12.192  19.948  0.00  0.00    +0.000 OA
ATOM      7  C   UNL     1       9.504  12.660  17.836  0.00  0.00    +0.000 C 
ATOM      8  C   UNL     1       8.173  13.367  17.779  0.00  0.00    +0.000 C 
ATOM      9  O   UNL     1       7.235  13.007  17.089  0.00  0.00    +0.000 OA
ATOM     10  N   UNL     1       8.385  14.602  18.416  0.00  0.00    +0.000 N 
ATOM     11  C   UNL     1       9.304  14.421  19.539  0.00  0.00    +0.000 C 
ENDROOT
BRANCH   1  13
ATOM     12  N   UNL     1       8.491   9.169  17.563  0.00  0.00    +0.000 N 
ATOM     13  C   UNL     1       9.044  10.048  18.463  0.00  0.00    +0.000 C 
ATOM     14  O   UNL     1       9.007   9.879  19.684  0.00  0.00    +0.000 OA
ATOM     15  H   UNL     1       8.553   9.382  16.566  0.00  0.00    +0.000 HD
BRANCH  12  20
ATOM     16  C   UNL     1       5.898   6.480  17.550  0.00  0.00    +0.000 A 
ATOM     17  C   UNL     1       6.416   5.562  18.462  0.00  0.00    +0.000 A 
ATOM     18  C   UNL     1       7.617   5.828  19.103  0.00  0.00    +0.000 A 
ATOM     19  C   UNL     1       8.303   7.017  18.828  0.00  0.00    +0.000 A 
ATOM     20  C   UNL     1       7.810   7.957  17.907  0.00  0.00    +0.000 A 
ATOM     21  C   UNL     1       6.592   7.674  17.274  0.00  0.00    +0.000 A 
BRANCH  16  23
ATOM     22  C   UNL     1       3.980   5.088  17.695  0.00  0.00    +0.000 C 
ATOM     23  O   UNL     1       4.706   6.089  17.000  0.00  0.00    +0.000 OA
ENDBRANCH  16  23
ENDBRANCH  12  20
ENDBRANCH   1  13
BRANCH  11  24
ATOM     24  C   UNL     1       8.480  14.006  20.785  0.00  0.00    +0.000 C 
ATOM     25  O   UNL     1       7.979  12.888  20.907  0.00  0.00    +0.000 OA
ATOM     26  N   UNL     1       8.319  14.979  21.754  0.00  0.00    +0.000 N 
ATOM     27  H   UNL     1       9.021  15.710  21.794  0.00  0.00    +0.000 HD
BRANCH  26  28
ATOM     28  C   UNL     1       7.586  14.670  22.982  0.00  0.00    +0.000 C 
ATOM     29  C   UNL     1       8.537  14.301  24.136  0.00  0.00    +0.000 C 
ATOM     30  C   UNL     1       9.252  15.509  24.735  0.00  0.00    +0.000 C 
ATOM     31  C   UNL     1       8.273  16.609  25.132  0.00  0.00    +0.000 C 
ATOM     32  C   UNL     1       7.380  17.016  23.964  0.00  0.00    +0.000 C 
ATOM     33  C   UNL     1       6.627  15.808  23.393  0.00  0.00    +0.000 C 
ATOM     34  C   UNL     1       5.705  16.226  22.246  0.00  0.00    +0.000 C 
ENDBRANCH  26  28
ENDBRANCH  11  24
BRANCH  10  35
ATOM     35  C   UNL     1       7.696  15.887  18.223  0.00  0.00    +0.000 C 
ATOM     36  C   UNL     1       6.229  15.802  18.653  0.00  0.00    +0.000 C 
ATOM     37  C   UNL     1       8.374  17.095  18.851  0.00  0.00    +0.000 C 
ENDBRANCH  10  35
TORSDOF 6
ENDMDL
MODEL 9
REMARK VINA RESULT:      -6.5      4.782      7.704
REMARK  Name = 
REMARK  10 active torsions:
REMARK  status: ('A' for Active; 'I' for Inactive)
REMARK    1  A    between atoms: C_1  and  O_2
REMARK    2  A    between atoms: O_2  and  C_3
REMARK    3  A    between atoms: C_7  and  N_8
REMARK    4  A    between atoms: C_9  and  C_11
REMARK    5  A    between atoms: N_20  and  C_21
REMARK    6  A    between atoms: C_21  and  C_22
REMARK    7  A    between atoms: C_21  and  C_23
REMARK    8  A    between atoms: C_24  and  C_25
REMARK    9  A    between atoms: N_27  and  C_28
REMARK   10  A    between atoms: C_33  and  C_34
REMARK                            x       y       z     vdW  Elec       q    Type
REMARK                         _______ _______ _______ _____ _____    ______ ____
ROOT
ATOM      1  C   UNL     1       1.468   8.778  21.173  0.00  0.00    +0.000 C 
ATOM      2  C   UNL     1       0.169   8.659  22.033  0.00  0.00    +0.000 C 
ATOM      3  C   UNL     1       0.013   9.759  23.056  0.00  0.00    +0.000 C 
ATOM      4  C   UNL     1      -0.282  10.880  22.377  0.00  0.00    +0.000 C 
ATOM      5  C   UNL     1      -0.220  10.475  20.932  0.00  0.00    +0.000 C 
ATOM      6  O   UNL     1      -0.781   9.154  21.044  0.00  0.00    +0.000 OA
ATOM      7  C   UNL     1       1.266  10.189  20.613  0.00  0.00    +0.000 C 
ATOM      8  C   UNL     1       1.458  10.804  19.249  0.00  0.00    +0.000 C 
ATOM      9  O   UNL     1       2.434  10.616  18.544  0.00  0.00    +0.000 OA
ATOM     10  N   UNL     1       0.470  11.798  19.152  0.00  0.00    +0.000 N 
ATOM     11  C   UNL     1      -0.753  11.338  19.811  0.00  0.00    +0.000 C 
ENDROOT
BRANCH   1  13
ATOM     12  N   UNL     1       2.361   7.422  19.270  0.00  0.00    +0.000 N 
ATOM     13  C   UNL     1       1.531   7.488  20.363  0.00  0.00    +0.000 C 
ATOM     14  O   UNL     1       0.944   6.507  20.828  0.00  0.00    +0.000 OA
ATOM     15  H   UNL     1       2.804   8.280  18.937  0.00  0.00    +0.000 HD
BRANCH  12  20
ATOM     16  C   UNL     1       4.341   4.816  17.470  0.00  0.00    +0.000 A 
ATOM     17  C   UNL     1       3.365   3.881  17.131  0.00  0.00    +0.000 A 
ATOM     18  C   UNL     1       2.041   4.107  17.478  0.00  0.00    +0.000 A 
ATOM     19  C   UNL     1       1.694   5.275  18.169  0.00  0.00    +0.000 A 
ATOM     20  C   UNL     1       2.658   6.231  18.531  0.00  0.00    +0.000 A 
ATOM     21  C   UNL     1       3.989   5.988  18.166  0.00  0.00    +0.000 A 
BRANCH  16  23
ATOM     22  C   UNL     1       5.748   4.099  15.697  0.00  0.00    +0.000 C 
ATOM     23  O   UNL     1       5.600   4.464  17.060  0.00  0.00    +0.000 OA
ENDBRANCH  16  23
ENDBRANCH  12  20
ENDBRANCH   1  13
BRANCH  11  24
ATOM     24  C   UNL     1      -1.583  10.521  18.788  0.00  0.00    +0.000 C 
ATOM     25  O   UNL     1      -1.092   9.629  18.097  0.00  0.00    +0.000 OA
ATOM     26  N   UNL     1      -2.917  10.867  18.679  0.00  0.00    +0.000 N 
ATOM     27  H   UNL     1      -3.344  11.312  19.483  0.00  0.00    +0.000 HD
BRANCH  26  28
ATOM     28  C   UNL     1      -3.790  10.128  17.766  0.00  0.00    +0.000 C 
ATOM     29  C   UNL     1      -5.066   9.633  18.471  0.00  0.00    +0.000 C 
ATOM     30  C   UNL     1      -6.083  10.743  18.721  0.00  0.00    +0.000 C 
ATOM     31  C   UNL     1      -6.400  11.520  17.448  0.00  0.00    +0.000 C 
ATOM     32  C   UNL     1      -5.134  12.064  16.791  0.00  0.00    +0.000 C 
ATOM     33  C   UNL     1      -4.132  10.941  16.499  0.00  0.00    +0.000 C 
ATOM     34  C   UNL     1      -2.881  11.486  15.808  0.00  0.00    +0.000 C 
ENDBRANCH  26  28
ENDBRANCH  11  24
BRANCH  10  35
ATOM     35  C   UNL     1       0.463  13.040  18.365  0.00  0.00    +0.000 C 
ATOM     36  C   UNL     1      -0.655  13.982  18.820  0.00  0.00    +0.000 C 
ATOM     37  C   UNL     1       1.792  13.777  18.291  0.00  0.00    +0.000 C 
ENDBRANCH  10  35
TORSDOF 6
ENDMDL
