MODEL 1
REMARK VINA RESULT:      -7.9      0.000      0.000
REMARK  Name = 
REMARK  10 active torsions:
REMARK  status: ('A' for Active; 'I' for Inactive)
REMARK    1  A    between atoms: C_1  and  N_2
REMARK    2  A    between atoms: N_2  and  C_3
REMARK    3  A    between atoms: N_2  and  S_4
REMARK    4  A    between atoms: S_4  and  C_7
REMARK    5  A    between atoms: C_10  and  N_11
REMARK    6  A    between atoms: C_16  and  C_17
REMARK    7  A    between atoms: N_19  and  N_20
REMARK    8  A    between atoms: C_21  and  C_23
REMARK    9  A    between atoms: C_23  and  O_24
REMARK   10  A    between atoms: O_24  and  C_25
REMARK                            x       y       z     vdW  Elec       q    Type
REMARK                         _______ _______ _______ _____ _____    ______ ____
ROOT
ATOM      1  C   UNL     1       1.583   7.516  20.564  0.00  0.00    +0.000 A 
ATOM      2  C   UNL     1       1.446   6.216  21.027  0.00  0.00    +0.000 A 
ATOM      3  C   UNL     1       2.076   5.168  20.338  0.00  0.00    +0.000 A 
ATOM      4  C   UNL     1       2.837   5.357  19.157  0.00  0.00    +0.000 A 
ATOM      5  C   UNL     1       2.975   6.711  18.717  0.00  0.00    +0.000 A 
ATOM      6  C   UNL     1       2.399   7.765  19.462  0.00  0.00    +0.000 A 
ENDROOT
BRANCH   4   7
ATOM      7  N   UNL     1       3.376   4.247  18.487  0.00  0.00    +0.000 N 
ATOM      8  C   UNL     1       2.762   3.674  17.274  0.00  0.00    +0.000 C 
ATOM      9  C   UNL     1       2.430   2.231  17.638  0.00  0.00    +0.000 C 
ATOM     10  C   UNL     1       3.580   1.849  18.543  0.00  0.00    +0.000 C 
ATOM     11  C   UNL     1       3.871   3.130  19.328  0.00  0.00    +0.000 C 
ENDBRANCH   4   7
BRANCH   5  12
ATOM     12  C   UNL     1       3.715   7.118  17.476  0.00  0.00    +0.000 C 
ATOM     13  O   UNL     1       3.133   7.508  16.467  0.00  0.00    +0.000 OA
ATOM     14  N   UNL     1       5.098   7.025  17.386  0.00  0.00    +0.000 N 
ATOM     15  H   UNL     1       5.472   7.359  16.504  0.00  0.00    +0.000 HD
BRANCH  14  16
ATOM     16  N   UNL     1       5.969   6.479  18.323  0.00  0.00    +0.000 N 
ATOM     17  C   UNL     1       6.516   5.218  18.189  0.00  0.00    +0.000 C 
ATOM     18  O   UNL     1       7.051   4.682  19.161  0.00  0.00    +0.000 OA
ATOM     19  H   UNL     1       6.001   6.886  19.253  0.00  0.00    +0.000 HD
BRANCH  17  20
ATOM     20  C   UNL     1       6.498   4.558  16.809  0.00  0.00    +0.000 C 
BRANCH  20  21
ATOM     21  O   UNL     1       6.814   5.480  15.777  0.00  0.00    +0.000 OA
BRANCH  21  22
ATOM     22  C   UNL     1       6.819   4.984  14.497  0.00  0.00    +0.000 A 
ATOM     23  C   UNL     1       7.768   5.558  13.643  0.00  0.00    +0.000 A 
ATOM     24  C   UNL     1       7.891   5.127  12.316  0.00  0.00    +0.000 A 
ATOM     25  C   UNL     1       7.066   4.118  11.838  0.00  0.00    +0.000 A 
ATOM     26  C   UNL     1       6.123   3.553  12.686  0.00  0.00    +0.000 A 
ATOM     27  F   UNL     1       5.327   2.573  12.233  0.00  0.00    +0.000 F 
ATOM     28  C   UNL     1       5.988   3.974  14.010  0.00  0.00    +0.000 A 
ENDBRANCH  21  22
ENDBRANCH  20  21
ENDBRANCH  17  20
ENDBRANCH  14  16
ENDBRANCH   5  12
BRANCH   1  29
ATOM     29  S   UNL     1       0.842   8.884  21.439  0.00  0.00    +0.000 S 
ATOM     30  O   UNL     1       1.793   9.300  22.451  0.00  0.00    +0.000 OA
ATOM     31  O   UNL     1      -0.505   8.506  21.793  0.00  0.00    +0.000 OA
BRANCH  29  33
ATOM     32  C   UNL     1      -0.479  10.109  19.423  0.00  0.00    +0.000 C 
ATOM     33  N   UNL     1       0.750  10.125  20.251  0.00  0.00    +0.000 NA
ATOM     34  C   UNL     1       0.980  11.481  20.817  0.00  0.00    +0.000 C 
ENDBRANCH  29  33
ENDBRANCH   1  29
TORSDOF 8
ENDMDL
MODEL 2
REMARK VINA RESULT:      -7.6      2.267      4.625
REMARK  Name = 
REMARK  10 active torsions:
REMARK  status: ('A' for Active; 'I' for Inactive)
REMARK    1  A    between atoms: C_1  and  N_2
REMARK    2  A    between atoms: N_2  and  C_3
REMARK    3  A    between atoms: N_2  and  S_4
REMARK    4  A    between atoms: S_4  and  C_7
REMARK    5  A    between atoms: C_10  and  N_11
REMARK    6  A    between atoms: C_16  and  C_17
REMARK    7  A    between atoms: N_19  and  N_20
REMARK    8  A    between atoms: C_21  and  C_23
REMARK    9  A    between atoms: C_23  and  O_24
REMARK   10  A    between atoms: O_24  and  C_25
REMARK                            x       y       z     vdW  Elec       q    Type
REMARK                         _______ _______ _______ _____ _____    ______ ____
ROOT
ATOM      1  C   UNL     1       3.018   4.460  19.893  0.00  0.00    +0.000 A 
ATOM      2  C   UNL     1       2.083   5.128  20.669  0.00  0.00    +0.000 A 
ATOM      3  C   UNL     1       1.750   6.456  20.359  0.00  0.00    +0.000 A 
ATOM      4  C   UNL     1       2.342   7.180  19.295  0.00  0.00    +0.000 A 
ATOM      5  C   UNL     1       3.287   6.456  18.501  0.00  0.00    +0.000 A 
ATOM      6  C   UNL     1       3.558   5.097  18.778  0.00  0.00    +0.000 A 
ENDROOT
BRANCH   4   7
ATOM      7  N   UNL     1       2.006   8.529  19.094  0.00  0.00    +0.000 N 
ATOM      8  C   UNL     1       1.542   9.405  20.186  0.00  0.00    +0.000 C 
ATOM      9  C   UNL     1       0.153   9.870  19.761  0.00  0.00    +0.000 C 
ATOM     10  C   UNL     1       0.297  10.006  18.262  0.00  0.00    +0.000 C 
ATOM     11  C   UNL     1       1.223   8.851  17.875  0.00  0.00    +0.000 C 
ENDBRANCH   4   7
BRANCH   5  12
ATOM     12  C   UNL     1       4.044   7.052  17.349  0.00  0.00    +0.000 C 
ATOM     13  O   UNL     1       3.475   7.511  16.362  0.00  0.00    +0.000 OA
ATOM     14  N   UNL     1       5.432   7.067  17.317  0.00  0.00    +0.000 N 
ATOM     15  H   UNL     1       5.816   7.524  16.496  0.00  0.00    +0.000 HD
BRANCH  14  16
ATOM     16  N   UNL     1       6.303   6.481  18.229  0.00  0.00    +0.000 N 
ATOM     17  C   UNL     1       6.764   5.186  18.097  0.00  0.00    +0.000 C 
ATOM     18  O   UNL     1       7.303   4.633  19.058  0.00  0.00    +0.000 OA
ATOM     19  H   UNL     1       6.398   6.901  19.150  0.00  0.00    +0.000 HD
BRANCH  17  20
ATOM     20  C   UNL     1       6.650   4.507  16.731  0.00  0.00    +0.000 C 
BRANCH  20  21
ATOM     21  O   UNL     1       7.340   5.229  15.722  0.00  0.00    +0.000 OA
BRANCH  21  22
ATOM     22  C   UNL     1       7.124   4.824  14.428  0.00  0.00    +0.000 A 
ATOM     23  C   UNL     1       7.847   5.529  13.458  0.00  0.00    +0.000 A 
ATOM     24  C   UNL     1       7.734   5.202  12.101  0.00  0.00    +0.000 A 
ATOM     25  C   UNL     1       6.897   4.165  11.708  0.00  0.00    +0.000 A 
ATOM     26  C   UNL     1       6.179   3.470  12.672  0.00  0.00    +0.000 A 
ATOM     27  F   UNL     1       5.374   2.465  12.299  0.00  0.00    +0.000 F 
ATOM     28  C   UNL     1       6.280   3.787  14.027  0.00  0.00    +0.000 A 
ENDBRANCH  21  22
ENDBRANCH  20  21
ENDBRANCH  17  20
ENDBRANCH  14  16
ENDBRANCH   5  12
BRANCH   1  29
ATOM     29  S   UNL     1       3.432   2.755  20.221  0.00  0.00    +0.000 S 
ATOM     30  O   UNL     1       2.900   2.438  21.531  0.00  0.00    +0.000 OA
ATOM     31  O   UNL     1       4.832   2.573  19.921  0.00  0.00    +0.000 OA
BRANCH  29  33
ATOM     32  C   UNL     1       1.073   2.195  19.024  0.00  0.00    +0.000 C 
ATOM     33  N   UNL     1       2.521   1.883  19.050  0.00  0.00    +0.000 NA
ATOM     34  C   UNL     1       3.100   1.979  17.684  0.00  0.00    +0.000 C 
ENDBRANCH  29  33
ENDBRANCH   1  29
TORSDOF 8
ENDMDL
MODEL 3
REMARK VINA RESULT:      -7.5      2.547      4.807
REMARK  Name = 
REMARK  10 active torsions:
REMARK  status: ('A' for Active; 'I' for Inactive)
REMARK    1  A    between atoms: C_1  and  N_2
REMARK    2  A    between atoms: N_2  and  C_3
REMARK    3  A    between atoms: N_2  and  S_4
REMARK    4  A    between atoms: S_4  and  C_7
REMARK    5  A    between atoms: C_10  and  N_11
REMARK    6  A    between atoms: C_16  and  C_17
REMARK    7  A    between atoms: N_19  and  N_20
REMARK    8  A    between atoms: C_21  and  C_23
REMARK    9  A    between atoms: C_23  and  O_24
REMARK   10  A    between atoms: O_24  and  C_25
REMARK                            x       y       z     vdW  Elec       q    Type
REMARK                         _______ _______ _______ _____ _____    ______ ____
ROOT
ATOM      1  C   UNL     1       2.987   4.334  20.066  0.00  0.00    +0.000 A 
ATOM      2  C   UNL     1       1.999   5.060  20.713  0.00  0.00    +0.000 A 
ATOM      3  C   UNL     1       1.741   6.382  20.317  0.00  0.00    +0.000 A 
ATOM      4  C   UNL     1       2.461   7.043  19.291  0.00  0.00    +0.000 A 
ATOM      5  C   UNL     1       3.460   6.261  18.630  0.00  0.00    +0.000 A 
ATOM      6  C   UNL     1       3.659   4.908  18.988  0.00  0.00    +0.000 A 
ENDROOT
BRANCH   4   7
ATOM      7  N   UNL     1       2.189   8.390  19.002  0.00  0.00    +0.000 N 
ATOM      8  C   UNL     1       1.675   9.334  20.012  0.00  0.00    +0.000 C 
ATOM      9  C   UNL     1       0.340   9.821  19.461  0.00  0.00    +0.000 C 
ATOM     10  C   UNL     1       0.601   9.878  17.972  0.00  0.00    +0.000 C 
ATOM     11  C   UNL     1       1.513   8.676  17.713  0.00  0.00    +0.000 C 
ENDBRANCH   4   7
BRANCH   5  12
ATOM     12  C   UNL     1       4.349   6.785  17.539  0.00  0.00    +0.000 C 
ATOM     13  O   UNL     1       3.928   7.017  16.409  0.00  0.00    +0.000 OA
ATOM     14  N   UNL     1       5.708   6.986  17.739  0.00  0.00    +0.000 N 
ATOM     15  H   UNL     1       6.186   7.371  16.930  0.00  0.00    +0.000 HD
BRANCH  14  16
ATOM     16  N   UNL     1       6.452   6.661  18.867  0.00  0.00    +0.000 N 
ATOM     17  C   UNL     1       7.233   5.525  18.947  0.00  0.00    +0.000 C 
ATOM     18  O   UNL     1       7.646   5.147  20.045  0.00  0.00    +0.000 OA
ATOM     19  H   UNL     1       6.219   7.109  19.750  0.00  0.00    +0.000 HD
BRANCH  17  20
ATOM     20  C   UNL     1       7.618   4.813  17.649  0.00  0.00    +0.000 C 
BRANCH  20  21
ATOM     21  O   UNL     1       6.477   4.401  16.912  0.00  0.00    +0.000 OA
BRANCH  21  22
ATOM     22  C   UNL     1       6.601   4.403  15.545  0.00  0.00    +0.000 A 
ATOM     23  C   UNL     1       5.650   3.636  14.862  0.00  0.00    +0.000 A 
ATOM     24  C   UNL     1       5.652   3.570  13.463  0.00  0.00    +0.000 A 
ATOM     25  C   UNL     1       6.606   4.274  12.740  0.00  0.00    +0.000 A 
ATOM     26  C   UNL     1       7.550   5.032  13.420  0.00  0.00    +0.000 A 
ATOM     27  F   UNL     1       8.470   5.719  12.727  0.00  0.00    +0.000 F 
ATOM     28  C   UNL     1       7.561   5.105  14.813  0.00  0.00    +0.000 A 
ENDBRANCH  21  22
ENDBRANCH  20  21
ENDBRANCH  17  20
ENDBRANCH  14  16
ENDBRANCH   5  12
BRANCH   1  29
ATOM     29  S   UNL     1       3.313   2.635  20.504  0.00  0.00    +0.000 S 
ATOM     30  O   UNL     1       2.620   2.383  21.751  0.00  0.00    +0.000 OA
ATOM     31  O   UNL     1       4.733   2.410  20.381  0.00  0.00    +0.000 OA
BRANCH  29  33
ATOM     32  C   UNL     1       1.191   2.251  18.873  0.00  0.00    +0.000 C 
ATOM     33  N   UNL     1       2.525   1.738  19.265  0.00  0.00    +0.000 NA
ATOM     34  C   UNL     1       3.380   1.540  18.065  0.00  0.00    +0.000 C 
ENDBRANCH  29  33
ENDBRANCH   1  29
TORSDOF 8
ENDMDL
MODEL 4
REMARK VINA RESULT:      -7.4      1.630      2.122
REMARK  Name = 
REMARK  10 active torsions:
REMARK  status: ('A' for Active; 'I' for Inactive)
REMARK    1  A    between atoms: C_1  and  N_2
REMARK    2  A    between atoms: N_2  and  C_3
REMARK    3  A    between atoms: N_2  and  S_4
REMARK    4  A    between atoms: S_4  and  C_7
REMARK    5  A    between atoms: C_10  and  N_11
REMARK    6  A    between atoms: C_16  and  C_17
REMARK    7  A    between atoms: N_19  and  N_20
REMARK    8  A    between atoms: C_21  and  C_23
REMARK    9  A    between atoms: C_23  and  O_24
REMARK   10  A    between atoms: O_24  and  C_25
REMARK                            x       y       z     vdW  Elec       q    Type
REMARK                         _______ _______ _______ _____ _____    ______ ____
ROOT
ATOM      1  C   UNL     1       1.968   8.590  18.559  0.00  0.00    +0.000 A 
ATOM      2  C   UNL     1       1.644   7.540  19.405  0.00  0.00    +0.000 A 
ATOM      3  C   UNL     1       2.334   6.323  19.292  0.00  0.00    +0.000 A 
ATOM      4  C   UNL     1       3.347   6.088  18.328  0.00  0.00    +0.000 A 
ATOM      5  C   UNL     1       3.672   7.197  17.485  0.00  0.00    +0.000 A 
ATOM      6  C   UNL     1       3.021   8.440  17.659  0.00  0.00    +0.000 A 
ENDROOT
BRANCH   4   7
ATOM      7  N   UNL     1       3.941   4.819  18.233  0.00  0.00    +0.000 N 
ATOM      8  C   UNL     1       3.583   3.849  17.181  0.00  0.00    +0.000 C 
ATOM      9  C   UNL     1       3.068   2.623  17.927  0.00  0.00    +0.000 C 
ATOM     10  C   UNL     1       3.945   2.597  19.159  0.00  0.00    +0.000 C 
ATOM     11  C   UNL     1       4.143   4.076  19.501  0.00  0.00    +0.000 C 
ENDBRANCH   4   7
BRANCH   5  12
ATOM     12  C   UNL     1       4.693   7.143  16.385  0.00  0.00    +0.000 C 
ATOM     13  O   UNL     1       4.376   7.180  15.199  0.00  0.00    +0.000 OA
ATOM     14  N   UNL     1       6.047   6.996  16.653  0.00  0.00    +0.000 N 
ATOM     15  H   UNL     1       6.629   7.003  15.821  0.00  0.00    +0.000 HD
BRANCH  14  16
ATOM     16  N   UNL     1       6.644   6.782  17.890  0.00  0.00    +0.000 N 
ATOM     17  C   UNL     1       7.139   5.552  18.279  0.00  0.00    +0.000 C 
ATOM     18  O   UNL     1       7.403   5.351  19.466  0.00  0.00    +0.000 OA
ATOM     19  H   UNL     1       6.480   7.456  18.633  0.00  0.00    +0.000 HD
BRANCH  17  20
ATOM     20  C   UNL     1       7.409   4.501  17.200  0.00  0.00    +0.000 C 
BRANCH  20  21
ATOM     21  O   UNL     1       7.885   5.087  15.998  0.00  0.00    +0.000 OA
BRANCH  21  22
ATOM     22  C   UNL     1       7.287   4.664  14.836  0.00  0.00    +0.000 A 
ATOM     23  C   UNL     1       6.134   3.890  15.011  0.00  0.00    +0.000 A 
ATOM     24  C   UNL     1       5.417   3.413  13.907  0.00  0.00    +0.000 A 
ATOM     25  C   UNL     1       5.850   3.709  12.621  0.00  0.00    +0.000 A 
ATOM     26  C   UNL     1       6.996   4.474  12.451  0.00  0.00    +0.000 A 
ATOM     27  F   UNL     1       7.417   4.769  11.212  0.00  0.00    +0.000 F 
ATOM     28  C   UNL     1       7.722   4.954  13.542  0.00  0.00    +0.000 A 
ENDBRANCH  21  22
ENDBRANCH  20  21
ENDBRANCH  17  20
ENDBRANCH  14  16
ENDBRANCH   5  12
BRANCH   1  29
ATOM     29  S   UNL     1       1.151  10.170  18.704  0.00  0.00    +0.000 S 
ATOM     30  O   UNL     1      -0.155  10.025  18.091  0.00  0.00    +0.000 OA
ATOM     31  O   UNL     1       2.073  11.189  18.262  0.00  0.00    +0.000 OA
BRANCH  29  33
ATOM     32  C   UNL     1       1.180  11.722  20.918  0.00  0.00    +0.000 C 
ATOM     33  N   UNL     1       0.926  10.357  20.400  0.00  0.00    +0.000 NA
ATOM     34  C   UNL     1      -0.397   9.862  20.863  0.00  0.00    +0.000 C 
ENDBRANCH  29  33
ENDBRANCH   1  29
TORSDOF 8
ENDMDL
MODEL 5
REMARK VINA RESULT:      -7.3      4.424      9.477
REMARK  Name = 
REMARK  10 active torsions:
REMARK  status: ('A' for Active; 'I' for Inactive)
REMARK    1  A    between atoms: C_1  and  N_2
REMARK    2  A    between atoms: N_2  and  C_3
REMARK    3  A    between atoms: N_2  and  S_4
REMARK    4  A    between atoms: S_4  and  C_7
REMARK    5  A    between atoms: C_10  and  N_11
REMARK    6  A    between atoms: C_16  and  C_17
REMARK    7  A    between atoms: N_19  and  N_20
REMARK    8  A    between atoms: C_21  and  C_23
REMARK    9  A    between atoms: C_23  and  O_24
REMARK   10  A    between atoms: O_24  and  C_25
REMARK                            x       y       z     vdW  Elec       q    Type
REMARK                         _______ _______ _______ _____ _____    ______ ____
ROOT
ATOM      1  C   UNL     1       2.786   6.366  18.678  0.00  0.00    +0.000 A 
ATOM      2  C   UNL     1       2.356   6.074  19.963  0.00  0.00    +0.000 A 
ATOM      3  C   UNL     1       1.678   7.054  20.705  0.00  0.00    +0.000 A 
ATOM      4  C   UNL     1       1.426   8.362  20.220  0.00  0.00    +0.000 A 
ATOM      5  C   UNL     1       1.865   8.626  18.884  0.00  0.00    +0.000 A 
ATOM      6  C   UNL     1       2.479   7.606  18.122  0.00  0.00    +0.000 A 
ENDROOT
BRANCH   4   7
ATOM      7  N   UNL     1       0.805   9.309  21.052  0.00  0.00    +0.000 N 
ATOM      8  C   UNL     1       1.404   9.772  22.317  0.00  0.00    +0.000 C 
ATOM      9  C   UNL     1       0.391   9.405  23.396  0.00  0.00    +0.000 C 
ATOM     10  C   UNL     1      -0.930   9.618  22.692  0.00  0.00    +0.000 C 
ATOM     11  C   UNL     1      -0.658   9.165  21.256  0.00  0.00    +0.000 C 
ENDBRANCH   4   7
BRANCH   5  12
ATOM     12  C   UNL     1       1.719   9.954  18.201  0.00  0.00    +0.000 C 
ATOM     13  O   UNL     1       2.625  10.784  18.187  0.00  0.00    +0.000 OA
ATOM     14  N   UNL     1       0.531  10.336  17.592  0.00  0.00    +0.000 N 
ATOM     15  H   UNL     1       0.577  11.245  17.143  0.00  0.00    +0.000 HD
BRANCH  14  16
ATOM     16  N   UNL     1      -0.678   9.650  17.599  0.00  0.00    +0.000 N 
ATOM     17  C   UNL     1      -1.882  10.258  17.898  0.00  0.00    +0.000 C 
ATOM     18  O   UNL     1      -2.866   9.562  18.156  0.00  0.00    +0.000 OA
ATOM     19  H   UNL     1      -0.662   8.635  17.654  0.00  0.00    +0.000 HD
BRANCH  17  20
ATOM     20  C   UNL     1      -1.965  11.784  17.827  0.00  0.00    +0.000 C 
BRANCH  20  21
ATOM     21  O   UNL     1      -1.010  12.406  18.674  0.00  0.00    +0.000 OA
BRANCH  21  22
ATOM     22  C   UNL     1      -1.387  12.597  19.980  0.00  0.00    +0.000 A 
ATOM     23  C   UNL     1      -0.345  12.924  20.856  0.00  0.00    +0.000 A 
ATOM     24  C   UNL     1      -0.597  13.164  22.212  0.00  0.00    +0.000 A 
ATOM     25  C   UNL     1      -1.896  13.081  22.699  0.00  0.00    +0.000 A 
ATOM     26  C   UNL     1      -2.926  12.754  21.828  0.00  0.00    +0.000 A 
ATOM     27  F   UNL     1      -4.183  12.678  22.290  0.00  0.00    +0.000 F 
ATOM     28  C   UNL     1      -2.689  12.509  20.475  0.00  0.00    +0.000 A 
ENDBRANCH  21  22
ENDBRANCH  20  21
ENDBRANCH  17  20
ENDBRANCH  14  16
ENDBRANCH   5  12
BRANCH   1  29
ATOM     29  S   UNL     1       3.605   5.132  17.682  0.00  0.00    +0.000 S 
ATOM     30  O   UNL     1       4.389   5.843  16.692  0.00  0.00    +0.000 OA
ATOM     31  O   UNL     1       2.618   4.154  17.289  0.00  0.00    +0.000 OA
BRANCH  29  33
ATOM     32  C   UNL     1       4.360   2.974  19.125  0.00  0.00    +0.000 C 
ATOM     33  N   UNL     1       4.691   4.377  18.782  0.00  0.00    +0.000 NA
ATOM     34  C   UNL     1       6.111   4.489  18.355  0.00  0.00    +0.000 C 
ENDBRANCH  29  33
ENDBRANCH   1  29
TORSDOF 8
ENDMDL
MODEL 6
REMARK VINA RESULT:      -7.3      4.547      5.447
REMARK  Name = 
REMARK  10 active torsions:
REMARK  status: ('A' for Active; 'I' for Inactive)
REMARK    1  A    between atoms: C_1  and  N_2
REMARK    2  A    between atoms: N_2  and  C_3
REMARK    3  A    between atoms: N_2  and  S_4
REMARK    4  A    between atoms: S_4  and  C_7
REMARK    5  A    between atoms: C_10  and  N_11
REMARK    6  A    between atoms: C_16  and  C_17
REMARK    7  A    between atoms: N_19  and  N_20
REMARK    8  A    between atoms: C_21  and  C_23
REMARK    9  A    between atoms: C_23  and  O_24
REMARK   10  A    between atoms: O_24  and  C_25
REMARK                            x       y       z     vdW  Elec       q    Type
REMARK                         _______ _______ _______ _____ _____    ______ ____
ROOT
ATOM      1  C   UNL     1       2.227   8.337  18.353  0.00  0.00    +0.000 A 
ATOM      2  C   UNL     1       1.906   7.311  19.229  0.00  0.00    +0.000 A 
ATOM      3  C   UNL     1       2.625   6.107  19.176  0.00  0.00    +0.000 A 
ATOM      4  C   UNL     1       3.664   5.859  18.244  0.00  0.00    +0.000 A 
ATOM      5  C   UNL     1       3.984   6.944  17.368  0.00  0.00    +0.000 A 
ATOM      6  C   UNL     1       3.303   8.177  17.482  0.00  0.00    +0.000 A 
ENDROOT
BRANCH   4   7
ATOM      7  N   UNL     1       4.287   4.601  18.208  0.00  0.00    +0.000 N 
ATOM      8  C   UNL     1       3.941   3.569  17.213  0.00  0.00    +0.000 C 
ATOM      9  C   UNL     1       3.463   2.373  18.028  0.00  0.00    +0.000 C 
ATOM     10  C   UNL     1       4.353   2.431  19.249  0.00  0.00    +0.000 C 
ATOM     11  C   UNL     1       4.519   3.930  19.511  0.00  0.00    +0.000 C 
ENDBRANCH   4   7
BRANCH   5  12
ATOM     12  C   UNL     1       5.030   6.873  16.294  0.00  0.00    +0.000 C 
ATOM     13  O   UNL     1       4.739   6.825  15.101  0.00  0.00    +0.000 OA
ATOM     14  N   UNL     1       6.384   6.804  16.595  0.00  0.00    +0.000 N 
ATOM     15  H   UNL     1       6.983   6.789  15.777  0.00  0.00    +0.000 HD
BRANCH  14  16
ATOM     16  N   UNL     1       6.962   6.690  17.854  0.00  0.00    +0.000 N 
ATOM     17  C   UNL     1       8.010   7.487  18.272  0.00  0.00    +0.000 C 
ATOM     18  O   UNL     1       8.656   7.168  19.272  0.00  0.00    +0.000 OA
ATOM     19  H   UNL     1       6.807   5.837  18.386  0.00  0.00    +0.000 HD
BRANCH  17  20
ATOM     20  C   UNL     1       8.286   8.785  17.510  0.00  0.00    +0.000 C 
BRANCH  20  21
ATOM     21  O   UNL     1       7.945   9.931  18.276  0.00  0.00    +0.000 OA
BRANCH  21  22
ATOM     22  C   UNL     1       8.944  10.850  18.475  0.00  0.00    +0.000 A 
ATOM     23  C   UNL     1       8.834  12.020  17.715  0.00  0.00    +0.000 A 
ATOM     24  C   UNL     1       9.778  13.048  17.838  0.00  0.00    +0.000 A 
ATOM     25  C   UNL     1      10.837  12.910  18.727  0.00  0.00    +0.000 A 
ATOM     26  C   UNL     1      10.946  11.747  19.477  0.00  0.00    +0.000 A 
ATOM     27  F   UNL     1      11.962  11.610  20.341  0.00  0.00    +0.000 F 
ATOM     28  C   UNL     1      10.014  10.715  19.362  0.00  0.00    +0.000 A 
ENDBRANCH  21  22
ENDBRANCH  20  21
ENDBRANCH  17  20
ENDBRANCH  14  16
ENDBRANCH   5  12
BRANCH   1  29
ATOM     29  S   UNL     1       1.374   9.903  18.422  0.00  0.00    +0.000 S 
ATOM     30  O   UNL     1       0.110   9.723  17.734  0.00  0.00    +0.000 OA
ATOM     31  O   UNL     1       2.301  10.932  18.019  0.00  0.00    +0.000 OA
BRANCH  29  33
ATOM     32  C   UNL     1       1.281  11.480  20.616  0.00  0.00    +0.000 C 
ATOM     33  N   UNL     1       1.044  10.112  20.097  0.00  0.00    +0.000 NA
ATOM     34  C   UNL     1      -0.312   9.638  20.481  0.00  0.00    +0.000 C 
ENDBRANCH  29  33
ENDBRANCH   1  29
TORSDOF 8
ENDMDL
MODEL 7
REMARK VINA RESULT:      -7.2      4.173      5.291
REMARK  Name = 
REMARK  10 active torsions:
REMARK  status: ('A' for Active; 'I' for Inactive)
REMARK    1  A    between atoms: C_1  and  N_2
REMARK    2  A    between atoms: N_2  and  C_3
REMARK    3  A    between atoms: N_2  and  S_4
REMARK    4  A    between atoms: S_4  and  C_7
REMARK    5  A    between atoms: C_10  and  N_11
REMARK    6  A    between atoms: C_16  and  C_17
REMARK    7  A    between atoms: N_19  and  N_20
REMARK    8  A    between atoms: C_21  and  C_23
REMARK    9  A    between atoms: C_23  and  O_24
REMARK   10  A    between atoms: O_24  and  C_25
REMARK                            x       y       z     vdW  Elec       q    Type
REMARK                         _______ _______ _______ _____ _____    ______ ____
ROOT
ATOM      1  C   UNL     1       2.191   8.304  18.335  0.00  0.00    +0.000 A 
ATOM      2  C   UNL     1       1.832   7.264  19.179  0.00  0.00    +0.000 A 
ATOM      3  C   UNL     1       2.534   6.050  19.116  0.00  0.00    +0.000 A 
ATOM      4  C   UNL     1       3.592   5.807  18.206  0.00  0.00    +0.000 A 
ATOM      5  C   UNL     1       3.951   6.906  17.363  0.00  0.00    +0.000 A 
ATOM      6  C   UNL     1       3.286   8.147  17.488  0.00  0.00    +0.000 A 
ENDROOT
BRANCH   4   7
ATOM      7  N   UNL     1       4.197   4.541  18.157  0.00  0.00    +0.000 N 
ATOM      8  C   UNL     1       3.854   3.533  17.136  0.00  0.00    +0.000 C 
ATOM      9  C   UNL     1       3.344   2.329  17.920  0.00  0.00    +0.000 C 
ATOM     10  C   UNL     1       4.212   2.351  19.158  0.00  0.00    +0.000 C 
ATOM     11  C   UNL     1       4.396   3.842  19.451  0.00  0.00    +0.000 C 
ENDBRANCH   4   7
BRANCH   5  12
ATOM     12  C   UNL     1       5.023   6.842  16.314  0.00  0.00    +0.000 C 
ATOM     13  O   UNL     1       4.785   7.038  15.125  0.00  0.00    +0.000 OA
ATOM     14  N   UNL     1       6.334   6.508  16.629  0.00  0.00    +0.000 N 
ATOM     15  H   UNL     1       6.962   6.530  15.832  0.00  0.00    +0.000 HD
BRANCH  14  16
ATOM     16  N   UNL     1       6.827   6.098  17.862  0.00  0.00    +0.000 N 
ATOM     17  C   UNL     1       7.820   6.782  18.536  0.00  0.00    +0.000 C 
ATOM     18  O   UNL     1       8.404   6.237  19.474  0.00  0.00    +0.000 OA
ATOM     19  H   UNL     1       6.660   5.141  18.160  0.00  0.00    +0.000 HD
BRANCH  17  20
ATOM     20  C   UNL     1       8.111   8.229  18.132  0.00  0.00    +0.000 C 
BRANCH  20  21
ATOM     21  O   UNL     1       9.134   8.806  18.930  0.00  0.00    +0.000 OA
BRANCH  21  22
ATOM     22  C   UNL     1       9.134  10.175  19.024  0.00  0.00    +0.000 A 
ATOM     23  C   UNL     1       9.365  10.681  20.309  0.00  0.00    +0.000 A 
ATOM     24  C   UNL     1       9.410  12.062  20.538  0.00  0.00    +0.000 A 
ATOM     25  C   UNL     1       9.227  12.944  19.481  0.00  0.00    +0.000 A 
ATOM     26  C   UNL     1       8.995  12.440  18.209  0.00  0.00    +0.000 A 
ATOM     27  F   UNL     1       8.823  13.286  17.183  0.00  0.00    +0.000 F 
ATOM     28  C   UNL     1       8.944  11.066  17.966  0.00  0.00    +0.000 A 
ENDBRANCH  21  22
ENDBRANCH  20  21
ENDBRANCH  17  20
ENDBRANCH  14  16
ENDBRANCH   5  12
BRANCH   1  29
ATOM     29  S   UNL     1       1.359   9.880  18.417  0.00  0.00    +0.000 S 
ATOM     30  O   UNL     1       0.097   9.727  17.721  0.00  0.00    +0.000 OA
ATOM     31  O   UNL     1       2.304  10.901  18.031  0.00  0.00    +0.000 OA
BRANCH  29  33
ATOM     32  C   UNL     1       1.282  11.432  20.630  0.00  0.00    +0.000 C 
ATOM     33  N   UNL     1       1.023  10.075  20.093  0.00  0.00    +0.000 NA
ATOM     34  C   UNL     1      -0.344   9.621  20.463  0.00  0.00    +0.000 C 
ENDBRANCH  29  33
ENDBRANCH   1  29
TORSDOF 8
ENDMDL
MODEL 8
REMARK VINA RESULT:      -7.2      4.544      7.542
REMARK  Name = 
REMARK  10 active torsions:
REMARK  status: ('A' for Active; 'I' for Inactive)
REMARK    1  A    between atoms: C_1  and  N_2
REMARK    2  A    between atoms: N_2  and  C_3
REMARK    3  A    between atoms: N_2  and  S_4
REMARK    4  A    between atoms: S_4  and  C_7
REMARK    5  A    between atoms: C_10  and  N_11
REMARK    6  A    between atoms: C_16  and  C_17
REMARK    7  A    between atoms: N_19  and  N_20
REMARK    8  A    between atoms: C_21  and  C_23
REMARK    9  A    between atoms: C_23  and  O_24
REMARK   10  A    between atoms: O_24  and  C_25
REMARK                            x       y       z     vdW  Elec       q    Type
REMARK                         _______ _______ _______ _____ _____    ______ ____
ROOT
ATOM      1  C   UNL     1       1.082  13.699  19.519  0.00  0.00    +0.000 A 
ATOM      2  C   UNL     1       0.049  14.048  18.661  0.00  0.00    +0.000 A 
ATOM      3  C   UNL     1      -0.930  13.096  18.336  0.00  0.00    +0.000 A 
ATOM      4  C   UNL     1      -0.914  11.764  18.821  0.00  0.00    +0.000 A 
ATOM      5  C   UNL     1       0.152  11.443  19.719  0.00  0.00    +0.000 A 
ATOM      6  C   UNL     1       1.089  12.432  20.096  0.00  0.00    +0.000 A 
ENDROOT
BRANCH   4   7
ATOM      7  N   UNL     1      -1.892  10.851  18.393  0.00  0.00    +0.000 N 
ATOM      8  C   UNL     1      -1.701   9.968  17.227  0.00  0.00    +0.000 C 
ATOM      9  C   UNL     1      -2.823  10.332  16.262  0.00  0.00    +0.000 C 
ATOM     10  C   UNL     1      -3.971  10.644  17.197  0.00  0.00    +0.000 C 
ATOM     11  C   UNL     1      -3.297  11.326  18.390  0.00  0.00    +0.000 C 
ENDBRANCH   4   7
BRANCH   5  12
ATOM     12  C   UNL     1       0.363  10.082  20.318  0.00  0.00    +0.000 C 
ATOM     13  O   UNL     1      -0.114   9.768  21.406  0.00  0.00    +0.000 OA
ATOM     14  N   UNL     1       1.151   9.124  19.695  0.00  0.00    +0.000 N 
ATOM     15  H   UNL     1       1.185   8.239  20.192  0.00  0.00    +0.000 HD
BRANCH  14  16
ATOM     16  N   UNL     1       1.916   9.279  18.545  0.00  0.00    +0.000 N 
ATOM     17  C   UNL     1       2.497   8.215  17.884  0.00  0.00    +0.000 C 
ATOM     18  O   UNL     1       3.375   8.427  17.045  0.00  0.00    +0.000 OA
ATOM     19  H   UNL     1       2.287  10.200  18.328  0.00  0.00    +0.000 HD
BRANCH  17  20
ATOM     20  C   UNL     1       1.974   6.806  18.169  0.00  0.00    +0.000 C 
BRANCH  20  21
ATOM     21  O   UNL     1       2.579   6.239  19.321  0.00  0.00    +0.000 OA
BRANCH  21  22
ATOM     22  C   UNL     1       2.120   5.003  19.705  0.00  0.00    +0.000 A 
ATOM     23  C   UNL     1       2.399   4.653  21.031  0.00  0.00    +0.000 A 
ATOM     24  C   UNL     1       1.969   3.427  21.555  0.00  0.00    +0.000 A 
ATOM     25  C   UNL     1       1.255   2.546  20.753  0.00  0.00    +0.000 A 
ATOM     26  C   UNL     1       0.982   2.895  19.437  0.00  0.00    +0.000 A 
ATOM     27  F   UNL     1       0.288   2.051  18.659  0.00  0.00    +0.000 F 
ATOM     28  C   UNL     1       1.407   4.112  18.902  0.00  0.00    +0.000 A 
ENDBRANCH  21  22
ENDBRANCH  20  21
ENDBRANCH  17  20
ENDBRANCH  14  16
ENDBRANCH   5  12
BRANCH   1  29
ATOM     29  S   UNL     1       2.318  14.894  19.997  0.00  0.00    +0.000 S 
ATOM     30  O   UNL     1       3.209  14.227  20.926  0.00  0.00    +0.000 OA
ATOM     31  O   UNL     1       1.638  16.114  20.363  0.00  0.00    +0.000 OA
BRANCH  29  33
ATOM     32  C   UNL     1       3.224  16.603  18.109  0.00  0.00    +0.000 C 
ATOM     33  N   UNL     1       3.186  15.187  18.541  0.00  0.00    +0.000 NA
ATOM     34  C   UNL     1       4.557  14.611  18.563  0.00  0.00    +0.000 C 
ENDBRANCH  29  33
ENDBRANCH   1  29
TORSDOF 8
ENDMDL
MODEL 9
REMARK VINA RESULT:      -7.1      1.906      2.511
REMARK  Name = 
REMARK  10 active torsions:
REMARK  status: ('A' for Active; 'I' for Inactive)
REMARK    1  A    between atoms: C_1  and  N_2
REMARK    2  A    between atoms: N_2  and  C_3
REMARK    3  A    between atoms: N_2  and  S_4
REMARK    4  A    between atoms: S_4  and  C_7
REMARK    5  A    between atoms: C_10  and  N_11
REMARK    6  A    between atoms: C_16  and  C_17
REMARK    7  A    between atoms: N_19  and  N_20
REMARK    8  A    between atoms: C_21  and  C_23
REMARK    9  A    between atoms: C_23  and  O_24
REMARK   10  A    between atoms: O_24  and  C_25
REMARK                            x       y       z     vdW  Elec       q    Type
REMARK                         _______ _______ _______ _____ _____    ______ ____
ROOT
ATOM      1  C   UNL     1       1.591   8.553  19.071  0.00  0.00    +0.000 A 
ATOM      2  C   UNL     1       1.270   8.298  20.395  0.00  0.00    +0.000 A 
ATOM      3  C   UNL     1       1.547   7.036  20.943  0.00  0.00    +0.000 A 
ATOM      4  C   UNL     1       2.122   5.974  20.202  0.00  0.00    +0.000 A 
ATOM      5  C   UNL     1       2.460   6.275  18.845  0.00  0.00    +0.000 A 
ATOM      6  C   UNL     1       2.245   7.573  18.328  0.00  0.00    +0.000 A 
ENDROOT
BRANCH   4   7
ATOM      7  N   UNL     1       2.302   4.717  20.803  0.00  0.00    +0.000 N 
ATOM      8  C   UNL     1       3.549   3.941  20.668  0.00  0.00    +0.000 C 
ATOM      9  C   UNL     1       3.134   2.629  20.012  0.00  0.00    +0.000 C 
ATOM     10  C   UNL     1       1.771   2.377  20.618  0.00  0.00    +0.000 C 
ATOM     11  C   UNL     1       1.159   3.774  20.741  0.00  0.00    +0.000 C 
ENDBRANCH   4   7
BRANCH   5  12
ATOM     12  C   UNL     1       3.050   5.280  17.887  0.00  0.00    +0.000 C 
ATOM     13  O   UNL     1       2.356   4.470  17.278  0.00  0.00    +0.000 OA
ATOM     14  N   UNL     1       4.420   5.190  17.680  0.00  0.00    +0.000 N 
ATOM     15  H   UNL     1       4.682   4.496  16.987  0.00  0.00    +0.000 HD
BRANCH  14  16
ATOM     16  N   UNL     1       5.422   5.881  18.352  0.00  0.00    +0.000 N 
ATOM     17  C   UNL     1       6.765   5.695  18.089  0.00  0.00    +0.000 C 
ATOM     18  O   UNL     1       7.605   6.118  18.886  0.00  0.00    +0.000 OA
ATOM     19  H   UNL     1       5.195   6.331  19.235  0.00  0.00    +0.000 HD
BRANCH  17  20
ATOM     20  C   UNL     1       7.164   5.027  16.772  0.00  0.00    +0.000 C 
BRANCH  20  21
ATOM     21  O   UNL     1       6.639   5.716  15.648  0.00  0.00    +0.000 OA
BRANCH  21  22
ATOM     22  C   UNL     1       6.447   4.971  14.511  0.00  0.00    +0.000 A 
ATOM     23  C   UNL     1       5.221   4.298  14.444  0.00  0.00    +0.000 A 
ATOM     24  C   UNL     1       4.892   3.519  13.327  0.00  0.00    +0.000 A 
ATOM     25  C   UNL     1       5.788   3.412  12.271  0.00  0.00    +0.000 A 
ATOM     26  C   UNL     1       7.003   4.078  12.342  0.00  0.00    +0.000 A 
ATOM     27  F   UNL     1       7.870   3.984  11.323  0.00  0.00    +0.000 F 
ATOM     28  C   UNL     1       7.345   4.855  13.449  0.00  0.00    +0.000 A 
ENDBRANCH  21  22
ENDBRANCH  20  21
ENDBRANCH  17  20
ENDBRANCH  14  16
ENDBRANCH   5  12
BRANCH   1  29
ATOM     29  S   UNL     1       1.304  10.161  18.351  0.00  0.00    +0.000 S 
ATOM     30  O   UNL     1      -0.000  10.111  17.719  0.00  0.00    +0.000 OA
ATOM     31  O   UNL     1       2.481  10.528  17.602  0.00  0.00    +0.000 OA
BRANCH  29  33
ATOM     32  C   UNL     1       1.906  12.496  19.572  0.00  0.00    +0.000 C 
ATOM     33  N   UNL     1       1.196  11.204  19.715  0.00  0.00    +0.000 NA
ATOM     34  C   UNL     1      -0.205  11.425  20.161  0.00  0.00    +0.000 C 
ENDBRANCH  29  33
ENDBRANCH   1  29
TORSDOF 8
ENDMDL
