MODEL 1
REMARK VINA RESULT:      -6.6      0.000      0.000
REMARK  Name = 
REMARK  4 active torsions:
REMARK  status: ('A' for Active; 'I' for Inactive)
REMARK    1  A    between atoms: C_1  and  C_2
REMARK    2  A    between atoms: C_2  and  N_3
REMARK    3  A    between atoms: C_5  and  C_6
REMARK    4  A    between atoms: C_12  and  N_13
REMARK                            x       y       z     vdW  Elec       q    Type
REMARK                         _______ _______ _______ _____ _____    ______ ____
ROOT
ATOM      1  N   UNL     1       4.649   5.400  17.162  0.00  0.00    +0.000 N 
ATOM      2  C   UNL     1       4.173   6.708  17.260  0.00  0.00    +0.000 C 
ATOM      3  C   UNL     1       3.016   7.038  17.861  0.00  0.00    +0.000 C 
ATOM      4  C   UNL     1       2.502   8.439  17.974  0.00  0.00    +0.000 C 
ATOM      5  C   UNL     1       2.231   5.985  18.485  0.00  0.00    +0.000 C 
ATOM      6  C   UNL     1       2.619   4.701  18.435  0.00  0.00    +0.000 C 
ATOM      7  C   UNL     1       1.927   3.652  19.206  0.00  0.00    +0.000 C 
ATOM      8  O   UNL     1       0.900   3.843  19.844  0.00  0.00    +0.000 OA
ATOM      9  N   UNL     1       2.626   2.474  19.213  0.00  0.00    +0.000 N 
ATOM     10  C   UNL     1       3.247   2.125  17.996  0.00  0.00    +0.000 C 
ATOM     11  N   UNL     1       4.211   3.101  17.549  0.00  0.00    +0.000 NA
ATOM     12  C   UNL     1       3.875   4.348  17.686  0.00  0.00    +0.000 C 
ATOM     13  H   UNL     1       3.346   2.469  19.919  0.00  0.00    +0.000 HD
ENDROOT
BRANCH  10  14
ATOM     14  N   UNL     1       3.893   0.895  18.324  0.00  0.00    +0.000 NA
ATOM     15  H   UNL     1       4.504   0.662  17.547  0.00  0.00    +0.000 HD
ATOM     16  H   UNL     1       3.172   0.178  18.357  0.00  0.00    +0.000 HD
ENDBRANCH  10  14
BRANCH   1  18
ATOM     17  C   UNL     1       5.812   5.205  15.002  0.00  0.00    +0.000 C 
ATOM     18  C   UNL     1       5.938   5.122  16.517  0.00  0.00    +0.000 C 
ENDBRANCH   1  18
TORSDOF 2
ENDMDL
MODEL 2
REMARK VINA RESULT:      -6.5      1.323      1.448
REMARK  Name = 
REMARK  4 active torsions:
REMARK  status: ('A' for Active; 'I' for Inactive)
REMARK    1  A    between atoms: C_1  and  C_2
REMARK    2  A    between atoms: C_2  and  N_3
REMARK    3  A    between atoms: C_5  and  C_6
REMARK    4  A    between atoms: C_12  and  N_13
REMARK                            x       y       z     vdW  Elec       q    Type
REMARK                         _______ _______ _______ _____ _____    ______ ____
ROOT
ATOM      1  N   UNL     1       5.004   5.922  17.786  0.00  0.00    +0.000 N 
ATOM      2  C   UNL     1       4.292   7.095  17.534  0.00  0.00    +0.000 C 
ATOM      3  C   UNL     1       3.048   7.326  17.989  0.00  0.00    +0.000 C 
ATOM      4  C   UNL     1       2.281   8.584  17.727  0.00  0.00    +0.000 C 
ATOM      5  C   UNL     1       2.416   6.320  18.828  0.00  0.00    +0.000 C 
ATOM      6  C   UNL     1       3.033   5.163  19.116  0.00  0.00    +0.000 C 
ATOM      7  C   UNL     1       2.480   4.214  20.099  0.00  0.00    +0.000 C 
ATOM      8  O   UNL     1       1.385   4.346  20.631  0.00  0.00    +0.000 OA
ATOM      9  N   UNL     1       3.377   3.232  20.428  0.00  0.00    +0.000 N 
ATOM     10  C   UNL     1       4.152   2.732  19.362  0.00  0.00    +0.000 C 
ATOM     11  N   UNL     1       4.957   3.742  18.720  0.00  0.00    +0.000 NA
ATOM     12  C   UNL     1       4.392   4.894  18.527  0.00  0.00    +0.000 C 
ATOM     13  H   UNL     1       4.024   3.538  21.140  0.00  0.00    +0.000 HD
ENDROOT
BRANCH  10  14
ATOM     14  N   UNL     1       4.980   1.767  20.012  0.00  0.00    +0.000 NA
ATOM     15  H   UNL     1       5.555   2.270  20.681  0.00  0.00    +0.000 HD
ATOM     16  H   UNL     1       5.610   1.390  19.308  0.00  0.00    +0.000 HD
ENDBRANCH  10  14
BRANCH   1  18
ATOM     17  C   UNL     1       7.177   7.033  17.471  0.00  0.00    +0.000 C 
ATOM     18  C   UNL     1       6.372   5.756  17.279  0.00  0.00    +0.000 C 
ENDBRANCH   1  18
TORSDOF 2
ENDMDL
MODEL 3
REMARK VINA RESULT:      -6.5      2.436      3.615
REMARK  Name = 
REMARK  4 active torsions:
REMARK  status: ('A' for Active; 'I' for Inactive)
REMARK    1  A    between atoms: C_1  and  C_2
REMARK    2  A    between atoms: C_2  and  N_3
REMARK    3  A    between atoms: C_5  and  C_6
REMARK    4  A    between atoms: C_12  and  N_13
REMARK                            x       y       z     vdW  Elec       q    Type
REMARK                         _______ _______ _______ _____ _____    ______ ____
ROOT
ATOM      1  N   UNL     1       6.363   5.462  17.631  0.00  0.00    +0.000 N 
ATOM      2  C   UNL     1       6.762   5.067  16.353  0.00  0.00    +0.000 C 
ATOM      3  C   UNL     1       6.000   4.326  15.529  0.00  0.00    +0.000 C 
ATOM      4  C   UNL     1       6.420   3.903  14.156  0.00  0.00    +0.000 C 
ATOM      5  C   UNL     1       4.667   3.946  15.968  0.00  0.00    +0.000 C 
ATOM      6  C   UNL     1       4.208   4.286  17.183  0.00  0.00    +0.000 C 
ATOM      7  C   UNL     1       2.805   4.057  17.572  0.00  0.00    +0.000 C 
ATOM      8  O   UNL     1       1.997   3.451  16.881  0.00  0.00    +0.000 OA
ATOM      9  N   UNL     1       2.485   4.696  18.741  0.00  0.00    +0.000 N 
ATOM     10  C   UNL     1       3.480   4.675  19.740  0.00  0.00    +0.000 C 
ATOM     11  N   UNL     1       4.714   5.296  19.327  0.00  0.00    +0.000 NA
ATOM     12  C   UNL     1       5.110   5.045  18.117  0.00  0.00    +0.000 C 
ATOM     13  H   UNL     1       2.248   5.665  18.587  0.00  0.00    +0.000 HD
ENDROOT
BRANCH  10  14
ATOM     14  N   UNL     1       2.870   5.419  20.795  0.00  0.00    +0.000 NA
ATOM     15  H   UNL     1       2.218   6.068  20.364  0.00  0.00    +0.000 HD
ATOM     16  H   UNL     1       3.601   5.979  21.227  0.00  0.00    +0.000 HD
ENDBRANCH  10  14
BRANCH   1  18
ATOM     17  C   UNL     1       7.638   7.565  17.718  0.00  0.00    +0.000 C 
ATOM     18  C   UNL     1       7.240   6.298  18.460  0.00  0.00    +0.000 C 
ENDBRANCH   1  18
TORSDOF 2
ENDMDL
MODEL 4
REMARK VINA RESULT:      -6.4      1.728      3.352
REMARK  Name = 
REMARK  4 active torsions:
REMARK  status: ('A' for Active; 'I' for Inactive)
REMARK    1  A    between atoms: C_1  and  C_2
REMARK    2  A    between atoms: C_2  and  N_3
REMARK    3  A    between atoms: C_5  and  C_6
REMARK    4  A    between atoms: C_12  and  N_13
REMARK                            x       y       z     vdW  Elec       q    Type
REMARK                         _______ _______ _______ _____ _____    ______ ____
ROOT
ATOM      1  N   UNL     1       3.184   6.056  18.360  0.00  0.00    +0.000 N 
ATOM      2  C   UNL     1       4.100   6.213  17.320  0.00  0.00    +0.000 C 
ATOM      3  C   UNL     1       4.767   5.193  16.752  0.00  0.00    +0.000 C 
ATOM      4  C   UNL     1       5.748   5.354  15.633  0.00  0.00    +0.000 C 
ATOM      5  C   UNL     1       4.492   3.840  17.211  0.00  0.00    +0.000 C 
ATOM      6  C   UNL     1       3.624   3.604  18.208  0.00  0.00    +0.000 C 
ATOM      7  C   UNL     1       3.209   2.235  18.565  0.00  0.00    +0.000 C 
ATOM      8  O   UNL     1       3.697   1.226  18.072  0.00  0.00    +0.000 OA
ATOM      9  N   UNL     1       2.143   2.229  19.425  0.00  0.00    +0.000 N 
ATOM     10  C   UNL     1       2.165   3.217  20.431  0.00  0.00    +0.000 C 
ATOM     11  N   UNL     1       2.186   4.561  19.908  0.00  0.00    +0.000 NA
ATOM     12  C   UNL     1       2.953   4.770  18.882  0.00  0.00    +0.000 C 
ATOM     13  H   UNL     1       1.266   2.331  18.937  0.00  0.00    +0.000 HD
ENDROOT
BRANCH  10  14
ATOM     14  N   UNL     1       0.945   2.968  21.130  0.00  0.00    +0.000 NA
ATOM     15  H   UNL     1       0.241   2.749  20.433  0.00  0.00    +0.000 HD
ATOM     16  H   UNL     1       0.666   3.845  21.565  0.00  0.00    +0.000 HD
ENDBRANCH  10  14
BRANCH   1  18
ATOM     17  C   UNL     1       2.416   8.346  17.890  0.00  0.00    +0.000 C 
ATOM     18  C   UNL     1       2.472   7.217  18.909  0.00  0.00    +0.000 C 
ENDBRANCH   1  18
TORSDOF 2
ENDMDL
MODEL 5
REMARK VINA RESULT:      -6.3      1.243      1.268
REMARK  Name = 
REMARK  4 active torsions:
REMARK  status: ('A' for Active; 'I' for Inactive)
REMARK    1  A    between atoms: C_1  and  C_2
REMARK    2  A    between atoms: C_2  and  N_3
REMARK    3  A    between atoms: C_5  and  C_6
REMARK    4  A    between atoms: C_12  and  N_13
REMARK                            x       y       z     vdW  Elec       q    Type
REMARK                         _______ _______ _______ _____ _____    ______ ____
ROOT
ATOM      1  N   UNL     1       4.768   5.227  18.349  0.00  0.00    +0.000 N 
ATOM      2  C   UNL     1       4.145   6.471  18.242  0.00  0.00    +0.000 C 
ATOM      3  C   UNL     1       2.819   6.631  18.083  0.00  0.00    +0.000 C 
ATOM      4  C   UNL     1       2.144   7.962  17.974  0.00  0.00    +0.000 C 
ATOM      5  C   UNL     1       1.973   5.447  18.064  0.00  0.00    +0.000 C 
ATOM      6  C   UNL     1       2.495   4.214  18.160  0.00  0.00    +0.000 C 
ATOM      7  C   UNL     1       1.641   3.022  18.314  0.00  0.00    +0.000 C 
ATOM      8  O   UNL     1       0.419   3.048  18.251  0.00  0.00    +0.000 OA
ATOM      9  N   UNL     1       2.367   1.909  18.643  0.00  0.00    +0.000 N 
ATOM     10  C   UNL     1       3.610   1.775  17.990  0.00  0.00    +0.000 C 
ATOM     11  N   UNL     1       4.511   2.871  18.251  0.00  0.00    +0.000 NA
ATOM     12  C   UNL     1       3.988   4.059  18.254  0.00  0.00    +0.000 C 
ATOM     13  H   UNL     1       2.553   1.861  19.634  0.00  0.00    +0.000 HD
ENDROOT
BRANCH  10  14
ATOM     14  N   UNL     1       4.119   0.562  18.546  0.00  0.00    +0.000 NA
ATOM     15  H   UNL     1       3.319  -0.017  18.781  0.00  0.00    +0.000 HD
ATOM     16  H   UNL     1       4.575   0.804  19.423  0.00  0.00    +0.000 HD
ENDBRANCH  10  14
BRANCH   1  18
ATOM     17  C   UNL     1       6.954   6.107  17.638  0.00  0.00    +0.000 C 
ATOM     18  C   UNL     1       6.219   5.135  18.551  0.00  0.00    +0.000 C 
ENDBRANCH   1  18
TORSDOF 2
ENDMDL
MODEL 6
REMARK VINA RESULT:      -6.3      1.639      1.930
REMARK  Name = 
REMARK  4 active torsions:
REMARK  status: ('A' for Active; 'I' for Inactive)
REMARK    1  A    between atoms: C_1  and  C_2
REMARK    2  A    between atoms: C_2  and  N_3
REMARK    3  A    between atoms: C_5  and  C_6
REMARK    4  A    between atoms: C_12  and  N_13
REMARK                            x       y       z     vdW  Elec       q    Type
REMARK                         _______ _______ _______ _____ _____    ______ ____
ROOT
ATOM      1  N   UNL     1       3.481   5.633  18.267  0.00  0.00    +0.000 N 
ATOM      2  C   UNL     1       2.894   6.749  18.865  0.00  0.00    +0.000 C 
ATOM      3  C   UNL     1       2.179   6.698  20.003  0.00  0.00    +0.000 C 
ATOM      4  C   UNL     1       1.552   7.892  20.652  0.00  0.00    +0.000 C 
ATOM      5  C   UNL     1       2.040   5.418  20.680  0.00  0.00    +0.000 C 
ATOM      6  C   UNL     1       2.574   4.297  20.170  0.00  0.00    +0.000 C 
ATOM      7  C   UNL     1       2.588   3.033  20.928  0.00  0.00    +0.000 C 
ATOM      8  O   UNL     1       2.027   2.879  22.005  0.00  0.00    +0.000 OA
ATOM      9  N   UNL     1       3.391   2.090  20.341  0.00  0.00    +0.000 N 
ATOM     10  C   UNL     1       3.342   2.039  18.933  0.00  0.00    +0.000 C 
ATOM     11  N   UNL     1       3.736   3.276  18.304  0.00  0.00    +0.000 NA
ATOM     12  C   UNL     1       3.299   4.367  18.854  0.00  0.00    +0.000 C 
ATOM     13  H   UNL     1       4.360   2.213  20.595  0.00  0.00    +0.000 HD
ENDROOT
BRANCH  10  14
ATOM     14  N   UNL     1       4.277   1.002  18.633  0.00  0.00    +0.000 NA
ATOM     15  H   UNL     1       3.790   0.317  18.063  0.00  0.00    +0.000 HD
ATOM     16  H   UNL     1       4.508   0.543  19.511  0.00  0.00    +0.000 HD
ENDBRANCH  10  14
BRANCH   1  18
ATOM     17  C   UNL     1       5.595   6.469  17.327  0.00  0.00    +0.000 C 
ATOM     18  C   UNL     1       4.272   5.775  17.039  0.00  0.00    +0.000 C 
ENDBRANCH   1  18
TORSDOF 2
ENDMDL
MODEL 7
REMARK VINA RESULT:      -6.2      2.763      4.224
REMARK  Name = 
REMARK  4 active torsions:
REMARK  status: ('A' for Active; 'I' for Inactive)
REMARK    1  A    between atoms: C_1  and  C_2
REMARK    2  A    between atoms: C_2  and  N_3
REMARK    3  A    between atoms: C_5  and  C_6
REMARK    4  A    between atoms: C_12  and  N_13
REMARK                            x       y       z     vdW  Elec       q    Type
REMARK                         _______ _______ _______ _____ _____    ______ ____
ROOT
ATOM      1  N   UNL     1       3.778   4.790  18.389  0.00  0.00    +0.000 N 
ATOM      2  C   UNL     1       2.768   5.749  18.312  0.00  0.00    +0.000 C 
ATOM      3  C   UNL     1       2.983   7.037  17.988  0.00  0.00    +0.000 C 
ATOM      4  C   UNL     1       1.904   8.069  17.898  0.00  0.00    +0.000 C 
ATOM      5  C   UNL     1       4.337   7.453  17.655  0.00  0.00    +0.000 C 
ATOM      6  C   UNL     1       5.365   6.591  17.706  0.00  0.00    +0.000 C 
ATOM      7  C   UNL     1       6.704   6.954  17.208  0.00  0.00    +0.000 C 
ATOM      8  O   UNL     1       7.007   8.077  16.826  0.00  0.00    +0.000 OA
ATOM      9  N   UNL     1       7.532   5.866  17.120  0.00  0.00    +0.000 N 
ATOM     10  C   UNL     1       7.427   4.933  18.171  0.00  0.00    +0.000 C 
ATOM     11  N   UNL     1       6.109   4.361  18.296  0.00  0.00    +0.000 NA
ATOM     12  C   UNL     1       5.110   5.177  18.151  0.00  0.00    +0.000 C 
ATOM     13  H   UNL     1       7.390   5.355  16.262  0.00  0.00    +0.000 HD
ENDROOT
BRANCH  10  14
ATOM     14  N   UNL     1       8.375   3.934  17.790  0.00  0.00    +0.000 NA
ATOM     15  H   UNL     1       8.020   3.494  16.947  0.00  0.00    +0.000 HD
ATOM     16  H   UNL     1       8.370   3.224  18.518  0.00  0.00    +0.000 HD
ENDBRANCH  10  14
BRANCH   1  18
ATOM     17  C   UNL     1       2.701   2.731  17.581  0.00  0.00    +0.000 C 
ATOM     18  C   UNL     1       3.459   3.396  18.721  0.00  0.00    +0.000 C 
ENDBRANCH   1  18
TORSDOF 2
ENDMDL
MODEL 8
REMARK VINA RESULT:      -6.1      2.517      3.178
REMARK  Name = 
REMARK  4 active torsions:
REMARK  status: ('A' for Active; 'I' for Inactive)
REMARK    1  A    between atoms: C_1  and  C_2
REMARK    2  A    between atoms: C_2  and  N_3
REMARK    3  A    between atoms: C_5  and  C_6
REMARK    4  A    between atoms: C_12  and  N_13
REMARK                            x       y       z     vdW  Elec       q    Type
REMARK                         _______ _______ _______ _____ _____    ______ ____
ROOT
ATOM      1  N   UNL     1       6.123   4.811  18.370  0.00  0.00    +0.000 N 
ATOM      2  C   UNL     1       6.339   5.126  17.028  0.00  0.00    +0.000 C 
ATOM      3  C   UNL     1       5.584   4.655  16.020  0.00  0.00    +0.000 C 
ATOM      4  C   UNL     1       5.807   4.993  14.579  0.00  0.00    +0.000 C 
ATOM      5  C   UNL     1       4.450   3.802  16.340  0.00  0.00    +0.000 C 
ATOM      6  C   UNL     1       4.175   3.451  17.606  0.00  0.00    +0.000 C 
ATOM      7  C   UNL     1       2.937   2.734  17.959  0.00  0.00    +0.000 C 
ATOM      8  O   UNL     1       2.138   2.309  17.135  0.00  0.00    +0.000 OA
ATOM      9  N   UNL     1       2.732   2.696  19.313  0.00  0.00    +0.000 N 
ATOM     10  C   UNL     1       3.885   2.491  20.099  0.00  0.00    +0.000 C 
ATOM     11  N   UNL     1       4.884   3.516  19.923  0.00  0.00    +0.000 NA
ATOM     12  C   UNL     1       5.083   3.925  18.708  0.00  0.00    +0.000 C 
ATOM     13  H   UNL     1       2.297   3.542  19.651  0.00  0.00    +0.000 HD
ENDROOT
BRANCH  10  14
ATOM     14  N   UNL     1       3.360   2.522  21.427  0.00  0.00    +0.000 NA
ATOM     15  H   UNL     1       2.944   1.613  21.604  0.00  0.00    +0.000 HD
ATOM     16  H   UNL     1       2.601   3.200  21.432  0.00  0.00    +0.000 HD
ENDBRANCH  10  14
BRANCH   1  18
ATOM     17  C   UNL     1       7.925   6.423  18.831  0.00  0.00    +0.000 C 
ATOM     18  C   UNL     1       6.973   5.390  19.418  0.00  0.00    +0.000 C 
ENDBRANCH   1  18
TORSDOF 2
ENDMDL
MODEL 9
REMARK VINA RESULT:      -6.1      2.104      3.472
REMARK  Name = 
REMARK  4 active torsions:
REMARK  status: ('A' for Active; 'I' for Inactive)
REMARK    1  A    between atoms: C_1  and  C_2
REMARK    2  A    between atoms: C_2  and  N_3
REMARK    3  A    between atoms: C_5  and  C_6
REMARK    4  A    between atoms: C_12  and  N_13
REMARK                            x       y       z     vdW  Elec       q    Type
REMARK                         _______ _______ _______ _____ _____    ______ ____
ROOT
ATOM      1  N   UNL     1       3.345   6.163  18.274  0.00  0.00    +0.000 N 
ATOM      2  C   UNL     1       4.613   6.450  17.767  0.00  0.00    +0.000 C 
ATOM      3  C   UNL     1       5.700   5.693  18.001  0.00  0.00    +0.000 C 
ATOM      4  C   UNL     1       7.061   5.992  17.456  0.00  0.00    +0.000 C 
ATOM      5  C   UNL     1       5.546   4.481  18.790  0.00  0.00    +0.000 C 
ATOM      6  C   UNL     1       4.360   4.134  19.315  0.00  0.00    +0.000 C 
ATOM      7  C   UNL     1       4.154   2.828  19.967  0.00  0.00    +0.000 C 
ATOM      8  O   UNL     1       5.052   2.025  20.180  0.00  0.00    +0.000 OA
ATOM      9  N   UNL     1       2.829   2.576  20.204  0.00  0.00    +0.000 N 
ATOM     10  C   UNL     1       2.064   3.679  20.636  0.00  0.00    +0.000 C 
ATOM     11  N   UNL     1       2.050   4.767  19.688  0.00  0.00    +0.000 NA
ATOM     12  C   UNL     1       3.178   5.041  19.107  0.00  0.00    +0.000 C 
ATOM     13  H   UNL     1       2.366   2.202  19.389  0.00  0.00    +0.000 HD
ENDROOT
BRANCH  10  14
ATOM     14  N   UNL     1       0.760   3.114  20.772  0.00  0.00    +0.000 NA
ATOM     15  H   UNL     1       0.672   2.798  21.733  0.00  0.00    +0.000 HD
ATOM     16  H   UNL     1       0.731   2.284  20.185  0.00  0.00    +0.000 HD
ENDBRANCH  10  14
BRANCH   1  18
ATOM     17  C   UNL     1       2.625   8.483  17.877  0.00  0.00    +0.000 C 
ATOM     18  C   UNL     1       2.200   7.023  17.950  0.00  0.00    +0.000 C 
ENDBRANCH   1  18
TORSDOF 2
ENDMDL
