MODEL 1
REMARK VINA RESULT:      -7.6      0.000      0.000
REMARK  Name = 
REMARK  11 active torsions:
REMARK  status: ('A' for Active; 'I' for Inactive)
REMARK    1  A    between atoms: C_1  and  O_2
REMARK    2  A    between atoms: O_2  and  C_3
REMARK    3  A    between atoms: C_5  and  C_6
REMARK    4  A    between atoms: C_10  and  C_11
REMARK    5  A    between atoms: C_17  and  C_18
REMARK    6  A    between atoms: C_21  and  C_22
REMARK    7  A    between atoms: C_22  and  N_23
REMARK    8  A    between atoms: N_23  and  C_24
REMARK    9  A    between atoms: C_24  and  C_25
REMARK   10  A    between atoms: C_25  and  C_26
REMARK   11  A    between atoms: C_26  and  O_27
REMARK                            x       y       z     vdW  Elec       q    Type
REMARK                         _______ _______ _______ _____ _____    ______ ____
ROOT
ATOM      1  C   UNL     1       5.984   5.961  16.525  0.00  0.00    +0.000 A 
ATOM      2  N   UNL     1       5.110   6.364  17.472  0.00  0.00    +0.000 NA
ATOM      3  C   UNL     1       3.969   5.667  17.667  0.00  0.00    +0.000 A 
ATOM      4  C   UNL     1       3.704   4.528  16.905  0.00  0.00    +0.000 A 
ATOM      5  C   UNL     1       4.626   4.113  15.940  0.00  0.00    +0.000 A 
ATOM      6  C   UNL     1       5.794   4.849  15.720  0.00  0.00    +0.000 A 
ENDROOT
BRANCH   3   7
ATOM      7  C   UNL     1       3.078   6.147  18.767  0.00  0.00    +0.000 A 
ATOM      8  C   UNL     1       2.830   5.274  19.848  0.00  0.00    +0.000 A 
ATOM      9  C   UNL     1       2.012   5.636  20.910  0.00  0.00    +0.000 A 
ATOM     10  C   UNL     1       1.401   6.882  20.915  0.00  0.00    +0.000 A 
ATOM     11  C   UNL     1       1.604   7.827  19.886  0.00  0.00    +0.000 A 
ATOM     12  C   UNL     1       2.478   7.456  18.811  0.00  0.00    +0.000 A 
ATOM     13  C   UNL     1       2.804   8.438  17.702  0.00  0.00    +0.000 C 
BRANCH  11  14
ATOM     14  C   UNL     1       0.910   9.146  20.009  0.00  0.00    +0.000 A 
ATOM     15  C   UNL     1       0.829   9.813  21.249  0.00  0.00    +0.000 A 
ATOM     16  C   UNL     1       0.206  11.060  21.378  0.00  0.00    +0.000 A 
ATOM     17  C   UNL     1      -0.318  11.696  20.259  0.00  0.00    +0.000 A 
ATOM     18  C   UNL     1      -0.272  11.056  19.026  0.00  0.00    +0.000 A 
ATOM     19  C   UNL     1       0.288   9.778  18.918  0.00  0.00    +0.000 A 
ENDBRANCH  11  14
ENDBRANCH   3   7
BRANCH   1  21
ATOM     20  C   UNL     1       7.518   7.438  17.490  0.00  0.00    +0.000 C 
ATOM     21  O   UNL     1       7.131   6.702  16.335  0.00  0.00    +0.000 OA
ENDBRANCH   1  21
BRANCH   6  22
ATOM     22  C   UNL     1       6.833   4.399  14.731  0.00  0.00    +0.000 C 
BRANCH  22  23
ATOM     23  N   UNL     1       6.354   3.281  13.915  0.00  0.00    +0.000 NA
ATOM     24  H   UNL     1       5.455   2.972  14.299  0.00  0.00    +0.000 HD
BRANCH  23  25
ATOM     25  C   UNL     1       6.161   3.712  12.530  0.00  0.00    +0.000 C 
BRANCH  25  26
ATOM     26  C   UNL     1       5.160   2.803  11.815  0.00  0.00    +0.000 C 
BRANCH  26  27
ATOM     27  C   UNL     1       5.812   1.564  11.216  0.00  0.00    +0.000 C 
BRANCH  27  28
ATOM     28  O   UNL     1       7.202   1.563  11.524  0.00  0.00    +0.000 OA
ATOM     29  H   UNL     1       7.643   1.029  10.841  0.00  0.00    +0.000 HD
ENDBRANCH  27  28
ENDBRANCH  26  27
ENDBRANCH  25  26
ENDBRANCH  23  25
ENDBRANCH  22  23
ENDBRANCH   6  22
TORSDOF 9
ENDMDL
MODEL 2
REMARK VINA RESULT:      -7.5      4.064      8.824
REMARK  Name = 
REMARK  11 active torsions:
REMARK  status: ('A' for Active; 'I' for Inactive)
REMARK    1  A    between atoms: C_1  and  O_2
REMARK    2  A    between atoms: O_2  and  C_3
REMARK    3  A    between atoms: C_5  and  C_6
REMARK    4  A    between atoms: C_10  and  C_11
REMARK    5  A    between atoms: C_17  and  C_18
REMARK    6  A    between atoms: C_21  and  C_22
REMARK    7  A    between atoms: C_22  and  N_23
REMARK    8  A    between atoms: N_23  and  C_24
REMARK    9  A    between atoms: C_24  and  C_25
REMARK   10  A    between atoms: C_25  and  C_26
REMARK   11  A    between atoms: C_26  and  O_27
REMARK                            x       y       z     vdW  Elec       q    Type
REMARK                         _______ _______ _______ _____ _____    ______ ____
ROOT
ATOM      1  C   UNL     1       0.890   9.847  21.324  0.00  0.00    +0.000 A 
ATOM      2  N   UNL     1       1.436   8.634  21.092  0.00  0.00    +0.000 NA
ATOM      3  C   UNL     1       1.614   8.214  19.821  0.00  0.00    +0.000 A 
ATOM      4  C   UNL     1       1.250   9.036  18.753  0.00  0.00    +0.000 A 
ATOM      5  C   UNL     1       0.701  10.297  19.008  0.00  0.00    +0.000 A 
ATOM      6  C   UNL     1       0.493  10.720  20.324  0.00  0.00    +0.000 A 
ENDROOT
BRANCH   3   7
ATOM      7  C   UNL     1       2.271   6.882  19.647  0.00  0.00    +0.000 A 
ATOM      8  C   UNL     1       1.866   5.829  20.494  0.00  0.00    +0.000 A 
ATOM      9  C   UNL     1       2.425   4.561  20.406  0.00  0.00    +0.000 A 
ATOM     10  C   UNL     1       3.423   4.311  19.474  0.00  0.00    +0.000 A 
ATOM     11  C   UNL     1       3.878   5.298  18.574  0.00  0.00    +0.000 A 
ATOM     12  C   UNL     1       3.270   6.595  18.650  0.00  0.00    +0.000 A 
ATOM     13  C   UNL     1       3.654   7.691  17.674  0.00  0.00    +0.000 C 
BRANCH  11  14
ATOM     14  C   UNL     1       4.943   4.908  17.598  0.00  0.00    +0.000 A 
ATOM     15  C   UNL     1       6.309   4.992  17.940  0.00  0.00    +0.000 A 
ATOM     16  C   UNL     1       7.318   4.607  17.050  0.00  0.00    +0.000 A 
ATOM     17  C   UNL     1       6.987   4.086  15.805  0.00  0.00    +0.000 A 
ATOM     18  C   UNL     1       5.652   4.009  15.430  0.00  0.00    +0.000 A 
ATOM     19  C   UNL     1       4.651   4.463  16.297  0.00  0.00    +0.000 A 
ENDBRANCH  11  14
ENDBRANCH   3   7
BRANCH   1  21
ATOM     20  C   UNL     1      -0.384   9.578  23.266  0.00  0.00    +0.000 C 
ATOM     21  O   UNL     1       0.703  10.242  22.632  0.00  0.00    +0.000 OA
ENDBRANCH   1  21
BRANCH   6  22
ATOM     22  C   UNL     1      -0.041  12.091  20.634  0.00  0.00    +0.000 C 
BRANCH  22  23
ATOM     23  N   UNL     1       0.919  12.883  21.405  0.00  0.00    +0.000 NA
ATOM     24  H   UNL     1       1.694  12.268  21.671  0.00  0.00    +0.000 HD
BRANCH  23  25
ATOM     25  C   UNL     1       1.438  13.983  20.591  0.00  0.00    +0.000 C 
BRANCH  25  26
ATOM     26  C   UNL     1       2.601  13.509  19.719  0.00  0.00    +0.000 C 
BRANCH  26  27
ATOM     27  C   UNL     1       2.410  13.846  18.246  0.00  0.00    +0.000 C 
BRANCH  27  28
ATOM     28  O   UNL     1       2.652  12.686  17.458  0.00  0.00    +0.000 OA
ATOM     29  H   UNL     1       1.790  12.259  17.310  0.00  0.00    +0.000 HD
ENDBRANCH  27  28
ENDBRANCH  26  27
ENDBRANCH  25  26
ENDBRANCH  23  25
ENDBRANCH  22  23
ENDBRANCH   6  22
TORSDOF 9
ENDMDL
MODEL 3
REMARK VINA RESULT:      -7.4      1.002      1.485
REMARK  Name = 
REMARK  11 active torsions:
REMARK  status: ('A' for Active; 'I' for Inactive)
REMARK    1  A    between atoms: C_1  and  O_2
REMARK    2  A    between atoms: O_2  and  C_3
REMARK    3  A    between atoms: C_5  and  C_6
REMARK    4  A    between atoms: C_10  and  C_11
REMARK    5  A    between atoms: C_17  and  C_18
REMARK    6  A    between atoms: C_21  and  C_22
REMARK    7  A    between atoms: C_22  and  N_23
REMARK    8  A    between atoms: N_23  and  C_24
REMARK    9  A    between atoms: C_24  and  C_25
REMARK   10  A    between atoms: C_25  and  C_26
REMARK   11  A    between atoms: C_26  and  O_27
REMARK                            x       y       z     vdW  Elec       q    Type
REMARK                         _______ _______ _______ _____ _____    ______ ____
ROOT
ATOM      1  C   UNL     1       5.311   6.091  16.876  0.00  0.00    +0.000 A 
ATOM      2  N   UNL     1       4.475   6.779  17.683  0.00  0.00    +0.000 NA
ATOM      3  C   UNL     1       3.315   6.213  18.081  0.00  0.00    +0.000 A 
ATOM      4  C   UNL     1       2.990   4.918  17.673  0.00  0.00    +0.000 A 
ATOM      5  C   UNL     1       3.872   4.212  16.850  0.00  0.00    +0.000 A 
ATOM      6  C   UNL     1       5.060   4.807  16.418  0.00  0.00    +0.000 A 
ENDROOT
BRANCH   3   7
ATOM      7  C   UNL     1       2.469   7.019  19.014  0.00  0.00    +0.000 A 
ATOM      8  C   UNL     1       2.183   6.477  20.285  0.00  0.00    +0.000 A 
ATOM      9  C   UNL     1       1.403   7.154  21.212  0.00  0.00    +0.000 A 
ATOM     10  C   UNL     1       0.868   8.394  20.888  0.00  0.00    +0.000 A 
ATOM     11  C   UNL     1       1.115   9.021  19.648  0.00  0.00    +0.000 A 
ATOM     12  C   UNL     1       1.951   8.329  18.711  0.00  0.00    +0.000 A 
ATOM     13  C   UNL     1       2.321   8.964  17.384  0.00  0.00    +0.000 C 
BRANCH  11  14
ATOM     14  C   UNL     1       0.504  10.367  19.419  0.00  0.00    +0.000 A 
ATOM     15  C   UNL     1      -0.759  10.498  18.804  0.00  0.00    +0.000 A 
ATOM     16  C   UNL     1      -1.358  11.747  18.604  0.00  0.00    +0.000 A 
ATOM     17  C   UNL     1      -0.728  12.901  19.054  0.00  0.00    +0.000 A 
ATOM     18  C   UNL     1       0.525  12.809  19.646  0.00  0.00    +0.000 A 
ATOM     19  C   UNL     1       1.151  11.563  19.777  0.00  0.00    +0.000 A 
ENDBRANCH  11  14
ENDBRANCH   3   7
BRANCH   1  21
ATOM     20  C   UNL     1       7.417   6.869  17.527  0.00  0.00    +0.000 C 
ATOM     21  O   UNL     1       6.479   6.700  16.470  0.00  0.00    +0.000 OA
ENDBRANCH   1  21
BRANCH   6  22
ATOM     22  C   UNL     1       6.058   4.055  15.581  0.00  0.00    +0.000 C 
BRANCH  22  23
ATOM     23  N   UNL     1       6.480   4.833  14.414  0.00  0.00    +0.000 NA
ATOM     24  H   UNL     1       7.367   5.292  14.646  0.00  0.00    +0.000 HD
BRANCH  23  25
ATOM     25  C   UNL     1       6.683   3.952  13.264  0.00  0.00    +0.000 C 
BRANCH  25  26
ATOM     26  C   UNL     1       5.341   3.525  12.667  0.00  0.00    +0.000 C 
BRANCH  26  27
ATOM     27  C   UNL     1       5.478   2.384  11.667  0.00  0.00    +0.000 C 
BRANCH  27  28
ATOM     28  O   UNL     1       6.836   1.961  11.613  0.00  0.00    +0.000 OA
ATOM     29  H   UNL     1       6.893   1.280  10.920  0.00  0.00    +0.000 HD
ENDBRANCH  27  28
ENDBRANCH  26  27
ENDBRANCH  25  26
ENDBRANCH  23  25
ENDBRANCH  22  23
ENDBRANCH   6  22
TORSDOF 9
ENDMDL
MODEL 4
REMARK VINA RESULT:      -7.4      2.086      3.565
REMARK  Name = 
REMARK  11 active torsions:
REMARK  status: ('A' for Active; 'I' for Inactive)
REMARK    1  A    between atoms: C_1  and  O_2
REMARK    2  A    between atoms: O_2  and  C_3
REMARK    3  A    between atoms: C_5  and  C_6
REMARK    4  A    between atoms: C_10  and  C_11
REMARK    5  A    between atoms: C_17  and  C_18
REMARK    6  A    between atoms: C_21  and  C_22
REMARK    7  A    between atoms: C_22  and  N_23
REMARK    8  A    between atoms: N_23  and  C_24
REMARK    9  A    between atoms: C_24  and  C_25
REMARK   10  A    between atoms: C_25  and  C_26
REMARK   11  A    between atoms: C_26  and  O_27
REMARK                            x       y       z     vdW  Elec       q    Type
REMARK                         _______ _______ _______ _____ _____    ______ ____
ROOT
ATOM      1  C   UNL     1       2.500   4.376  18.056  0.00  0.00    +0.000 A 
ATOM      2  N   UNL     1       1.914   5.418  18.683  0.00  0.00    +0.000 NA
ATOM      3  C   UNL     1       2.682   6.393  19.217  0.00  0.00    +0.000 A 
ATOM      4  C   UNL     1       4.072   6.331  19.105  0.00  0.00    +0.000 A 
ATOM      5  C   UNL     1       4.664   5.254  18.438  0.00  0.00    +0.000 A 
ATOM      6  C   UNL     1       3.870   4.233  17.909  0.00  0.00    +0.000 A 
ENDROOT
BRANCH   3   7
ATOM      7  C   UNL     1       1.957   7.537  19.850  0.00  0.00    +0.000 A 
ATOM      8  C   UNL     1       1.599   7.422  21.210  0.00  0.00    +0.000 A 
ATOM      9  C   UNL     1       0.921   8.433  21.878  0.00  0.00    +0.000 A 
ATOM     10  C   UNL     1       0.565   9.590  21.197  0.00  0.00    +0.000 A 
ATOM     11  C   UNL     1       0.897   9.800  19.841  0.00  0.00    +0.000 A 
ATOM     12  C   UNL     1       1.627   8.764  19.170  0.00  0.00    +0.000 A 
ATOM     13  C   UNL     1       2.082   8.939  17.734  0.00  0.00    +0.000 C 
BRANCH  11  14
ATOM     14  C   UNL     1       0.479  11.094  19.218  0.00  0.00    +0.000 A 
ATOM     15  C   UNL     1      -0.805  11.250  18.656  0.00  0.00    +0.000 A 
ATOM     16  C   UNL     1      -1.222  12.461  18.092  0.00  0.00    +0.000 A 
ATOM     17  C   UNL     1      -0.379  13.566  18.112  0.00  0.00    +0.000 A 
ATOM     18  C   UNL     1       0.900  13.439  18.640  0.00  0.00    +0.000 A 
ATOM     19  C   UNL     1       1.336  12.206  19.137  0.00  0.00    +0.000 A 
ENDBRANCH  11  14
ENDBRANCH   3   7
BRANCH   1  21
ATOM     20  C   UNL     1       1.053   2.605  18.539  0.00  0.00    +0.000 C 
ATOM     21  O   UNL     1       1.692   3.386  17.536  0.00  0.00    +0.000 OA
ENDBRANCH   1  21
BRANCH   6  22
ATOM     22  C   UNL     1       4.470   3.091  17.136  0.00  0.00    +0.000 C 
BRANCH  22  23
ATOM     23  N   UNL     1       5.652   3.512  16.380  0.00  0.00    +0.000 NA
ATOM     24  H   UNL     1       6.150   2.669  16.077  0.00  0.00    +0.000 HD
BRANCH  23  25
ATOM     25  C   UNL     1       5.253   4.282  15.202  0.00  0.00    +0.000 C 
BRANCH  25  26
ATOM     26  C   UNL     1       6.161   3.964  14.014  0.00  0.00    +0.000 C 
BRANCH  26  27
ATOM     27  C   UNL     1       7.312   4.951  13.871  0.00  0.00    +0.000 C 
BRANCH  27  28
ATOM     28  O   UNL     1       7.621   5.509  15.144  0.00  0.00    +0.000 OA
ATOM     29  H   UNL     1       7.917   6.422  14.989  0.00  0.00    +0.000 HD
ENDBRANCH  27  28
ENDBRANCH  26  27
ENDBRANCH  25  26
ENDBRANCH  23  25
ENDBRANCH  22  23
ENDBRANCH   6  22
TORSDOF 9
ENDMDL
MODEL 5
REMARK VINA RESULT:      -7.3      4.517      9.647
REMARK  Name = 
REMARK  11 active torsions:
REMARK  status: ('A' for Active; 'I' for Inactive)
REMARK    1  A    between atoms: C_1  and  O_2
REMARK    2  A    between atoms: O_2  and  C_3
REMARK    3  A    between atoms: C_5  and  C_6
REMARK    4  A    between atoms: C_10  and  C_11
REMARK    5  A    between atoms: C_17  and  C_18
REMARK    6  A    between atoms: C_21  and  C_22
REMARK    7  A    between atoms: C_22  and  N_23
REMARK    8  A    between atoms: N_23  and  C_24
REMARK    9  A    between atoms: C_24  and  C_25
REMARK   10  A    between atoms: C_25  and  C_26
REMARK   11  A    between atoms: C_26  and  O_27
REMARK                            x       y       z     vdW  Elec       q    Type
REMARK                         _______ _______ _______ _____ _____    ______ ____
ROOT
ATOM      1  C   UNL     1       0.706  10.037  21.009  0.00  0.00    +0.000 A 
ATOM      2  N   UNL     1       1.280   8.822  20.884  0.00  0.00    +0.000 NA
ATOM      3  C   UNL     1       1.567   8.343  19.654  0.00  0.00    +0.000 A 
ATOM      4  C   UNL     1       1.285   9.107  18.520  0.00  0.00    +0.000 A 
ATOM      5  C   UNL     1       0.704  10.370  18.666  0.00  0.00    +0.000 A 
ATOM      6  C   UNL     1       0.384  10.855  19.937  0.00  0.00    +0.000 A 
ENDROOT
BRANCH   3   7
ATOM      7  C   UNL     1       2.248   7.013  19.602  0.00  0.00    +0.000 A 
ATOM      8  C   UNL     1       1.851   6.028  20.532  0.00  0.00    +0.000 A 
ATOM      9  C   UNL     1       2.432   4.768  20.558  0.00  0.00    +0.000 A 
ATOM     10  C   UNL     1       3.445   4.457  19.661  0.00  0.00    +0.000 A 
ATOM     11  C   UNL     1       3.895   5.372  18.685  0.00  0.00    +0.000 A 
ATOM     12  C   UNL     1       3.264   6.660  18.643  0.00  0.00    +0.000 A 
ATOM     13  C   UNL     1       3.641   7.675  17.582  0.00  0.00    +0.000 C 
BRANCH  11  14
ATOM     14  C   UNL     1       4.978   4.920  17.758  0.00  0.00    +0.000 A 
ATOM     15  C   UNL     1       4.673   4.372  16.494  0.00  0.00    +0.000 A 
ATOM     16  C   UNL     1       5.673   3.967  15.603  0.00  0.00    +0.000 A 
ATOM     17  C   UNL     1       7.012   4.138  15.935  0.00  0.00    +0.000 A 
ATOM     18  C   UNL     1       7.346   4.656  17.180  0.00  0.00    +0.000 A 
ATOM     19  C   UNL     1       6.342   4.992  18.094  0.00  0.00    +0.000 A 
ENDBRANCH  11  14
ENDBRANCH   3   7
BRANCH   1  21
ATOM     20  C   UNL     1       0.018   9.454  23.166  0.00  0.00    +0.000 C 
ATOM     21  O   UNL     1       0.407  10.494  22.276  0.00  0.00    +0.000 OA
ENDBRANCH   1  21
BRANCH   6  22
ATOM     22  C   UNL     1      -0.187  12.232  20.133  0.00  0.00    +0.000 C 
BRANCH  22  23
ATOM     23  N   UNL     1      -1.650  12.208  20.181  0.00  0.00    +0.000 NA
ATOM     24  H   UNL     1      -1.939  11.302  20.562  0.00  0.00    +0.000 HD
BRANCH  23  25
ATOM     25  C   UNL     1      -2.146  13.274  21.052  0.00  0.00    +0.000 C 
BRANCH  25  26
ATOM     26  C   UNL     1      -3.188  12.732  22.031  0.00  0.00    +0.000 C 
BRANCH  26  27
ATOM     27  C   UNL     1      -2.569  12.205  23.319  0.00  0.00    +0.000 C 
BRANCH  27  28
ATOM     28  O   UNL     1      -1.212  12.626  23.400  0.00  0.00    +0.000 OA
ATOM     29  H   UNL     1      -0.675  11.827  23.543  0.00  0.00    +0.000 HD
ENDBRANCH  27  28
ENDBRANCH  26  27
ENDBRANCH  25  26
ENDBRANCH  23  25
ENDBRANCH  22  23
ENDBRANCH   6  22
TORSDOF 9
ENDMDL
MODEL 6
REMARK VINA RESULT:      -7.3      4.498      9.028
REMARK  Name = 
REMARK  11 active torsions:
REMARK  status: ('A' for Active; 'I' for Inactive)
REMARK    1  A    between atoms: C_1  and  O_2
REMARK    2  A    between atoms: O_2  and  C_3
REMARK    3  A    between atoms: C_5  and  C_6
REMARK    4  A    between atoms: C_10  and  C_11
REMARK    5  A    between atoms: C_17  and  C_18
REMARK    6  A    between atoms: C_21  and  C_22
REMARK    7  A    between atoms: C_22  and  N_23
REMARK    8  A    between atoms: N_23  and  C_24
REMARK    9  A    between atoms: C_24  and  C_25
REMARK   10  A    between atoms: C_25  and  C_26
REMARK   11  A    between atoms: C_26  and  O_27
REMARK                            x       y       z     vdW  Elec       q    Type
REMARK                         _______ _______ _______ _____ _____    ______ ____
ROOT
ATOM      1  C   UNL     1       0.835   9.868  21.287  0.00  0.00    +0.000 A 
ATOM      2  N   UNL     1       1.394   8.657  21.072  0.00  0.00    +0.000 NA
ATOM      3  C   UNL     1       1.602   8.234  19.806  0.00  0.00    +0.000 A 
ATOM      4  C   UNL     1       1.255   9.050  18.727  0.00  0.00    +0.000 A 
ATOM      5  C   UNL     1       0.693  10.308  18.966  0.00  0.00    +0.000 A 
ATOM      6  C   UNL     1       0.454  10.735  20.275  0.00  0.00    +0.000 A 
ENDROOT
BRANCH   3   7
ATOM      7  C   UNL     1       2.270   6.905  19.652  0.00  0.00    +0.000 A 
ATOM      8  C   UNL     1       1.877   5.862  20.517  0.00  0.00    +0.000 A 
ATOM      9  C   UNL     1       2.447   4.598  20.447  0.00  0.00    +0.000 A 
ATOM     10  C   UNL     1       3.444   4.342  19.516  0.00  0.00    +0.000 A 
ATOM     11  C   UNL     1       3.889   5.319  18.599  0.00  0.00    +0.000 A 
ATOM     12  C   UNL     1       3.269   6.611  18.656  0.00  0.00    +0.000 A 
ATOM     13  C   UNL     1       3.640   7.695  17.663  0.00  0.00    +0.000 C 
BRANCH  11  14
ATOM     14  C   UNL     1       4.954   4.923  17.627  0.00  0.00    +0.000 A 
ATOM     15  C   UNL     1       6.320   5.022  17.964  0.00  0.00    +0.000 A 
ATOM     16  C   UNL     1       7.330   4.632  17.077  0.00  0.00    +0.000 A 
ATOM     17  C   UNL     1       7.000   4.091  15.841  0.00  0.00    +0.000 A 
ATOM     18  C   UNL     1       5.664   3.998  15.470  0.00  0.00    +0.000 A 
ATOM     19  C   UNL     1       4.663   4.457  16.332  0.00  0.00    +0.000 A 
ENDBRANCH  11  14
ENDBRANCH   3   7
BRANCH   1  21
ATOM     20  C   UNL     1      -0.376   9.493  23.251  0.00  0.00    +0.000 C 
ATOM     21  O   UNL     1       0.618  10.266  22.589  0.00  0.00    +0.000 OA
ENDBRANCH   1  21
BRANCH   6  22
ATOM     22  C   UNL     1      -0.095  12.103  20.568  0.00  0.00    +0.000 C 
BRANCH  22  23
ATOM     23  N   UNL     1      -1.542  12.069  20.788  0.00  0.00    +0.000 NA
ATOM     24  H   UNL     1      -1.743  12.584  21.651  0.00  0.00    +0.000 HD
BRANCH  23  25
ATOM     25  C   UNL     1      -2.239  12.712  19.674  0.00  0.00    +0.000 C 
BRANCH  25  26
ATOM     26  C   UNL     1      -3.125  11.707  18.936  0.00  0.00    +0.000 C 
BRANCH  26  27
ATOM     27  C   UNL     1      -2.635  11.414  17.524  0.00  0.00    +0.000 C 
BRANCH  27  28
ATOM     28  O   UNL     1      -3.597  11.877  16.583  0.00  0.00    +0.000 OA
ATOM     29  H   UNL     1      -4.230  11.151  16.444  0.00  0.00    +0.000 HD
ENDBRANCH  27  28
ENDBRANCH  26  27
ENDBRANCH  25  26
ENDBRANCH  23  25
ENDBRANCH  22  23
ENDBRANCH   6  22
TORSDOF 9
ENDMDL
MODEL 7
REMARK VINA RESULT:      -7.3      2.414      3.981
REMARK  Name = 
REMARK  11 active torsions:
REMARK  status: ('A' for Active; 'I' for Inactive)
REMARK    1  A    between atoms: C_1  and  O_2
REMARK    2  A    between atoms: O_2  and  C_3
REMARK    3  A    between atoms: C_5  and  C_6
REMARK    4  A    between atoms: C_10  and  C_11
REMARK    5  A    between atoms: C_17  and  C_18
REMARK    6  A    between atoms: C_21  and  C_22
REMARK    7  A    between atoms: C_22  and  N_23
REMARK    8  A    between atoms: N_23  and  C_24
REMARK    9  A    between atoms: C_24  and  C_25
REMARK   10  A    between atoms: C_25  and  C_26
REMARK   11  A    between atoms: C_26  and  O_27
REMARK                            x       y       z     vdW  Elec       q    Type
REMARK                         _______ _______ _______ _____ _____    ______ ____
ROOT
ATOM      1  C   UNL     1       2.632   4.568  18.800  0.00  0.00    +0.000 A 
ATOM      2  N   UNL     1       2.113   5.622  19.465  0.00  0.00    +0.000 NA
ATOM      3  C   UNL     1       2.441   6.876  19.085  0.00  0.00    +0.000 A 
ATOM      4  C   UNL     1       3.299   7.081  18.003  0.00  0.00    +0.000 A 
ATOM      5  C   UNL     1       3.815   5.979  17.314  0.00  0.00    +0.000 A 
ATOM      6  C   UNL     1       3.496   4.681  17.723  0.00  0.00    +0.000 A 
ENDROOT
BRANCH   3   7
ATOM      7  C   UNL     1       1.786   7.990  19.838  0.00  0.00    +0.000 A 
ATOM      8  C   UNL     1       1.420   7.756  21.181  0.00  0.00    +0.000 A 
ATOM      9  C   UNL     1       0.804   8.732  21.953  0.00  0.00    +0.000 A 
ATOM     10  C   UNL     1       0.519   9.972  21.398  0.00  0.00    +0.000 A 
ATOM     11  C   UNL     1       0.865  10.301  20.070  0.00  0.00    +0.000 A 
ATOM     12  C   UNL     1       1.532   9.298  19.291  0.00  0.00    +0.000 A 
ATOM     13  C   UNL     1       1.998   9.594  17.879  0.00  0.00    +0.000 C 
BRANCH  11  14
ATOM     14  C   UNL     1       0.527  11.676  19.586  0.00  0.00    +0.000 A 
ATOM     15  C   UNL     1      -0.527  11.889  18.674  0.00  0.00    +0.000 A 
ATOM     16  C   UNL     1      -0.874  13.170  18.231  0.00  0.00    +0.000 A 
ATOM     17  C   UNL     1      -0.201  14.282  18.722  0.00  0.00    +0.000 A 
ATOM     18  C   UNL     1       0.856  14.106  19.607  0.00  0.00    +0.000 A 
ATOM     19  C   UNL     1       1.244  12.817  19.990  0.00  0.00    +0.000 A 
ENDBRANCH  11  14
ENDBRANCH   3   7
BRANCH   1  21
ATOM     20  C   UNL     1       2.916   2.932  20.447  0.00  0.00    +0.000 C 
ATOM     21  O   UNL     1       2.294   3.298  19.221  0.00  0.00    +0.000 OA
ENDBRANCH   1  21
BRANCH   6  22
ATOM     22  C   UNL     1       3.987   3.476  16.970  0.00  0.00    +0.000 C 
BRANCH  22  23
ATOM     23  N   UNL     1       5.450   3.398  16.969  0.00  0.00    +0.000 NA
ATOM     24  H   UNL     1       5.714   2.427  17.163  0.00  0.00    +0.000 HD
BRANCH  23  25
ATOM     25  C   UNL     1       5.977   3.787  15.661  0.00  0.00    +0.000 C 
BRANCH  25  26
ATOM     26  C   UNL     1       7.058   4.859  15.810  0.00  0.00    +0.000 C 
BRANCH  26  27
ATOM     27  C   UNL     1       7.452   5.102  17.261  0.00  0.00    +0.000 C 
BRANCH  27  28
ATOM     28  O   UNL     1       8.238   4.011  17.728  0.00  0.00    +0.000 OA
ATOM     29  H   UNL     1       8.102   3.955  18.690  0.00  0.00    +0.000 HD
ENDBRANCH  27  28
ENDBRANCH  26  27
ENDBRANCH  25  26
ENDBRANCH  23  25
ENDBRANCH  22  23
ENDBRANCH   6  22
TORSDOF 9
ENDMDL
MODEL 8
REMARK VINA RESULT:      -7.2      1.358      1.791
REMARK  Name = 
REMARK  11 active torsions:
REMARK  status: ('A' for Active; 'I' for Inactive)
REMARK    1  A    between atoms: C_1  and  O_2
REMARK    2  A    between atoms: O_2  and  C_3
REMARK    3  A    between atoms: C_5  and  C_6
REMARK    4  A    between atoms: C_10  and  C_11
REMARK    5  A    between atoms: C_17  and  C_18
REMARK    6  A    between atoms: C_21  and  C_22
REMARK    7  A    between atoms: C_22  and  N_23
REMARK    8  A    between atoms: N_23  and  C_24
REMARK    9  A    between atoms: C_24  and  C_25
REMARK   10  A    between atoms: C_25  and  C_26
REMARK   11  A    between atoms: C_26  and  O_27
REMARK                            x       y       z     vdW  Elec       q    Type
REMARK                         _______ _______ _______ _____ _____    ______ ____
ROOT
ATOM      1  C   UNL     1       5.702   5.906  17.853  0.00  0.00    +0.000 A 
ATOM      2  N   UNL     1       4.771   6.635  18.506  0.00  0.00    +0.000 NA
ATOM      3  C   UNL     1       3.467   6.299  18.402  0.00  0.00    +0.000 A 
ATOM      4  C   UNL     1       3.086   5.195  17.637  0.00  0.00    +0.000 A 
ATOM      5  C   UNL     1       4.062   4.440  16.980  0.00  0.00    +0.000 A 
ATOM      6  C   UNL     1       5.409   4.803  17.067  0.00  0.00    +0.000 A 
ENDROOT
BRANCH   3   7
ATOM      7  C   UNL     1       2.504   7.123  19.195  0.00  0.00    +0.000 A 
ATOM      8  C   UNL     1       2.116   6.649  20.466  0.00  0.00    +0.000 A 
ATOM      9  C   UNL     1       1.224   7.348  21.268  0.00  0.00    +0.000 A 
ATOM     10  C   UNL     1       0.676   8.540  20.813  0.00  0.00    +0.000 A 
ATOM     11  C   UNL     1       1.019   9.099  19.563  0.00  0.00    +0.000 A 
ATOM     12  C   UNL     1       1.968   8.387  18.757  0.00  0.00    +0.000 A 
ATOM     13  C   UNL     1       2.441   8.953  17.432  0.00  0.00    +0.000 C 
BRANCH  11  14
ATOM     14  C   UNL     1       0.382  10.399  19.187  0.00  0.00    +0.000 A 
ATOM     15  C   UNL     1       1.008  11.628  19.482  0.00  0.00    +0.000 A 
ATOM     16  C   UNL     1       0.440  12.854  19.115  0.00  0.00    +0.000 A 
ATOM     17  C   UNL     1      -0.754  12.882  18.404  0.00  0.00    +0.000 A 
ATOM     18  C   UNL     1      -1.406  11.690  18.115  0.00  0.00    +0.000 A 
ATOM     19  C   UNL     1      -0.868  10.473  18.548  0.00  0.00    +0.000 A 
ENDBRANCH  11  14
ENDBRANCH   3   7
BRANCH   1  21
ATOM     20  C   UNL     1       7.253   7.634  17.577  0.00  0.00    +0.000 C 
ATOM     21  O   UNL     1       7.024   6.283  17.962  0.00  0.00    +0.000 OA
ENDBRANCH   1  21
BRANCH   6  22
ATOM     22  C   UNL     1       6.489   3.980  16.421  0.00  0.00    +0.000 C 
BRANCH  22  23
ATOM     23  N   UNL     1       7.321   4.788  15.526  0.00  0.00    +0.000 NA
ATOM     24  H   UNL     1       8.226   4.316  15.425  0.00  0.00    +0.000 HD
BRANCH  23  25
ATOM     25  C   UNL     1       6.690   4.901  14.211  0.00  0.00    +0.000 C 
BRANCH  25  26
ATOM     26  C   UNL     1       6.061   3.571  13.797  0.00  0.00    +0.000 C 
BRANCH  26  27
ATOM     27  C   UNL     1       6.065   3.361  12.288  0.00  0.00    +0.000 C 
BRANCH  27  28
ATOM     28  O   UNL     1       4.728   3.395  11.800  0.00  0.00    +0.000 OA
ATOM     29  H   UNL     1       4.533   4.322  11.575  0.00  0.00    +0.000 HD
ENDBRANCH  27  28
ENDBRANCH  26  27
ENDBRANCH  25  26
ENDBRANCH  23  25
ENDBRANCH  22  23
ENDBRANCH   6  22
TORSDOF 9
ENDMDL
MODEL 9
REMARK VINA RESULT:      -7.2      2.366      3.361
REMARK  Name = 
REMARK  11 active torsions:
REMARK  status: ('A' for Active; 'I' for Inactive)
REMARK    1  A    between atoms: C_1  and  O_2
REMARK    2  A    between atoms: O_2  and  C_3
REMARK    3  A    between atoms: C_5  and  C_6
REMARK    4  A    between atoms: C_10  and  C_11
REMARK    5  A    between atoms: C_17  and  C_18
REMARK    6  A    between atoms: C_21  and  C_22
REMARK    7  A    between atoms: C_22  and  N_23
REMARK    8  A    between atoms: N_23  and  C_24
REMARK    9  A    between atoms: C_24  and  C_25
REMARK   10  A    between atoms: C_25  and  C_26
REMARK   11  A    between atoms: C_26  and  O_27
REMARK                            x       y       z     vdW  Elec       q    Type
REMARK                         _______ _______ _______ _____ _____    ______ ____
ROOT
ATOM      1  C   UNL     1       4.310   4.912  18.986  0.00  0.00    +0.000 A 
ATOM      2  N   UNL     1       3.708   5.980  19.549  0.00  0.00    +0.000 NA
ATOM      3  C   UNL     1       2.504   6.386  19.090  0.00  0.00    +0.000 A 
ATOM      4  C   UNL     1       1.881   5.696  18.049  0.00  0.00    +0.000 A 
ATOM      5  C   UNL     1       2.510   4.581  17.486  0.00  0.00    +0.000 A 
ATOM      6  C   UNL     1       3.767   4.177  17.944  0.00  0.00    +0.000 A 
ENDROOT
BRANCH   3   7
ATOM      7  C   UNL     1       1.879   7.545  19.799  0.00  0.00    +0.000 A 
ATOM      8  C   UNL     1       1.584   7.401  21.171  0.00  0.00    +0.000 A 
ATOM      9  C   UNL     1       1.000   8.423  21.907  0.00  0.00    +0.000 A 
ATOM     10  C   UNL     1       0.677   9.622  21.285  0.00  0.00    +0.000 A 
ATOM     11  C   UNL     1       0.951   9.862  19.921  0.00  0.00    +0.000 A 
ATOM     12  C   UNL     1       1.586   8.812  19.179  0.00  0.00    +0.000 A 
ATOM     13  C   UNL     1       1.976   9.014  17.727  0.00  0.00    +0.000 C 
BRANCH  11  14
ATOM     14  C   UNL     1       0.578  11.199  19.365  0.00  0.00    +0.000 A 
ATOM     15  C   UNL     1       1.495  12.270  19.367  0.00  0.00    +0.000 A 
ATOM     16  C   UNL     1       1.173  13.521  18.827  0.00  0.00    +0.000 A 
ATOM     17  C   UNL     1      -0.066  13.723  18.230  0.00  0.00    +0.000 A 
ATOM     18  C   UNL     1      -1.000  12.694  18.229  0.00  0.00    +0.000 A 
ATOM     19  C   UNL     1      -0.696  11.470  18.835  0.00  0.00    +0.000 A 
ENDBRANCH  11  14
ENDBRANCH   3   7
BRANCH   1  21
ATOM     20  C   UNL     1       6.549   5.523  19.273  0.00  0.00    +0.000 C 
ATOM     21  O   UNL     1       5.547   4.531  19.463  0.00  0.00    +0.000 OA
ENDBRANCH   1  21
BRANCH   6  22
ATOM     22  C   UNL     1       4.444   2.949  17.402  0.00  0.00    +0.000 C 
BRANCH  22  23
ATOM     23  N   UNL     1       5.624   3.292  16.604  0.00  0.00    +0.000 NA
ATOM     24  H   UNL     1       6.105   2.420  16.361  0.00  0.00    +0.000 HD
BRANCH  23  25
ATOM     25  C   UNL     1       5.224   3.976  15.375  0.00  0.00    +0.000 C 
BRANCH  25  26
ATOM     26  C   UNL     1       6.009   5.277  15.199  0.00  0.00    +0.000 C 
BRANCH  26  27
ATOM     27  C   UNL     1       5.280   6.487  15.768  0.00  0.00    +0.000 C 
BRANCH  27  28
ATOM     28  O   UNL     1       6.208   7.318  16.457  0.00  0.00    +0.000 OA
ATOM     29  H   UNL     1       6.265   6.984  17.369  0.00  0.00    +0.000 HD
ENDBRANCH  27  28
ENDBRANCH  26  27
ENDBRANCH  25  26
ENDBRANCH  23  25
ENDBRANCH  22  23
ENDBRANCH   6  22
TORSDOF 9
ENDMDL
