MODEL 1
REMARK VINA RESULT:      -8.6      0.000      0.000
REMARK  Name = 
REMARK  6 active torsions:
REMARK  status: ('A' for Active; 'I' for Inactive)
REMARK    1  A    between atoms: C_1  and  C_2
REMARK    2  A    between atoms: C_2  and  C_3
REMARK    3  A    between atoms: C_2  and  N_4
REMARK    4  A    between atoms: C_8  and  C_9
REMARK    5  A    between atoms: C_15  and  C_16
REMARK    6  A    between atoms: C_20  and  C_21
REMARK                            x       y       z     vdW  Elec       q    Type
REMARK                         _______ _______ _______ _____ _____    ______ ____
ROOT
ATOM      1  C   UNL     1       2.071   6.678  20.034  0.00  0.00    +0.000 A 
ATOM      2  C   UNL     1       1.506   5.751  20.920  0.00  0.00    +0.000 A 
ATOM      3  C   UNL     1       1.904   4.410  20.940  0.00  0.00    +0.000 A 
ATOM      4  C   UNL     1       2.897   4.017  20.037  0.00  0.00    +0.000 A 
ATOM      5  N   UNL     1       3.449   2.778  19.816  0.00  0.00    +0.000 N 
ATOM      6  C   UNL     1       4.406   2.853  18.839  0.00  0.00    +0.000 A 
ATOM      7  C   UNL     1       4.500   4.169  18.418  0.00  0.00    +0.000 A 
ATOM      8  C   UNL     1       3.520   4.908  19.160  0.00  0.00    +0.000 A 
ATOM      9  C   UNL     1       3.096   6.256  19.167  0.00  0.00    +0.000 A 
ATOM     10  H   UNL     1       3.182   1.937  20.309  0.00  0.00    +0.000 HD
ENDROOT
BRANCH   1  15
ATOM     11  N   UNL     1       1.362  10.959  18.296  0.00  0.00    +0.000 N 
ATOM     12  C   UNL     1       1.240   9.988  19.220  0.00  0.00    +0.000 A 
ATOM     13  N   UNL     1       0.706   9.985  20.420  0.00  0.00    +0.000 NA
ATOM     14  N   UNL     1       0.920   8.724  20.942  0.00  0.00    +0.000 NA
ATOM     15  C   UNL     1       1.581   8.050  20.021  0.00  0.00    +0.000 A 
ATOM     16  O   UNL     1       1.810   8.793  18.892  0.00  0.00    +0.000 OA
ATOM     17  H   UNL     1       2.014  10.739  17.550  0.00  0.00    +0.000 HD
BRANCH  11  19
ATOM     18  C   UNL     1       2.507  13.087  18.039  0.00  0.00    +0.000 C 
ATOM     19  C   UNL     1       1.374  12.346  18.748  0.00  0.00    +0.000 C 
ATOM     20  C   UNL     1       0.038  13.022  18.448  0.00  0.00    +0.000 C 
ENDBRANCH  11  19
ENDBRANCH   1  15
BRANCH   7  21
ATOM     21  C   UNL     1       5.459   4.634  17.419  0.00  0.00    +0.000 A 
ATOM     22  C   UNL     1       6.220   5.762  17.632  0.00  0.00    +0.000 A 
ATOM     23  C   UNL     1       7.045   6.126  16.600  0.00  0.00    +0.000 A 
ATOM     24  N   UNL     1       7.129   5.448  15.445  0.00  0.00    +0.000 NA
ATOM     25  C   UNL     1       6.357   4.348  15.313  0.00  0.00    +0.000 A 
ATOM     26  N   UNL     1       5.523   3.915  16.280  0.00  0.00    +0.000 NA
BRANCH  25  27
ATOM     27  C   UNL     1       6.402   3.612  13.996  0.00  0.00    +0.000 C 
ATOM     28  C   UNL     1       5.353   3.902  12.944  0.00  0.00    +0.000 C 
ATOM     29  C   UNL     1       6.775   4.313  12.710  0.00  0.00    +0.000 C 
ENDBRANCH  25  27
ENDBRANCH   7  21
TORSDOF 4
ENDMDL
MODEL 2
REMARK VINA RESULT:      -8.6      0.917      2.277
REMARK  Name = 
REMARK  6 active torsions:
REMARK  status: ('A' for Active; 'I' for Inactive)
REMARK    1  A    between atoms: C_1  and  C_2
REMARK    2  A    between atoms: C_2  and  C_3
REMARK    3  A    between atoms: C_2  and  N_4
REMARK    4  A    between atoms: C_8  and  C_9
REMARK    5  A    between atoms: C_15  and  C_16
REMARK    6  A    between atoms: C_20  and  C_21
REMARK                            x       y       z     vdW  Elec       q    Type
REMARK                         _______ _______ _______ _____ _____    ______ ____
ROOT
ATOM      1  C   UNL     1       2.034   6.644  20.002  0.00  0.00    +0.000 A 
ATOM      2  C   UNL     1       1.459   5.703  20.866  0.00  0.00    +0.000 A 
ATOM      3  C   UNL     1       1.805   4.348  20.819  0.00  0.00    +0.000 A 
ATOM      4  C   UNL     1       2.756   3.957  19.872  0.00  0.00    +0.000 A 
ATOM      5  N   UNL     1       3.253   2.708  19.584  0.00  0.00    +0.000 N 
ATOM      6  C   UNL     1       4.185   2.788  18.583  0.00  0.00    +0.000 A 
ATOM      7  C   UNL     1       4.317   4.115  18.214  0.00  0.00    +0.000 A 
ATOM      8  C   UNL     1       3.389   4.859  19.014  0.00  0.00    +0.000 A 
ATOM      9  C   UNL     1       3.017   6.221  19.088  0.00  0.00    +0.000 A 
ATOM     10  H   UNL     1       2.967   1.858  20.050  0.00  0.00    +0.000 HD
ENDROOT
BRANCH   1  15
ATOM     11  N   UNL     1       1.231  10.954  18.380  0.00  0.00    +0.000 N 
ATOM     12  C   UNL     1       1.213   9.985  19.314  0.00  0.00    +0.000 A 
ATOM     13  N   UNL     1       0.864   9.997  20.580  0.00  0.00    +0.000 NA
ATOM     14  N   UNL     1       1.107   8.728  21.067  0.00  0.00    +0.000 NA
ATOM     15  C   UNL     1       1.598   8.034  20.059  0.00  0.00    +0.000 A 
ATOM     16  O   UNL     1       1.683   8.771  18.908  0.00  0.00    +0.000 OA
ATOM     17  H   UNL     1       1.756  10.714  17.546  0.00  0.00    +0.000 HD
BRANCH  11  19
ATOM     18  C   UNL     1       2.556  12.974  18.114  0.00  0.00    +0.000 C 
ATOM     19  C   UNL     1       1.361  12.338  18.823  0.00  0.00    +0.000 C 
ATOM     20  C   UNL     1       0.089  13.124  18.512  0.00  0.00    +0.000 C 
ENDBRANCH  11  19
ENDBRANCH   1  15
BRANCH   7  21
ATOM     21  C   UNL     1       5.265   4.585  17.207  0.00  0.00    +0.000 A 
ATOM     22  C   UNL     1       5.339   3.993  15.965  0.00  0.00    +0.000 A 
ATOM     23  C   UNL     1       6.303   4.491  15.126  0.00  0.00    +0.000 A 
ATOM     24  N   UNL     1       7.135   5.488  15.464  0.00  0.00    +0.000 NA
ATOM     25  C   UNL     1       6.997   6.023  16.695  0.00  0.00    +0.000 A 
ATOM     26  N   UNL     1       6.072   5.600  17.581  0.00  0.00    +0.000 NA
BRANCH  25  27
ATOM     27  C   UNL     1       7.966   7.105  17.104  0.00  0.00    +0.000 C 
ATOM     28  C   UNL     1       7.434   8.416  17.642  0.00  0.00    +0.000 C 
ATOM     29  C   UNL     1       8.167   7.480  18.555  0.00  0.00    +0.000 C 
ENDBRANCH  25  27
ENDBRANCH   7  21
TORSDOF 4
ENDMDL
MODEL 3
REMARK VINA RESULT:      -8.4      1.503      1.851
REMARK  Name = 
REMARK  6 active torsions:
REMARK  status: ('A' for Active; 'I' for Inactive)
REMARK    1  A    between atoms: C_1  and  C_2
REMARK    2  A    between atoms: C_2  and  C_3
REMARK    3  A    between atoms: C_2  and  N_4
REMARK    4  A    between atoms: C_8  and  C_9
REMARK    5  A    between atoms: C_15  and  C_16
REMARK    6  A    between atoms: C_20  and  C_21
REMARK                            x       y       z     vdW  Elec       q    Type
REMARK                         _______ _______ _______ _____ _____    ______ ____
ROOT
ATOM      1  C   UNL     1       2.096   6.542  20.047  0.00  0.00    +0.000 A 
ATOM      2  C   UNL     1       1.503   5.593  20.890  0.00  0.00    +0.000 A 
ATOM      3  C   UNL     1       1.866   4.242  20.853  0.00  0.00    +0.000 A 
ATOM      4  C   UNL     1       2.853   3.863  19.938  0.00  0.00    +0.000 A 
ATOM      5  N   UNL     1       3.373   2.621  19.665  0.00  0.00    +0.000 N 
ATOM      6  C   UNL     1       4.337   2.713  18.696  0.00  0.00    +0.000 A 
ATOM      7  C   UNL     1       4.466   4.042  18.333  0.00  0.00    +0.000 A 
ATOM      8  C   UNL     1       3.503   4.774  19.103  0.00  0.00    +0.000 A 
ATOM      9  C   UNL     1       3.114   6.131  19.166  0.00  0.00    +0.000 A 
ATOM     10  H   UNL     1       3.082   1.766  20.121  0.00  0.00    +0.000 HD
ENDROOT
BRANCH   1  15
ATOM     11  N   UNL     1       0.389  10.433  21.996  0.00  0.00    +0.000 N 
ATOM     12  C   UNL     1       0.888   9.700  20.983  0.00  0.00    +0.000 A 
ATOM     13  N   UNL     1       1.062   9.972  19.710  0.00  0.00    +0.000 NA
ATOM     14  N   UNL     1       1.559   8.823  19.127  0.00  0.00    +0.000 NA
ATOM     15  C   UNL     1       1.642   7.926  20.091  0.00  0.00    +0.000 A 
ATOM     16  O   UNL     1       1.240   8.422  21.303  0.00  0.00    +0.000 OA
ATOM     17  H   UNL     1       0.169   9.894  22.826  0.00  0.00    +0.000 HD
BRANCH  11  19
ATOM     18  C   UNL     1      -1.524  11.669  22.845  0.00  0.00    +0.000 C 
ATOM     19  C   UNL     1      -0.552  11.501  21.677  0.00  0.00    +0.000 C 
ATOM     20  C   UNL     1       0.189  12.812  21.421  0.00  0.00    +0.000 C 
ENDBRANCH  11  19
ENDBRANCH   1  15
BRANCH   7  21
ATOM     21  C   UNL     1       5.442   4.525  17.359  0.00  0.00    +0.000 A 
ATOM     22  C   UNL     1       6.209   5.641  17.610  0.00  0.00    +0.000 A 
ATOM     23  C   UNL     1       7.051   6.024  16.598  0.00  0.00    +0.000 A 
ATOM     24  N   UNL     1       7.144   5.374  15.427  0.00  0.00    +0.000 NA
ATOM     25  C   UNL     1       6.366   4.284  15.258  0.00  0.00    +0.000 A 
ATOM     26  N   UNL     1       5.515   3.834  16.202  0.00  0.00    +0.000 NA
BRANCH  25  27
ATOM     27  C   UNL     1       6.422   3.581  13.923  0.00  0.00    +0.000 C 
ATOM     28  C   UNL     1       5.379   3.894  12.872  0.00  0.00    +0.000 C 
ATOM     29  C   UNL     1       6.801   4.316  12.658  0.00  0.00    +0.000 C 
ENDBRANCH  25  27
ENDBRANCH   7  21
TORSDOF 4
ENDMDL
MODEL 4
REMARK VINA RESULT:      -8.4      1.786      2.968
REMARK  Name = 
REMARK  6 active torsions:
REMARK  status: ('A' for Active; 'I' for Inactive)
REMARK    1  A    between atoms: C_1  and  C_2
REMARK    2  A    between atoms: C_2  and  C_3
REMARK    3  A    between atoms: C_2  and  N_4
REMARK    4  A    between atoms: C_8  and  C_9
REMARK    5  A    between atoms: C_15  and  C_16
REMARK    6  A    between atoms: C_20  and  C_21
REMARK                            x       y       z     vdW  Elec       q    Type
REMARK                         _______ _______ _______ _____ _____    ______ ____
ROOT
ATOM      1  C   UNL     1       2.067   6.468  20.075  0.00  0.00    +0.000 A 
ATOM      2  C   UNL     1       1.519   5.505  20.932  0.00  0.00    +0.000 A 
ATOM      3  C   UNL     1       1.888   4.156  20.861  0.00  0.00    +0.000 A 
ATOM      4  C   UNL     1       2.834   3.795  19.897  0.00  0.00    +0.000 A 
ATOM      5  N   UNL     1       3.348   2.560  19.584  0.00  0.00    +0.000 N 
ATOM      6  C   UNL     1       4.266   2.670  18.573  0.00  0.00    +0.000 A 
ATOM      7  C   UNL     1       4.371   4.005  18.222  0.00  0.00    +0.000 A 
ATOM      8  C   UNL     1       3.440   4.721  19.045  0.00  0.00    +0.000 A 
ATOM      9  C   UNL     1       3.046   6.075  19.144  0.00  0.00    +0.000 A 
ATOM     10  H   UNL     1       3.083   1.698  20.042  0.00  0.00    +0.000 HD
ENDROOT
BRANCH   1  15
ATOM     11  N   UNL     1       0.302  10.282  22.121  0.00  0.00    +0.000 N 
ATOM     12  C   UNL     1       0.827   9.587  21.095  0.00  0.00    +0.000 A 
ATOM     13  N   UNL     1       1.031   9.905  19.837  0.00  0.00    +0.000 NA
ATOM     14  N   UNL     1       1.545   8.779  19.225  0.00  0.00    +0.000 NA
ATOM     15  C   UNL     1       1.608   7.849  20.158  0.00  0.00    +0.000 A 
ATOM     16  O   UNL     1       1.176   8.300  21.377  0.00  0.00    +0.000 OA
ATOM     17  H   UNL     1       0.063   9.713  22.926  0.00  0.00    +0.000 HD
BRANCH  11  19
ATOM     18  C   UNL     1      -1.578  11.543  23.007  0.00  0.00    +0.000 C 
ATOM     19  C   UNL     1      -0.635  11.359  21.818  0.00  0.00    +0.000 C 
ATOM     20  C   UNL     1       0.113  12.660  21.539  0.00  0.00    +0.000 C 
ENDBRANCH  11  19
ENDBRANCH   1  15
BRANCH   7  21
ATOM     21  C   UNL     1       5.298   4.506  17.211  0.00  0.00    +0.000 A 
ATOM     22  C   UNL     1       5.370   3.932  15.961  0.00  0.00    +0.000 A 
ATOM     23  C   UNL     1       6.314   4.458  15.118  0.00  0.00    +0.000 A 
ATOM     24  N   UNL     1       7.131   5.467  15.459  0.00  0.00    +0.000 NA
ATOM     25  C   UNL     1       6.996   5.983  16.699  0.00  0.00    +0.000 A 
ATOM     26  N   UNL     1       6.090   5.532  17.589  0.00  0.00    +0.000 NA
BRANCH  25  27
ATOM     27  C   UNL     1       7.948   7.080  17.111  0.00  0.00    +0.000 C 
ATOM     28  C   UNL     1       7.397   8.380  17.655  0.00  0.00    +0.000 C 
ATOM     29  C   UNL     1       8.145   7.452  18.563  0.00  0.00    +0.000 C 
ENDBRANCH  25  27
ENDBRANCH   7  21
TORSDOF 4
ENDMDL
MODEL 5
REMARK VINA RESULT:      -8.3      1.217      1.577
REMARK  Name = 
REMARK  6 active torsions:
REMARK  status: ('A' for Active; 'I' for Inactive)
REMARK    1  A    between atoms: C_1  and  C_2
REMARK    2  A    between atoms: C_2  and  C_3
REMARK    3  A    between atoms: C_2  and  N_4
REMARK    4  A    between atoms: C_8  and  C_9
REMARK    5  A    between atoms: C_15  and  C_16
REMARK    6  A    between atoms: C_20  and  C_21
REMARK                            x       y       z     vdW  Elec       q    Type
REMARK                         _______ _______ _______ _____ _____    ______ ____
ROOT
ATOM      1  C   UNL     1       2.238   7.208  19.410  0.00  0.00    +0.000 A 
ATOM      2  C   UNL     1       1.679   6.463  20.457  0.00  0.00    +0.000 A 
ATOM      3  C   UNL     1       2.072   5.145  20.718  0.00  0.00    +0.000 A 
ATOM      4  C   UNL     1       3.053   4.588  19.892  0.00  0.00    +0.000 A 
ATOM      5  N   UNL     1       3.596   3.326  19.896  0.00  0.00    +0.000 N 
ATOM      6  C   UNL     1       4.543   3.214  18.912  0.00  0.00    +0.000 A 
ATOM      7  C   UNL     1       4.638   4.430  18.256  0.00  0.00    +0.000 A 
ATOM      8  C   UNL     1       3.670   5.299  18.861  0.00  0.00    +0.000 A 
ATOM      9  C   UNL     1       3.252   6.628  18.625  0.00  0.00    +0.000 A 
ATOM     10  H   UNL     1       3.331   2.591  20.537  0.00  0.00    +0.000 HD
ENDROOT
BRANCH   1  15
ATOM     11  N   UNL     1      -0.213  11.109  20.201  0.00  0.00    +0.000 N 
ATOM     12  C   UNL     1       0.658  10.338  19.523  0.00  0.00    +0.000 A 
ATOM     13  N   UNL     1       1.293  10.526  18.389  0.00  0.00    +0.000 NA
ATOM     14  N   UNL     1       2.013   9.373  18.146  0.00  0.00    +0.000 NA
ATOM     15  C   UNL     1       1.755   8.558  19.150  0.00  0.00    +0.000 A 
ATOM     16  O   UNL     1       0.906   9.114  20.071  0.00  0.00    +0.000 OA
ATOM     17  H   UNL     1      -0.713  10.619  20.935  0.00  0.00    +0.000 HD
BRANCH  11  19
ATOM     18  C   UNL     1      -2.150  11.362  18.755  0.00  0.00    +0.000 C 
ATOM     19  C   UNL     1      -0.999  12.085  19.453  0.00  0.00    +0.000 C 
ATOM     20  C   UNL     1      -1.548  13.162  20.386  0.00  0.00    +0.000 C 
ENDBRANCH  11  19
ENDBRANCH   1  15
BRANCH   7  21
ATOM     21  C   UNL     1       5.588   4.698  17.179  0.00  0.00    +0.000 A 
ATOM     22  C   UNL     1       6.508   5.718  17.278  0.00  0.00    +0.000 A 
ATOM     23  C   UNL     1       7.310   5.903  16.181  0.00  0.00    +0.000 A 
ATOM     24  N   UNL     1       7.227   5.155  15.069  0.00  0.00    +0.000 NA
ATOM     25  C   UNL     1       6.306   4.169  15.051  0.00  0.00    +0.000 A 
ATOM     26  N   UNL     1       5.481   3.914  16.087  0.00  0.00    +0.000 NA
BRANCH  25  27
ATOM     27  C   UNL     1       6.167   3.361  13.784  0.00  0.00    +0.000 C 
ATOM     28  C   UNL     1       5.179   3.799  12.725  0.00  0.00    +0.000 C 
ATOM     29  C   UNL     1       6.650   3.888  12.452  0.00  0.00    +0.000 C 
ENDBRANCH  25  27
ENDBRANCH   7  21
TORSDOF 4
ENDMDL
MODEL 6
REMARK VINA RESULT:      -8.0      2.001      8.132
REMARK  Name = 
REMARK  6 active torsions:
REMARK  status: ('A' for Active; 'I' for Inactive)
REMARK    1  A    between atoms: C_1  and  C_2
REMARK    2  A    between atoms: C_2  and  C_3
REMARK    3  A    between atoms: C_2  and  N_4
REMARK    4  A    between atoms: C_8  and  C_9
REMARK    5  A    between atoms: C_15  and  C_16
REMARK    6  A    between atoms: C_20  and  C_21
REMARK                            x       y       z     vdW  Elec       q    Type
REMARK                         _______ _______ _______ _____ _____    ______ ____
ROOT
ATOM      1  C   UNL     1       4.475   4.480  17.801  0.00  0.00    +0.000 A 
ATOM      2  C   UNL     1       4.349   3.365  18.639  0.00  0.00    +0.000 A 
ATOM      3  C   UNL     1       3.571   3.397  19.802  0.00  0.00    +0.000 A 
ATOM      4  C   UNL     1       2.913   4.593  20.105  0.00  0.00    +0.000 A 
ATOM      5  N   UNL     1       2.122   4.916  21.182  0.00  0.00    +0.000 N 
ATOM      6  C   UNL     1       1.669   6.204  21.067  0.00  0.00    +0.000 A 
ATOM      7  C   UNL     1       2.158   6.736  19.886  0.00  0.00    +0.000 A 
ATOM      8  C   UNL     1       2.973   5.721  19.285  0.00  0.00    +0.000 A 
ATOM      9  C   UNL     1       3.766   5.654  18.117  0.00  0.00    +0.000 A 
ATOM     10  H   UNL     1       1.908   4.287  21.943  0.00  0.00    +0.000 HD
ENDROOT
BRANCH   1  15
ATOM     11  N   UNL     1       5.527   4.017  13.271  0.00  0.00    +0.000 N 
ATOM     12  C   UNL     1       5.815   4.219  14.570  0.00  0.00    +0.000 A 
ATOM     13  N   UNL     1       6.960   4.346  15.202  0.00  0.00    +0.000 NA
ATOM     14  N   UNL     1       6.655   4.475  16.543  0.00  0.00    +0.000 NA
ATOM     15  C   UNL     1       5.341   4.407  16.631  0.00  0.00    +0.000 A 
ATOM     16  O   UNL     1       4.741   4.254  15.409  0.00  0.00    +0.000 OA
ATOM     17  H   UNL     1       4.567   3.738  13.099  0.00  0.00    +0.000 HD
BRANCH  11  19
ATOM     18  C   UNL     1       5.828   2.346  11.531  0.00  0.00    +0.000 C 
ATOM     19  C   UNL     1       6.527   3.361  12.435  0.00  0.00    +0.000 C 
ATOM     20  C   UNL     1       7.276   4.387  11.586  0.00  0.00    +0.000 C 
ENDBRANCH  11  19
ENDBRANCH   1  15
BRANCH   7  21
ATOM     21  C   UNL     1       1.835   8.078  19.407  0.00  0.00    +0.000 A 
ATOM     22  C   UNL     1       2.129   8.465  18.119  0.00  0.00    +0.000 A 
ATOM     23  C   UNL     1       1.824   9.765  17.804  0.00  0.00    +0.000 A 
ATOM     24  N   UNL     1       1.275  10.627  18.674  0.00  0.00    +0.000 NA
ATOM     25  C   UNL     1       1.009  10.172  19.916  0.00  0.00    +0.000 A 
ATOM     26  N   UNL     1       1.270   8.908  20.308  0.00  0.00    +0.000 NA
BRANCH  25  27
ATOM     27  C   UNL     1       0.445  11.151  20.917  0.00  0.00    +0.000 C 
ATOM     28  C   UNL     1      -1.014  11.544  20.833  0.00  0.00    +0.000 C 
ATOM     29  C   UNL     1      -0.533  10.715  21.985  0.00  0.00    +0.000 C 
ENDBRANCH  25  27
ENDBRANCH   7  21
TORSDOF 4
ENDMDL
MODEL 7
REMARK VINA RESULT:      -8.0      1.743      2.106
REMARK  Name = 
REMARK  6 active torsions:
REMARK  status: ('A' for Active; 'I' for Inactive)
REMARK    1  A    between atoms: C_1  and  C_2
REMARK    2  A    between atoms: C_2  and  C_3
REMARK    3  A    between atoms: C_2  and  N_4
REMARK    4  A    between atoms: C_8  and  C_9
REMARK    5  A    between atoms: C_15  and  C_16
REMARK    6  A    between atoms: C_20  and  C_21
REMARK                            x       y       z     vdW  Elec       q    Type
REMARK                         _______ _______ _______ _____ _____    ______ ____
ROOT
ATOM      1  C   UNL     1       1.989   5.968  19.814  0.00  0.00    +0.000 A 
ATOM      2  C   UNL     1       1.195   5.005  20.449  0.00  0.00    +0.000 A 
ATOM      3  C   UNL     1       1.372   3.635  20.223  0.00  0.00    +0.000 A 
ATOM      4  C   UNL     1       2.380   3.252  19.333  0.00  0.00    +0.000 A 
ATOM      5  N   UNL     1       2.749   2.000  18.903  0.00  0.00    +0.000 N 
ATOM      6  C   UNL     1       3.804   2.089  18.034  0.00  0.00    +0.000 A 
ATOM      7  C   UNL     1       4.148   3.423  17.899  0.00  0.00    +0.000 A 
ATOM      8  C   UNL     1       3.225   4.168  18.704  0.00  0.00    +0.000 A 
ATOM      9  C   UNL     1       3.021   5.544  18.956  0.00  0.00    +0.000 A 
ATOM     10  H   UNL     1       2.301   1.141  19.193  0.00  0.00    +0.000 HD
ENDROOT
BRANCH   1  15
ATOM     11  N   UNL     1       0.435   9.714  22.139  0.00  0.00    +0.000 N 
ATOM     12  C   UNL     1       1.041   9.085  21.114  0.00  0.00    +0.000 A 
ATOM     13  N   UNL     1       1.525   9.532  19.978  0.00  0.00    +0.000 NA
ATOM     14  N   UNL     1       1.978   8.429  19.283  0.00  0.00    +0.000 NA
ATOM     15  C   UNL     1       1.727   7.383  20.047  0.00  0.00    +0.000 A 
ATOM     16  O   UNL     1       1.140   7.731  21.234  0.00  0.00    +0.000 OA
ATOM     17  H   UNL     1      -0.032   9.089  22.787  0.00  0.00    +0.000 HD
BRANCH  11  19
ATOM     18  C   UNL     1      -1.004  10.840  20.536  0.00  0.00    +0.000 C 
ATOM     19  C   UNL     1      -0.261  10.967  21.866  0.00  0.00    +0.000 C 
ATOM     20  C   UNL     1      -1.247  11.289  22.987  0.00  0.00    +0.000 C 
ENDBRANCH  11  19
ENDBRANCH   1  15
BRANCH   7  21
ATOM     21  C   UNL     1       5.269   3.893  17.088  0.00  0.00    +0.000 A 
ATOM     22  C   UNL     1       6.440   4.323  17.672  0.00  0.00    +0.000 A 
ATOM     23  C   UNL     1       7.398   4.788  16.808  0.00  0.00    +0.000 A 
ATOM     24  N   UNL     1       7.235   4.834  15.477  0.00  0.00    +0.000 NA
ATOM     25  C   UNL     1       6.063   4.387  14.979  0.00  0.00    +0.000 A 
ATOM     26  N   UNL     1       5.070   3.908  15.754  0.00  0.00    +0.000 NA
BRANCH  25  27
ATOM     27  C   UNL     1       5.849   4.488  13.488  0.00  0.00    +0.000 C 
ATOM     28  C   UNL     1       6.853   3.860  12.547  0.00  0.00    +0.000 C 
ATOM     29  C   UNL     1       5.476   3.280  12.659  0.00  0.00    +0.000 C 
ENDBRANCH  25  27
ENDBRANCH   7  21
TORSDOF 4
ENDMDL
MODEL 8
REMARK VINA RESULT:      -7.9      1.445      1.984
REMARK  Name = 
REMARK  6 active torsions:
REMARK  status: ('A' for Active; 'I' for Inactive)
REMARK    1  A    between atoms: C_1  and  C_2
REMARK    2  A    between atoms: C_2  and  C_3
REMARK    3  A    between atoms: C_2  and  N_4
REMARK    4  A    between atoms: C_8  and  C_9
REMARK    5  A    between atoms: C_15  and  C_16
REMARK    6  A    between atoms: C_20  and  C_21
REMARK                            x       y       z     vdW  Elec       q    Type
REMARK                         _______ _______ _______ _____ _____    ______ ____
ROOT
ATOM      1  C   UNL     1       2.462   6.764  18.494  0.00  0.00    +0.000 A 
ATOM      2  C   UNL     1       1.793   5.921  19.392  0.00  0.00    +0.000 A 
ATOM      3  C   UNL     1       2.025   4.542  19.424  0.00  0.00    +0.000 A 
ATOM      4  C   UNL     1       2.957   4.022  18.521  0.00  0.00    +0.000 A 
ATOM      5  N   UNL     1       3.352   2.723  18.310  0.00  0.00    +0.000 N 
ATOM      6  C   UNL     1       4.307   2.671  17.328  0.00  0.00    +0.000 A 
ATOM      7  C   UNL     1       4.558   3.961  16.894  0.00  0.00    +0.000 A 
ATOM      8  C   UNL     1       3.680   4.821  17.633  0.00  0.00    +0.000 A 
ATOM      9  C   UNL     1       3.423   6.211  17.628  0.00  0.00    +0.000 A 
ATOM     10  H   UNL     1       2.987   1.925  18.813  0.00  0.00    +0.000 HD
ENDROOT
BRANCH   1  15
ATOM     11  N   UNL     1       0.618  10.771  20.040  0.00  0.00    +0.000 N 
ATOM     12  C   UNL     1       1.325  10.010  19.184  0.00  0.00    +0.000 A 
ATOM     13  N   UNL     1       1.892  10.286  18.032  0.00  0.00    +0.000 NA
ATOM     14  N   UNL     1       2.431   9.103  17.566  0.00  0.00    +0.000 NA
ATOM     15  C   UNL     1       2.144   8.185  18.469  0.00  0.00    +0.000 A 
ATOM     16  O   UNL     1       1.449   8.698  19.533  0.00  0.00    +0.000 OA
ATOM     17  H   UNL     1       0.115  10.242  20.744  0.00  0.00    +0.000 HD
BRANCH  11  19
ATOM     18  C   UNL     1      -1.417  11.478  18.915  0.00  0.00    +0.000 C 
ATOM     19  C   UNL     1      -0.085  11.934  19.511  0.00  0.00    +0.000 C 
ATOM     20  C   UNL     1      -0.331  12.962  20.614  0.00  0.00    +0.000 C 
ENDBRANCH  11  19
ENDBRANCH   1  15
BRANCH   7  21
ATOM     21  C   UNL     1       5.561   4.296  15.887  0.00  0.00    +0.000 A 
ATOM     22  C   UNL     1       6.687   5.019  16.214  0.00  0.00    +0.000 A 
ATOM     23  C   UNL     1       7.528   5.314  15.172  0.00  0.00    +0.000 A 
ATOM     24  N   UNL     1       7.297   4.937  13.905  0.00  0.00    +0.000 NA
ATOM     25  C   UNL     1       6.176   4.224  13.664  0.00  0.00    +0.000 A 
ATOM     26  N   UNL     1       5.299   3.884  14.629  0.00  0.00    +0.000 NA
BRANCH  25  27
ATOM     27  C   UNL     1       5.879   3.845  12.233  0.00  0.00    +0.000 C 
ATOM     28  C   UNL     1       5.801   2.383  11.851  0.00  0.00    +0.000 C 
ATOM     29  C   UNL     1       4.560   3.222  11.838  0.00  0.00    +0.000 C 
ENDBRANCH  25  27
ENDBRANCH   7  21
TORSDOF 4
ENDMDL
MODEL 9
REMARK VINA RESULT:      -7.9      1.355      2.523
REMARK  Name = 
REMARK  6 active torsions:
REMARK  status: ('A' for Active; 'I' for Inactive)
REMARK    1  A    between atoms: C_1  and  C_2
REMARK    2  A    between atoms: C_2  and  C_3
REMARK    3  A    between atoms: C_2  and  N_4
REMARK    4  A    between atoms: C_8  and  C_9
REMARK    5  A    between atoms: C_15  and  C_16
REMARK    6  A    between atoms: C_20  and  C_21
REMARK                            x       y       z     vdW  Elec       q    Type
REMARK                         _______ _______ _______ _____ _____    ______ ____
ROOT
ATOM      1  C   UNL     1       1.706   5.820  19.940  0.00  0.00    +0.000 A 
ATOM      2  C   UNL     1       0.857   4.847  20.485  0.00  0.00    +0.000 A 
ATOM      3  C   UNL     1       0.990   3.490  20.169  0.00  0.00    +0.000 A 
ATOM      4  C   UNL     1       2.009   3.130  19.283  0.00  0.00    +0.000 A 
ATOM      5  N   UNL     1       2.345   1.897  18.777  0.00  0.00    +0.000 N 
ATOM      6  C   UNL     1       3.428   2.004  17.946  0.00  0.00    +0.000 A 
ATOM      7  C   UNL     1       3.825   3.329  17.913  0.00  0.00    +0.000 A 
ATOM      8  C   UNL     1       2.907   4.054  18.742  0.00  0.00    +0.000 A 
ATOM      9  C   UNL     1       2.746   5.416  19.083  0.00  0.00    +0.000 A 
ATOM     10  H   UNL     1       1.857   1.038  18.995  0.00  0.00    +0.000 HD
ENDROOT
BRANCH   1  15
ATOM     11  N   UNL     1       1.056  10.366  19.070  0.00  0.00    +0.000 N 
ATOM     12  C   UNL     1       1.171   9.286  19.865  0.00  0.00    +0.000 A 
ATOM     13  N   UNL     1       1.193   9.161  21.173  0.00  0.00    +0.000 NA
ATOM     14  N   UNL     1       1.393   7.821  21.436  0.00  0.00    +0.000 NA
ATOM     15  C   UNL     1       1.489   7.224  20.263  0.00  0.00    +0.000 A 
ATOM     16  O   UNL     1       1.346   8.099  19.218  0.00  0.00    +0.000 OA
ATOM     17  H   UNL     1       1.291  10.191  18.100  0.00  0.00    +0.000 HD
BRANCH  11  19
ATOM     18  C   UNL     1       2.224  12.418  18.492  0.00  0.00    +0.000 C 
ATOM     19  C   UNL     1       1.484  11.659  19.594  0.00  0.00    +0.000 C 
ATOM     20  C   UNL     1       0.283  12.471  20.072  0.00  0.00    +0.000 C 
ENDBRANCH  11  19
ENDBRANCH   1  15
BRANCH   7  21
ATOM     21  C   UNL     1       4.987   3.809  17.168  0.00  0.00    +0.000 A 
ATOM     22  C   UNL     1       5.124   3.558  15.821  0.00  0.00    +0.000 A 
ATOM     23  C   UNL     1       6.281   4.016  15.246  0.00  0.00    +0.000 A 
ATOM     24  N   UNL     1       7.237   4.670  15.924  0.00  0.00    +0.000 NA
ATOM     25  C   UNL     1       7.027   4.886  17.240  0.00  0.00    +0.000 A 
ATOM     26  N   UNL     1       5.915   4.476  17.884  0.00  0.00    +0.000 NA
BRANCH  25  27
ATOM     27  C   UNL     1       8.121   5.570  18.023  0.00  0.00    +0.000 C 
ATOM     28  C   UNL     1       7.952   7.018  18.429  0.00  0.00    +0.000 C 
ATOM     29  C   UNL     1       7.937   5.945  19.476  0.00  0.00    +0.000 C 
ENDBRANCH  25  27
ENDBRANCH   7  21
TORSDOF 4
ENDMDL
