MODEL 1
REMARK VINA RESULT:      -6.6      0.000      0.000
REMARK  Name = 
REMARK  3 active torsions:
REMARK  status: ('A' for Active; 'I' for Inactive)
REMARK    1  A    between atoms: C_1  and  C_2
REMARK    2  A    between atoms: C_4  and  C_5
REMARK    3  A    between atoms: C_15  and  C_17
REMARK                            x       y       z     vdW  Elec       q    Type
REMARK                         _______ _______ _______ _____ _____    ______ ____
ROOT
ATOM      1  C   UNL     1       1.661   5.868  18.471  0.00  0.00    +0.000 C 
ATOM      2  O   UNL     1       1.544   5.841  17.247  0.00  0.00    +0.000 OA
ATOM      3  N   UNL     1       1.841   4.680  19.204  0.00  0.00    +0.000 N 
ATOM      4  C   UNL     1       2.210   4.619  20.623  0.00  0.00    +0.000 C 
ATOM      5  C   UNL     1       2.815   3.277  21.043  0.00  0.00    +0.000 C 
ATOM      6  C   UNL     1       1.894   2.116  20.645  0.00  0.00    +0.000 C 
ATOM      7  C   UNL     1       1.273   2.296  19.264  0.00  0.00    +0.000 C 
ATOM      8  C   UNL     1       1.950   3.411  18.467  0.00  0.00    +0.000 C 
ATOM      9  C   UNL     1       3.422   3.063  18.124  0.00  0.00    +0.000 C 
ATOM     10  N   UNL     1       4.419   3.543  19.100  0.00  0.00    +0.000 N 
ATOM     11  C   UNL     1       5.443   4.467  18.832  0.00  0.00    +0.000 C 
ATOM     12  O   UNL     1       6.098   5.002  19.729  0.00  0.00    +0.000 OA
ATOM     13  C   UNL     1       4.243   3.117  20.492  0.00  0.00    +0.000 C 
ENDROOT
BRANCH   1  17
ATOM     14  C   UNL     1       1.134   9.088  22.406  0.00  0.00    +0.000 C 
ATOM     15  C   UNL     1       1.418   8.576  21.040  0.00  0.00    +0.000 A 
ATOM     16  C   UNL     1       1.496   7.269  20.605  0.00  0.00    +0.000 A 
ATOM     17  C   UNL     1       1.687   7.153  19.182  0.00  0.00    +0.000 A 
ATOM     18  C   UNL     1       1.948   8.407  18.655  0.00  0.00    +0.000 A 
ATOM     19  S   UNL     1       1.700   9.677  19.769  0.00  0.00    +0.000 S 
ENDBRANCH   1  17
BRANCH  11  20
ATOM     20  C   UNL     1       5.802   4.857  17.443  0.00  0.00    +0.000 A 
ATOM     21  C   UNL     1       5.034   5.842  16.815  0.00  0.00    +0.000 A 
ATOM     22  C   UNL     1       5.375   6.216  15.528  0.00  0.00    +0.000 A 
ATOM     23  N   UNL     1       6.401   5.673  14.839  0.00  0.00    +0.000 NA
ATOM     24  C   UNL     1       7.151   4.756  15.481  0.00  0.00    +0.000 A 
ATOM     25  C   UNL     1       6.922   4.353  16.784  0.00  0.00    +0.000 A 
ENDBRANCH  11  20
TORSDOF 2
ENDMDL
MODEL 2
REMARK VINA RESULT:      -6.5      6.175      9.805
REMARK  Name = 
REMARK  3 active torsions:
REMARK  status: ('A' for Active; 'I' for Inactive)
REMARK    1  A    between atoms: C_1  and  C_2
REMARK    2  A    between atoms: C_4  and  C_5
REMARK    3  A    between atoms: C_15  and  C_17
REMARK                            x       y       z     vdW  Elec       q    Type
REMARK                         _______ _______ _______ _____ _____    ______ ____
ROOT
ATOM      1  C   UNL     1      -1.087  13.605  22.500  0.00  0.00    +0.000 C 
ATOM      2  O   UNL     1      -0.431  12.962  23.317  0.00  0.00    +0.000 OA
ATOM      3  N   UNL     1      -0.452  14.334  21.478  0.00  0.00    +0.000 N 
ATOM      4  C   UNL     1      -1.137  14.945  20.333  0.00  0.00    +0.000 C 
ATOM      5  C   UNL     1      -0.213  15.234  19.148  0.00  0.00    +0.000 C 
ATOM      6  C   UNL     1       0.999  16.064  19.592  0.00  0.00    +0.000 C 
ATOM      7  C   UNL     1       1.566  15.615  20.934  0.00  0.00    +0.000 C 
ATOM      8  C   UNL     1       1.014  14.258  21.370  0.00  0.00    +0.000 C 
ATOM      9  C   UNL     1       1.469  13.118  20.422  0.00  0.00    +0.000 C 
ATOM     10  N   UNL     1       0.540  12.821  19.315  0.00  0.00    +0.000 N 
ATOM     11  C   UNL     1      -0.127  11.601  19.114  0.00  0.00    +0.000 C 
ATOM     12  O   UNL     1      -1.057  11.484  18.314  0.00  0.00    +0.000 OA
ATOM     13  C   UNL     1       0.189  13.935  18.428  0.00  0.00    +0.000 C 
ENDROOT
BRANCH   1  17
ATOM     14  C   UNL     1      -5.800  12.274  21.033  0.00  0.00    +0.000 C 
ATOM     15  C   UNL     1      -4.695  12.909  21.798  0.00  0.00    +0.000 A 
ATOM     16  C   UNL     1      -3.338  12.682  21.705  0.00  0.00    +0.000 A 
ATOM     17  C   UNL     1      -2.556  13.562  22.535  0.00  0.00    +0.000 A 
ATOM     18  C   UNL     1      -3.403  14.274  23.368  0.00  0.00    +0.000 A 
ATOM     19  S   UNL     1      -5.054  14.090  22.975  0.00  0.00    +0.000 S 
ENDBRANCH   1  17
BRANCH  11  20
ATOM     20  C   UNL     1       0.252  10.371  19.859  0.00  0.00    +0.000 A 
ATOM     21  C   UNL     1      -0.424  10.085  21.048  0.00  0.00    +0.000 A 
ATOM     22  C   UNL     1      -0.082   8.934  21.735  0.00  0.00    +0.000 A 
ATOM     23  N   UNL     1       0.877   8.077  21.327  0.00  0.00    +0.000 NA
ATOM     24  C   UNL     1       1.484   8.353  20.155  0.00  0.00    +0.000 A 
ATOM     25  C   UNL     1       1.178   9.450  19.372  0.00  0.00    +0.000 A 
ENDBRANCH  11  20
TORSDOF 2
ENDMDL
MODEL 3
REMARK VINA RESULT:      -6.5      5.061      8.078
REMARK  Name = 
REMARK  3 active torsions:
REMARK  status: ('A' for Active; 'I' for Inactive)
REMARK    1  A    between atoms: C_1  and  C_2
REMARK    2  A    between atoms: C_4  and  C_5
REMARK    3  A    between atoms: C_15  and  C_17
REMARK                            x       y       z     vdW  Elec       q    Type
REMARK                         _______ _______ _______ _____ _____    ______ ____
ROOT
ATOM      1  C   UNL     1       0.548  13.560  19.802  0.00  0.00    +0.000 C 
ATOM      2  O   UNL     1       0.515  13.271  18.608  0.00  0.00    +0.000 OA
ATOM      3  N   UNL     1      -0.486  13.160  20.670  0.00  0.00    +0.000 N 
ATOM      4  C   UNL     1      -0.436  13.255  22.133  0.00  0.00    +0.000 C 
ATOM      5  C   UNL     1      -1.427  12.329  22.843  0.00  0.00    +0.000 C 
ATOM      6  C   UNL     1      -2.850  12.541  22.308  0.00  0.00    +0.000 C 
ATOM      7  C   UNL     1      -2.894  12.722  20.794  0.00  0.00    +0.000 C 
ATOM      8  C   UNL     1      -1.575  12.333  20.126  0.00  0.00    +0.000 C 
ATOM      9  C   UNL     1      -1.282  10.816  20.269  0.00  0.00    +0.000 C 
ATOM     10  N   UNL     1      -0.468  10.448  21.443  0.00  0.00    +0.000 N 
ATOM     11  C   UNL     1       0.802   9.847  21.400  0.00  0.00    +0.000 C 
ATOM     12  O   UNL     1       1.528   9.772  22.393  0.00  0.00    +0.000 OA
ATOM     13  C   UNL     1      -0.973  10.862  22.756  0.00  0.00    +0.000 C 
ENDROOT
BRANCH   1  17
ATOM     14  C   UNL     1       5.044  14.104  22.174  0.00  0.00    +0.000 C 
ATOM     15  C   UNL     1       3.782  14.439  21.464  0.00  0.00    +0.000 A 
ATOM     16  C   UNL     1       2.877  13.591  20.860  0.00  0.00    +0.000 A 
ATOM     17  C   UNL     1       1.709  14.268  20.359  0.00  0.00    +0.000 A 
ATOM     18  C   UNL     1       1.905  15.636  20.441  0.00  0.00    +0.000 A 
ATOM     19  S   UNL     1       3.300  16.069  21.326  0.00  0.00    +0.000 S 
ENDBRANCH   1  17
BRANCH  11  20
ATOM     20  C   UNL     1       1.348   9.262  20.147  0.00  0.00    +0.000 A 
ATOM     21  C   UNL     1       1.815   7.946  20.181  0.00  0.00    +0.000 A 
ATOM     22  C   UNL     1       2.311   7.397  19.013  0.00  0.00    +0.000 A 
ATOM     23  N   UNL     1       2.381   8.066  17.843  0.00  0.00    +0.000 NA
ATOM     24  C   UNL     1       1.886   9.320  17.826  0.00  0.00    +0.000 A 
ATOM     25  C   UNL     1       1.324   9.938  18.928  0.00  0.00    +0.000 A 
ENDBRANCH  11  20
TORSDOF 2
ENDMDL
MODEL 4
REMARK VINA RESULT:      -6.3      8.595     12.739
REMARK  Name = 
REMARK  3 active torsions:
REMARK  status: ('A' for Active; 'I' for Inactive)
REMARK    1  A    between atoms: C_1  and  C_2
REMARK    2  A    between atoms: C_4  and  C_5
REMARK    3  A    between atoms: C_15  and  C_17
REMARK                            x       y       z     vdW  Elec       q    Type
REMARK                         _______ _______ _______ _____ _____    ______ ____
ROOT
ATOM      1  C   UNL     1      -1.861  14.058  21.418  0.00  0.00    +0.000 C 
ATOM      2  O   UNL     1      -2.634  14.329  20.502  0.00  0.00    +0.000 OA
ATOM      3  N   UNL     1      -1.795  14.866  22.569  0.00  0.00    +0.000 N 
ATOM      4  C   UNL     1      -1.081  14.513  23.801  0.00  0.00    +0.000 C 
ATOM      5  C   UNL     1      -1.559  15.289  25.031  0.00  0.00    +0.000 C 
ATOM      6  C   UNL     1      -1.526  16.801  24.768  0.00  0.00    +0.000 C 
ATOM      7  C   UNL     1      -2.013  17.172  23.372  0.00  0.00    +0.000 C 
ATOM      8  C   UNL     1      -2.719  16.007  22.677  0.00  0.00    +0.000 C 
ATOM      9  C   UNL     1      -4.039  15.621  23.395  0.00  0.00    +0.000 C 
ATOM     10  N   UNL     1      -3.906  14.562  24.414  0.00  0.00    +0.000 N 
ATOM     11  C   UNL     1      -4.530  13.304  24.369  0.00  0.00    +0.000 C 
ATOM     12  O   UNL     1      -4.207  12.382  25.121  0.00  0.00    +0.000 OA
ATOM     13  C   UNL     1      -2.942  14.797  25.493  0.00  0.00    +0.000 C 
ENDROOT
BRANCH   1  17
ATOM     14  C   UNL     1      -0.385   9.308  22.600  0.00  0.00    +0.000 C 
ATOM     15  C   UNL     1      -0.420  10.648  21.957  0.00  0.00    +0.000 A 
ATOM     16  C   UNL     1      -1.399  11.617  22.031  0.00  0.00    +0.000 A 
ATOM     17  C   UNL     1      -1.042  12.839  21.358  0.00  0.00    +0.000 A 
ATOM     18  C   UNL     1       0.121  12.637  20.635  0.00  0.00    +0.000 A 
ATOM     19  S   UNL     1       0.881  11.146  20.974  0.00  0.00    +0.000 S 
ENDBRANCH   1  17
BRANCH  11  20
ATOM     20  C   UNL     1      -5.625  13.007  23.407  0.00  0.00    +0.000 A 
ATOM     21  C   UNL     1      -5.279  12.694  22.090  0.00  0.00    +0.000 A 
ATOM     22  C   UNL     1      -6.295  12.404  21.197  0.00  0.00    +0.000 A 
ATOM     23  N   UNL     1      -7.604  12.420  21.525  0.00  0.00    +0.000 NA
ATOM     24  C   UNL     1      -7.909  12.685  22.811  0.00  0.00    +0.000 A 
ATOM     25  C   UNL     1      -6.964  12.937  23.788  0.00  0.00    +0.000 A 
ENDBRANCH  11  20
TORSDOF 2
ENDMDL
MODEL 5
REMARK VINA RESULT:      -6.3      7.315     10.834
REMARK  Name = 
REMARK  3 active torsions:
REMARK  status: ('A' for Active; 'I' for Inactive)
REMARK    1  A    between atoms: C_1  and  C_2
REMARK    2  A    between atoms: C_4  and  C_5
REMARK    3  A    between atoms: C_15  and  C_17
REMARK                            x       y       z     vdW  Elec       q    Type
REMARK                         _______ _______ _______ _____ _____    ______ ____
ROOT
ATOM      1  C   UNL     1       2.123  13.481  20.275  0.00  0.00    +0.000 C 
ATOM      2  O   UNL     1       2.661  13.473  21.380  0.00  0.00    +0.000 OA
ATOM      3  N   UNL     1       1.171  12.504  19.929  0.00  0.00    +0.000 N 
ATOM      4  C   UNL     1       0.315  12.551  18.738  0.00  0.00    +0.000 C 
ATOM      5  C   UNL     1      -0.935  11.675  18.845  0.00  0.00    +0.000 C 
ATOM      6  C   UNL     1      -0.560  10.234  19.218  0.00  0.00    +0.000 C 
ATOM      7  C   UNL     1       0.539  10.161  20.273  0.00  0.00    +0.000 C 
ATOM      8  C   UNL     1       0.786  11.511  20.945  0.00  0.00    +0.000 C 
ATOM      9  C   UNL     1      -0.439  11.974  21.777  0.00  0.00    +0.000 C 
ATOM     10  N   UNL     1      -1.396  12.831  21.051  0.00  0.00    +0.000 N 
ATOM     11  C   UNL     1      -1.713  14.159  21.381  0.00  0.00    +0.000 C 
ATOM     12  O   UNL     1      -2.338  14.895  20.614  0.00  0.00    +0.000 OA
ATOM     13  C   UNL     1      -1.962  12.290  19.811  0.00  0.00    +0.000 C 
ENDROOT
BRANCH   1  17
ATOM     14  C   UNL     1       1.367  17.837  17.708  0.00  0.00    +0.000 C 
ATOM     15  C   UNL     1       1.996  16.573  18.173  0.00  0.00    +0.000 A 
ATOM     16  C   UNL     1       1.634  15.765  19.231  0.00  0.00    +0.000 A 
ATOM     17  C   UNL     1       2.415  14.558  19.319  0.00  0.00    +0.000 A 
ATOM     18  C   UNL     1       3.469  14.632  18.424  0.00  0.00    +0.000 A 
ATOM     19  S   UNL     1       3.357  15.956  17.352  0.00  0.00    +0.000 S 
ENDBRANCH   1  17
BRANCH  11  20
ATOM     20  C   UNL     1      -1.312  14.761  22.680  0.00  0.00    +0.000 A 
ATOM     21  C   UNL     1      -0.231  15.646  22.692  0.00  0.00    +0.000 A 
ATOM     22  C   UNL     1       0.134  16.217  23.898  0.00  0.00    +0.000 A 
ATOM     23  N   UNL     1      -0.488  15.957  25.067  0.00  0.00    +0.000 NA
ATOM     24  C   UNL     1      -1.553  15.132  25.021  0.00  0.00    +0.000 A 
ATOM     25  C   UNL     1      -2.026  14.552  23.859  0.00  0.00    +0.000 A 
ENDBRANCH  11  20
TORSDOF 2
ENDMDL
MODEL 6
REMARK VINA RESULT:      -6.3      5.198      8.157
REMARK  Name = 
REMARK  3 active torsions:
REMARK  status: ('A' for Active; 'I' for Inactive)
REMARK    1  A    between atoms: C_1  and  C_2
REMARK    2  A    between atoms: C_4  and  C_5
REMARK    3  A    between atoms: C_15  and  C_17
REMARK                            x       y       z     vdW  Elec       q    Type
REMARK                         _______ _______ _______ _____ _____    ______ ____
ROOT
ATOM      1  C   UNL     1       0.610  13.454  19.690  0.00  0.00    +0.000 C 
ATOM      2  O   UNL     1       0.569  13.120  18.508  0.00  0.00    +0.000 OA
ATOM      3  N   UNL     1      -0.426  13.100  20.575  0.00  0.00    +0.000 N 
ATOM      4  C   UNL     1      -0.371  13.251  22.034  0.00  0.00    +0.000 C 
ATOM      5  C   UNL     1      -1.371  12.365  22.781  0.00  0.00    +0.000 C 
ATOM      6  C   UNL     1      -2.793  12.574  22.242  0.00  0.00    +0.000 C 
ATOM      7  C   UNL     1      -2.840  12.698  20.723  0.00  0.00    +0.000 C 
ATOM      8  C   UNL     1      -1.528  12.267  20.066  0.00  0.00    +0.000 C 
ATOM      9  C   UNL     1      -1.253  10.753  20.266  0.00  0.00    +0.000 C 
ATOM     10  N   UNL     1      -0.440  10.420  21.451  0.00  0.00    +0.000 N 
ATOM     11  C   UNL     1       0.822   9.801  21.428  0.00  0.00    +0.000 C 
ATOM     12  O   UNL     1       1.550   9.755  22.421  0.00  0.00    +0.000 OA
ATOM     13  C   UNL     1      -0.936  10.890  22.749  0.00  0.00    +0.000 C 
ENDROOT
BRANCH   1  17
ATOM     14  C   UNL     1       3.550  17.470  20.856  0.00  0.00    +0.000 C 
ATOM     15  C   UNL     1       3.081  16.066  20.720  0.00  0.00    +0.000 A 
ATOM     16  C   UNL     1       1.840  15.602  20.337  0.00  0.00    +0.000 A 
ATOM     17  C   UNL     1       1.781  14.168  20.217  0.00  0.00    +0.000 A 
ATOM     18  C   UNL     1       2.948  13.621  20.723  0.00  0.00    +0.000 A 
ATOM     19  S   UNL     1       4.151  14.783  21.064  0.00  0.00    +0.000 S 
ENDBRANCH   1  17
BRANCH  11  20
ATOM     20  C   UNL     1       1.357   9.163  20.196  0.00  0.00    +0.000 A 
ATOM     21  C   UNL     1       1.800   7.840  20.277  0.00  0.00    +0.000 A 
ATOM     22  C   UNL     1       2.286   7.241  19.130  0.00  0.00    +0.000 A 
ATOM     23  N   UNL     1       2.367   7.867  17.937  0.00  0.00    +0.000 NA
ATOM     24  C   UNL     1       1.894   9.128  17.875  0.00  0.00    +0.000 A 
ATOM     25  C   UNL     1       1.345   9.795  18.954  0.00  0.00    +0.000 A 
ENDBRANCH  11  20
TORSDOF 2
ENDMDL
MODEL 7
REMARK VINA RESULT:      -6.3      7.881      9.616
REMARK  Name = 
REMARK  3 active torsions:
REMARK  status: ('A' for Active; 'I' for Inactive)
REMARK    1  A    between atoms: C_1  and  C_2
REMARK    2  A    between atoms: C_4  and  C_5
REMARK    3  A    between atoms: C_15  and  C_17
REMARK                            x       y       z     vdW  Elec       q    Type
REMARK                         _______ _______ _______ _____ _____    ______ ____
ROOT
ATOM      1  C   UNL     1      -1.322  10.900  19.477  0.00  0.00    +0.000 C 
ATOM      2  O   UNL     1      -0.214  10.375  19.382  0.00  0.00    +0.000 OA
ATOM      3  N   UNL     1      -1.710  11.556  20.660  0.00  0.00    +0.000 N 
ATOM      4  C   UNL     1      -2.904  12.398  20.799  0.00  0.00    +0.000 C 
ATOM      5  C   UNL     1      -2.837  13.366  21.983  0.00  0.00    +0.000 C 
ATOM      6  C   UNL     1      -2.517  12.616  23.283  0.00  0.00    +0.000 C 
ATOM      7  C   UNL     1      -1.459  11.533  23.098  0.00  0.00    +0.000 C 
ATOM      8  C   UNL     1      -0.734  11.655  21.758  0.00  0.00    +0.000 C 
ATOM      9  C   UNL     1       0.107  12.956  21.673  0.00  0.00    +0.000 C 
ATOM     10  N   UNL     1      -0.591  14.111  21.078  0.00  0.00    +0.000 N 
ATOM     11  C   UNL     1      -0.214  14.773  19.898  0.00  0.00    +0.000 C 
ATOM     12  O   UNL     1      -0.955  15.576  19.328  0.00  0.00    +0.000 OA
ATOM     13  C   UNL     1      -1.854  14.516  21.703  0.00  0.00    +0.000 C 
ENDROOT
BRANCH   1  17
ATOM     14  C   UNL     1      -2.857  10.079  14.670  0.00  0.00    +0.000 C 
ATOM     15  C   UNL     1      -2.869  10.506  16.094  0.00  0.00    +0.000 A 
ATOM     16  C   UNL     1      -1.944  10.245  17.083  0.00  0.00    +0.000 A 
ATOM     17  C   UNL     1      -2.234  10.914  18.325  0.00  0.00    +0.000 A 
ATOM     18  C   UNL     1      -3.493  11.484  18.251  0.00  0.00    +0.000 A 
ATOM     19  S   UNL     1      -4.163  11.450  16.680  0.00  0.00    +0.000 S 
ENDBRANCH   1  17
BRANCH  11  20
ATOM     20  C   UNL     1       1.110  14.543  19.260  0.00  0.00    +0.000 A 
ATOM     21  C   UNL     1       2.135  15.456  19.519  0.00  0.00    +0.000 A 
ATOM     22  C   UNL     1       3.371  15.235  18.938  0.00  0.00    +0.000 A 
ATOM     23  N   UNL     1       3.638  14.192  18.125  0.00  0.00    +0.000 NA
ATOM     24  C   UNL     1       2.645  13.303  17.924  0.00  0.00    +0.000 A 
ATOM     25  C   UNL     1       1.392  13.409  18.500  0.00  0.00    +0.000 A 
ENDBRANCH  11  20
TORSDOF 2
ENDMDL
MODEL 8
REMARK VINA RESULT:      -6.3      5.968      9.473
REMARK  Name = 
REMARK  3 active torsions:
REMARK  status: ('A' for Active; 'I' for Inactive)
REMARK    1  A    between atoms: C_1  and  C_2
REMARK    2  A    between atoms: C_4  and  C_5
REMARK    3  A    between atoms: C_15  and  C_17
REMARK                            x       y       z     vdW  Elec       q    Type
REMARK                         _______ _______ _______ _____ _____    ______ ____
ROOT
ATOM      1  C   UNL     1       0.971  12.599  20.881  0.00  0.00    +0.000 C 
ATOM      2  O   UNL     1       0.336  12.683  21.930  0.00  0.00    +0.000 OA
ATOM      3  N   UNL     1       1.108  11.364  20.219  0.00  0.00    +0.000 N 
ATOM      4  C   UNL     1       1.646  11.195  18.864  0.00  0.00    +0.000 C 
ATOM      5  C   UNL     1       1.239   9.877  18.202  0.00  0.00    +0.000 C 
ATOM      6  C   UNL     1       1.585   8.685  19.104  0.00  0.00    +0.000 C 
ATOM      7  C   UNL     1       1.284   8.946  20.576  0.00  0.00    +0.000 C 
ATOM      8  C   UNL     1       0.419  10.190  20.777  0.00  0.00    +0.000 C 
ATOM      9  C   UNL     1      -1.001  10.008  20.177  0.00  0.00    +0.000 C 
ATOM     10  N   UNL     1      -1.153  10.476  18.786  0.00  0.00    +0.000 N 
ATOM     11  C   UNL     1      -2.005  11.508  18.361  0.00  0.00    +0.000 C 
ATOM     12  O   UNL     1      -1.925  12.007  17.237  0.00  0.00    +0.000 OA
ATOM     13  C   UNL     1      -0.244   9.899  17.790  0.00  0.00    +0.000 C 
ENDROOT
BRANCH   1  17
ATOM     14  C   UNL     1       1.010  16.934  18.171  0.00  0.00    +0.000 C 
ATOM     15  C   UNL     1       1.479  15.791  18.998  0.00  0.00    +0.000 A 
ATOM     16  C   UNL     1       0.734  14.822  19.637  0.00  0.00    +0.000 A 
ATOM     17  C   UNL     1       1.539  13.804  20.262  0.00  0.00    +0.000 A 
ATOM     18  C   UNL     1       2.868  14.190  20.225  0.00  0.00    +0.000 A 
ATOM     19  S   UNL     1       3.150  15.562  19.249  0.00  0.00    +0.000 S 
ENDBRANCH   1  17
BRANCH  11  20
ATOM     20  C   UNL     1      -3.062  12.065  19.247  0.00  0.00    +0.000 A 
ATOM     21  C   UNL     1      -2.675  12.929  20.274  0.00  0.00    +0.000 A 
ATOM     22  C   UNL     1      -3.658  13.459  21.090  0.00  0.00    +0.000 A 
ATOM     23  N   UNL     1      -4.971  13.177  20.956  0.00  0.00    +0.000 NA
ATOM     24  C   UNL     1      -5.323  12.374  19.932  0.00  0.00    +0.000 A 
ATOM     25  C   UNL     1      -4.421  11.836  19.034  0.00  0.00    +0.000 A 
ENDBRANCH  11  20
TORSDOF 2
ENDMDL
MODEL 9
REMARK VINA RESULT:      -6.3      7.310     10.831
REMARK  Name = 
REMARK  3 active torsions:
REMARK  status: ('A' for Active; 'I' for Inactive)
REMARK    1  A    between atoms: C_1  and  C_2
REMARK    2  A    between atoms: C_4  and  C_5
REMARK    3  A    between atoms: C_15  and  C_17
REMARK                            x       y       z     vdW  Elec       q    Type
REMARK                         _______ _______ _______ _____ _____    ______ ____
ROOT
ATOM      1  C   UNL     1       1.051  13.857  20.567  0.00  0.00    +0.000 C 
ATOM      2  O   UNL     1       1.356  13.880  21.757  0.00  0.00    +0.000 OA
ATOM      3  N   UNL     1       0.655  12.657  19.947  0.00  0.00    +0.000 N 
ATOM      4  C   UNL     1       0.063  12.560  18.608  0.00  0.00    +0.000 C 
ATOM      5  C   UNL     1      -0.716  11.264  18.373  0.00  0.00    +0.000 C 
ATOM      6  C   UNL     1       0.151  10.041  18.700  0.00  0.00    +0.000 C 
ATOM      7  C   UNL     1       0.994  10.229  19.956  0.00  0.00    +0.000 C 
ATOM      8  C   UNL     1       0.552  11.443  20.773  0.00  0.00    +0.000 C 
ATOM      9  C   UNL     1      -0.873  11.256  21.358  0.00  0.00    +0.000 C 
ATOM     10  N   UNL     1      -1.965  11.781  20.516  0.00  0.00    +0.000 N 
ATOM     11  C   UNL     1      -2.849  12.812  20.875  0.00  0.00    +0.000 C 
ATOM     12  O   UNL     1      -3.587  13.362  20.055  0.00  0.00    +0.000 OA
ATOM     13  C   UNL     1      -2.048  11.271  19.144  0.00  0.00    +0.000 C 
ENDROOT
BRANCH   1  17
ATOM     14  C   UNL     1      -1.005  17.883  18.180  0.00  0.00    +0.000 C 
ATOM     15  C   UNL     1       0.007  16.929  18.705  0.00  0.00    +0.000 A 
ATOM     16  C   UNL     1      -0.168  15.880  19.584  0.00  0.00    +0.000 A 
ATOM     17  C   UNL     1       1.027  15.101  19.786  0.00  0.00    +0.000 A 
ATOM     18  C   UNL     1       2.096  15.747  19.190  0.00  0.00    +0.000 A 
ATOM     19  S   UNL     1       1.633  17.068  18.211  0.00  0.00    +0.000 S 
ENDBRANCH   1  17
BRANCH  11  20
ATOM     20  C   UNL     1      -2.949  13.305  22.275  0.00  0.00    +0.000 A 
ATOM     21  C   UNL     1      -2.191  14.421  22.638  0.00  0.00    +0.000 A 
ATOM     22  C   UNL     1      -2.293  14.889  23.935  0.00  0.00    +0.000 A 
ATOM     23  N   UNL     1      -3.076  14.319  24.875  0.00  0.00    +0.000 NA
ATOM     24  C   UNL     1      -3.828  13.269  24.489  0.00  0.00    +0.000 A 
ATOM     25  C   UNL     1      -3.834  12.760  23.204  0.00  0.00    +0.000 A 
ENDBRANCH  11  20
TORSDOF 2
ENDMDL
