MODEL 1
REMARK VINA RESULT:      -9.9      0.000      0.000
REMARK  Name = 
REMARK  9 active torsions:
REMARK  status: ('A' for Active; 'I' for Inactive)
REMARK    1  A    between atoms: C_1  and  C_2
REMARK    2  A    between atoms: C_4  and  C_5
REMARK    3  A    between atoms: N_17  and  C_18
REMARK    4  A    between atoms: C_21  and  C_22
REMARK    5  A    between atoms: C_23  and  O_24
REMARK    6  A    between atoms: O_24  and  C_25
REMARK    7  A    between atoms: C_25  and  C_26
REMARK    8  A    between atoms: C_30  and  C_31
REMARK    9  A    between atoms: N_33  and  O_34
REMARK                            x       y       z     vdW  Elec       q    Type
REMARK                         _______ _______ _______ _____ _____    ______ ____
ROOT
ATOM      1  C   UNL     1       3.562   6.869  17.095  0.00  0.00    +0.000 C 
ATOM      2  C   UNL     1       2.844   6.734  18.412  0.00  0.00    +0.000 A 
ATOM      3  C   UNL     1       2.250   7.913  18.908  0.00  0.00    +0.000 A 
ATOM      4  C   UNL     1       1.529   7.921  20.103  0.00  0.00    +0.000 A 
ATOM      5  C   UNL     1       1.355   6.733  20.810  0.00  0.00    +0.000 A 
ATOM      6  C   UNL     1       1.931   5.545  20.346  0.00  0.00    +0.000 A 
ATOM      7  C   UNL     1       1.716   4.292  21.155  0.00  0.00    +0.000 C 
ATOM      8  C   UNL     1       2.696   5.539  19.154  0.00  0.00    +0.000 A 
ENDROOT
BRANCH   4   9
ATOM      9  C   UNL     1       0.951   9.191  20.592  0.00  0.00    +0.000 A 
ATOM     10  N   UNL     1       0.995  10.265  19.862  0.00  0.00    +0.000 NA
ATOM     11  C   UNL     1       0.429  11.361  20.429  0.00  0.00    +0.000 A 
ATOM     12  S   UNL     1       0.330  12.851  19.600  0.00  0.00    +0.000 S 
ATOM     13  C   UNL     1      -0.476  13.585  20.907  0.00  0.00    +0.000 A 
ATOM     14  C   UNL     1      -0.627  12.733  21.986  0.00  0.00    +0.000 A 
ATOM     15  C   UNL     1      -0.135  11.436  21.685  0.00  0.00    +0.000 A 
ATOM     16  C   UNL     1      -0.158  10.240  22.491  0.00  0.00    +0.000 A 
ATOM     17  O   UNL     1      -0.626  10.166  23.623  0.00  0.00    +0.000 OA
ATOM     18  N   UNL     1       0.398   9.154  21.860  0.00  0.00    +0.000 N 
ATOM     19  C   UNL     1      -1.303  13.188  23.243  0.00  0.00    +0.000 C 
ATOM     20  C   UNL     1      -1.486  14.722  23.232  0.00  0.00    +0.000 C 
ATOM     21  N   UNL     1      -1.950  15.282  21.939  0.00  0.00    +0.000 NA
ATOM     22  C   UNL     1      -3.268  14.755  21.569  0.00  0.00    +0.000 C 
ATOM     23  C   UNL     1      -0.949  15.009  20.876  0.00  0.00    +0.000 C 
ATOM     24  H   UNL     1       0.427   8.319  22.435  0.00  0.00    +0.000 HD
ENDBRANCH   4   9
BRANCH   8  25
ATOM     25  O   UNL     1       3.165   4.293  18.822  0.00  0.00    +0.000 OA
BRANCH  25  26
ATOM     26  C   UNL     1       4.448   3.903  19.300  0.00  0.00    +0.000 C 
BRANCH  26  27
ATOM     27  C   UNL     1       5.567   4.551  18.509  0.00  0.00    +0.000 A 
ATOM     28  C   UNL     1       6.405   5.470  19.161  0.00  0.00    +0.000 A 
ATOM     29  C   UNL     1       7.436   6.112  18.477  0.00  0.00    +0.000 A 
ATOM     30  C   UNL     1       7.641   5.851  17.124  0.00  0.00    +0.000 A 
ATOM     31  C   UNL     1       6.811   4.946  16.452  0.00  0.00    +0.000 A 
ATOM     32  C   UNL     1       5.763   4.314  17.141  0.00  0.00    +0.000 A 
BRANCH  31  33
ATOM     33  C   UNL     1       6.989   4.662  15.003  0.00  0.00    +0.000 C 
ATOM     34  O   UNL     1       7.675   5.385  14.286  0.00  0.00    +0.000 OA
ATOM     35  N   UNL     1       6.320   3.567  14.504  0.00  0.00    +0.000 N 
ATOM     36  H   UNL     1       5.567   3.085  14.982  0.00  0.00    +0.000 HD
BRANCH  35  37
ATOM     37  O   UNL     1       6.408   3.375  13.105  0.00  0.00    +0.000 OA
ATOM     38  H   UNL     1       7.238   3.854  12.884  0.00  0.00    +0.000 HD
ENDBRANCH  35  37
ENDBRANCH  31  33
ENDBRANCH  26  27
ENDBRANCH  25  26
ENDBRANCH   8  25
TORSDOF 6
ENDMDL
MODEL 2
REMARK VINA RESULT:      -9.5      0.552      1.573
REMARK  Name = 
REMARK  9 active torsions:
REMARK  status: ('A' for Active; 'I' for Inactive)
REMARK    1  A    between atoms: C_1  and  C_2
REMARK    2  A    between atoms: C_4  and  C_5
REMARK    3  A    between atoms: N_17  and  C_18
REMARK    4  A    between atoms: C_21  and  C_22
REMARK    5  A    between atoms: C_23  and  O_24
REMARK    6  A    between atoms: O_24  and  C_25
REMARK    7  A    between atoms: C_25  and  C_26
REMARK    8  A    between atoms: C_30  and  C_31
REMARK    9  A    between atoms: N_33  and  O_34
REMARK                            x       y       z     vdW  Elec       q    Type
REMARK                         _______ _______ _______ _____ _____    ______ ____
ROOT
ATOM      1  C   UNL     1       2.114   4.046  21.627  0.00  0.00    +0.000 C 
ATOM      2  C   UNL     1       2.180   5.158  20.615  0.00  0.00    +0.000 A 
ATOM      3  C   UNL     1       1.597   6.380  21.010  0.00  0.00    +0.000 A 
ATOM      4  C   UNL     1       1.617   7.501  20.179  0.00  0.00    +0.000 A 
ATOM      5  C   UNL     1       2.257   7.431  18.944  0.00  0.00    +0.000 A 
ATOM      6  C   UNL     1       2.845   6.235  18.520  0.00  0.00    +0.000 A 
ATOM      7  C   UNL     1       3.518   6.215  17.171  0.00  0.00    +0.000 C 
ATOM      8  C   UNL     1       2.795   5.083  19.344  0.00  0.00    +0.000 A 
ENDROOT
BRANCH   4   9
ATOM      9  C   UNL     1       0.967   8.750  20.632  0.00  0.00    +0.000 A 
ATOM     10  N   UNL     1       0.702   9.704  19.789  0.00  0.00    +0.000 NA
ATOM     11  C   UNL     1       0.106  10.794  20.336  0.00  0.00    +0.000 A 
ATOM     12  S   UNL     1      -0.381  12.125  19.380  0.00  0.00    +0.000 S 
ATOM     13  C   UNL     1      -1.004  12.938  20.738  0.00  0.00    +0.000 A 
ATOM     14  C   UNL     1      -0.806  12.241  21.916  0.00  0.00    +0.000 A 
ATOM     15  C   UNL     1      -0.197  10.983  21.667  0.00  0.00    +0.000 A 
ATOM     16  C   UNL     1       0.122   9.924  22.593  0.00  0.00    +0.000 A 
ATOM     17  O   UNL     1      -0.091   9.960  23.801  0.00  0.00    +0.000 OA
ATOM     18  N   UNL     1       0.694   8.831  21.986  0.00  0.00    +0.000 N 
ATOM     19  C   UNL     1      -1.273  12.789  23.229  0.00  0.00    +0.000 C 
ATOM     20  C   UNL     1      -1.681  14.272  23.080  0.00  0.00    +0.000 C 
ATOM     21  N   UNL     1      -2.475  14.578  21.865  0.00  0.00    +0.000 NA
ATOM     22  C   UNL     1      -3.747  13.847  21.859  0.00  0.00    +0.000 C 
ATOM     23  C   UNL     1      -1.681  14.275  20.646  0.00  0.00    +0.000 C 
ATOM     24  H   UNL     1       0.963   8.099  22.633  0.00  0.00    +0.000 HD
ENDBRANCH   4   9
BRANCH   8  25
ATOM     25  O   UNL     1       3.443   4.003  18.798  0.00  0.00    +0.000 OA
BRANCH  25  26
ATOM     26  C   UNL     1       4.773   3.726  19.223  0.00  0.00    +0.000 C 
BRANCH  26  27
ATOM     27  C   UNL     1       5.799   4.471  18.392  0.00  0.00    +0.000 A 
ATOM     28  C   UNL     1       6.572   5.466  19.013  0.00  0.00    +0.000 A 
ATOM     29  C   UNL     1       7.513   6.198  18.292  0.00  0.00    +0.000 A 
ATOM     30  C   UNL     1       7.693   5.953  16.933  0.00  0.00    +0.000 A 
ATOM     31  C   UNL     1       6.926   4.972  16.291  0.00  0.00    +0.000 A 
ATOM     32  C   UNL     1       5.967   4.248  17.018  0.00  0.00    +0.000 A 
BRANCH  31  33
ATOM     33  C   UNL     1       7.078   4.700  14.837  0.00  0.00    +0.000 C 
ATOM     34  O   UNL     1       7.779   5.410  14.121  0.00  0.00    +0.000 OA
ATOM     35  N   UNL     1       6.368   3.634  14.333  0.00  0.00    +0.000 N 
ATOM     36  H   UNL     1       5.605   3.171  14.814  0.00  0.00    +0.000 HD
BRANCH  35  37
ATOM     37  O   UNL     1       6.433   3.457  12.931  0.00  0.00    +0.000 OA
ATOM     38  H   UNL     1       7.398   3.537  12.759  0.00  0.00    +0.000 HD
ENDBRANCH  35  37
ENDBRANCH  31  33
ENDBRANCH  26  27
ENDBRANCH  25  26
ENDBRANCH   8  25
TORSDOF 6
ENDMDL
MODEL 3
REMARK VINA RESULT:      -9.3      1.302      1.806
REMARK  Name = 
REMARK  9 active torsions:
REMARK  status: ('A' for Active; 'I' for Inactive)
REMARK    1  A    between atoms: C_1  and  C_2
REMARK    2  A    between atoms: C_4  and  C_5
REMARK    3  A    between atoms: N_17  and  C_18
REMARK    4  A    between atoms: C_21  and  C_22
REMARK    5  A    between atoms: C_23  and  O_24
REMARK    6  A    between atoms: O_24  and  C_25
REMARK    7  A    between atoms: C_25  and  C_26
REMARK    8  A    between atoms: C_30  and  C_31
REMARK    9  A    between atoms: N_33  and  O_34
REMARK                            x       y       z     vdW  Elec       q    Type
REMARK                         _______ _______ _______ _____ _____    ______ ____
ROOT
ATOM      1  C   UNL     1       3.715   6.719  16.992  0.00  0.00    +0.000 C 
ATOM      2  C   UNL     1       2.981   6.653  18.305  0.00  0.00    +0.000 A 
ATOM      3  C   UNL     1       2.333   7.841  18.703  0.00  0.00    +0.000 A 
ATOM      4  C   UNL     1       1.591   7.908  19.884  0.00  0.00    +0.000 A 
ATOM      5  C   UNL     1       1.452   6.770  20.675  0.00  0.00    +0.000 A 
ATOM      6  C   UNL     1       2.082   5.576  20.310  0.00  0.00    +0.000 A 
ATOM      7  C   UNL     1       1.903   4.378  21.207  0.00  0.00    +0.000 C 
ATOM      8  C   UNL     1       2.867   5.512  19.132  0.00  0.00    +0.000 A 
ENDROOT
BRANCH   4   9
ATOM      9  C   UNL     1       0.955   9.186  20.268  0.00  0.00    +0.000 A 
ATOM     10  N   UNL     1       0.298   9.292  21.385  0.00  0.00    +0.000 NA
ATOM     11  C   UNL     1      -0.237  10.519  21.614  0.00  0.00    +0.000 A 
ATOM     12  S   UNL     1      -1.079  10.874  23.058  0.00  0.00    +0.000 S 
ATOM     13  C   UNL     1      -1.345  12.482  22.568  0.00  0.00    +0.000 A 
ATOM     14  C   UNL     1      -0.850  12.743  21.303  0.00  0.00    +0.000 A 
ATOM     15  C   UNL     1      -0.176  11.611  20.775  0.00  0.00    +0.000 A 
ATOM     16  C   UNL     1       0.538  11.471  19.530  0.00  0.00    +0.000 A 
ATOM     17  O   UNL     1       0.669  12.359  18.693  0.00  0.00    +0.000 OA
ATOM     18  N   UNL     1       1.087  10.223  19.360  0.00  0.00    +0.000 N 
ATOM     19  C   UNL     1      -0.991  14.098  20.681  0.00  0.00    +0.000 C 
ATOM     20  C   UNL     1      -1.977  14.966  21.494  0.00  0.00    +0.000 C 
ATOM     21  N   UNL     1      -1.811  14.879  22.966  0.00  0.00    +0.000 NA
ATOM     22  C   UNL     1      -0.485  15.345  23.384  0.00  0.00    +0.000 C 
ATOM     23  C   UNL     1      -2.056  13.487  23.426  0.00  0.00    +0.000 C 
ATOM     24  H   UNL     1       1.553  10.100  18.469  0.00  0.00    +0.000 HD
ENDBRANCH   4   9
BRANCH   8  25
ATOM     25  O   UNL     1       3.390   4.265  18.901  0.00  0.00    +0.000 OA
BRANCH  25  26
ATOM     26  C   UNL     1       4.710   3.989  19.359  0.00  0.00    +0.000 C 
BRANCH  26  27
ATOM     27  C   UNL     1       5.760   4.665  18.501  0.00  0.00    +0.000 A 
ATOM     28  C   UNL     1       6.561   5.662  19.081  0.00  0.00    +0.000 A 
ATOM     29  C   UNL     1       7.526   6.333  18.333  0.00  0.00    +0.000 A 
ATOM     30  C   UNL     1       7.703   6.024  16.986  0.00  0.00    +0.000 A 
ATOM     31  C   UNL     1       6.907   5.040  16.384  0.00  0.00    +0.000 A 
ATOM     32  C   UNL     1       5.924   4.378  17.138  0.00  0.00    +0.000 A 
BRANCH  31  33
ATOM     33  C   UNL     1       7.054   4.701  14.944  0.00  0.00    +0.000 C 
ATOM     34  O   UNL     1       7.791   5.348  14.204  0.00  0.00    +0.000 OA
ATOM     35  N   UNL     1       6.298   3.648  14.479  0.00  0.00    +0.000 N 
ATOM     36  H   UNL     1       5.513   3.241  14.974  0.00  0.00    +0.000 HD
BRANCH  35  37
ATOM     37  O   UNL     1       6.363   3.410  13.087  0.00  0.00    +0.000 OA
ATOM     38  H   UNL     1       5.748   2.651  12.979  0.00  0.00    +0.000 HD
ENDBRANCH  35  37
ENDBRANCH  31  33
ENDBRANCH  26  27
ENDBRANCH  25  26
ENDBRANCH   8  25
TORSDOF 6
ENDMDL
MODEL 4
REMARK VINA RESULT:      -9.2      1.081      1.189
REMARK  Name = 
REMARK  9 active torsions:
REMARK  status: ('A' for Active; 'I' for Inactive)
REMARK    1  A    between atoms: C_1  and  C_2
REMARK    2  A    between atoms: C_4  and  C_5
REMARK    3  A    between atoms: N_17  and  C_18
REMARK    4  A    between atoms: C_21  and  C_22
REMARK    5  A    between atoms: C_23  and  O_24
REMARK    6  A    between atoms: O_24  and  C_25
REMARK    7  A    between atoms: C_25  and  C_26
REMARK    8  A    between atoms: C_30  and  C_31
REMARK    9  A    between atoms: N_33  and  O_34
REMARK                            x       y       z     vdW  Elec       q    Type
REMARK                         _______ _______ _______ _____ _____    ______ ____
ROOT
ATOM      1  C   UNL     1       3.893   6.949  17.469  0.00  0.00    +0.000 C 
ATOM      2  C   UNL     1       3.066   6.688  18.699  0.00  0.00    +0.000 A 
ATOM      3  C   UNL     1       2.288   7.773  19.155  0.00  0.00    +0.000 A 
ATOM      4  C   UNL     1       1.452   7.656  20.267  0.00  0.00    +0.000 A 
ATOM      5  C   UNL     1       1.350   6.433  20.926  0.00  0.00    +0.000 A 
ATOM      6  C   UNL     1       2.107   5.337  20.500  0.00  0.00    +0.000 A 
ATOM      7  C   UNL     1       1.962   4.040  21.255  0.00  0.00    +0.000 C 
ATOM      8  C   UNL     1       2.986   5.460  19.395  0.00  0.00    +0.000 A 
ENDROOT
BRANCH   4   9
ATOM      9  C   UNL     1       0.679   8.833  20.719  0.00  0.00    +0.000 A 
ATOM     10  N   UNL     1       0.178   9.668  19.858  0.00  0.00    +0.000 NA
ATOM     11  C   UNL     1      -0.507  10.705  20.407  0.00  0.00    +0.000 A 
ATOM     12  S   UNL     1      -1.296  11.871  19.439  0.00  0.00    +0.000 S 
ATOM     13  C   UNL     1      -1.872  12.696  20.811  0.00  0.00    +0.000 A 
ATOM     14  C   UNL     1      -1.435  12.132  21.995  0.00  0.00    +0.000 A 
ATOM     15  C   UNL     1      -0.678  10.956  21.751  0.00  0.00    +0.000 A 
ATOM     16  C   UNL     1      -0.097  10.031  22.694  0.00  0.00    +0.000 A 
ATOM     17  O   UNL     1      -0.170  10.135  23.914  0.00  0.00    +0.000 OA
ATOM     18  N   UNL     1       0.558   8.985  22.089  0.00  0.00    +0.000 N 
ATOM     19  C   UNL     1      -1.823  12.713  23.320  0.00  0.00    +0.000 C 
ATOM     20  C   UNL     1      -2.463  14.107  23.131  0.00  0.00    +0.000 C 
ATOM     21  N   UNL     1      -3.431  14.197  22.010  0.00  0.00    +0.000 NA
ATOM     22  C   UNL     1      -4.570  13.296  22.212  0.00  0.00    +0.000 C 
ATOM     23  C   UNL     1      -2.748  13.911  20.722  0.00  0.00    +0.000 C 
ATOM     24  H   UNL     1       1.007   8.353  22.742  0.00  0.00    +0.000 HD
ENDBRANCH   4   9
BRANCH   8  25
ATOM     25  O   UNL     1       3.631   4.289  19.088  0.00  0.00    +0.000 OA
BRANCH  25  26
ATOM     26  C   UNL     1       3.713   3.900  17.721  0.00  0.00    +0.000 C 
BRANCH  26  27
ATOM     27  C   UNL     1       5.092   4.150  17.143  0.00  0.00    +0.000 A 
ATOM     28  C   UNL     1       6.146   4.441  18.024  0.00  0.00    +0.000 A 
ATOM     29  C   UNL     1       7.429   4.702  17.547  0.00  0.00    +0.000 A 
ATOM     30  C   UNL     1       7.680   4.683  16.177  0.00  0.00    +0.000 A 
ATOM     31  C   UNL     1       6.641   4.405  15.279  0.00  0.00    +0.000 A 
ATOM     32  C   UNL     1       5.345   4.159  15.763  0.00  0.00    +0.000 A 
BRANCH  31  33
ATOM     33  C   UNL     1       6.869   4.398  13.810  0.00  0.00    +0.000 C 
ATOM     34  O   UNL     1       7.561   5.253  13.264  0.00  0.00    +0.000 OA
ATOM     35  N   UNL     1       6.239   3.406  13.093  0.00  0.00    +0.000 N 
ATOM     36  H   UNL     1       5.482   2.832  13.448  0.00  0.00    +0.000 HD
BRANCH  35  37
ATOM     37  O   UNL     1       6.373   3.480  11.688  0.00  0.00    +0.000 OA
ATOM     38  H   UNL     1       6.342   2.532  11.428  0.00  0.00    +0.000 HD
ENDBRANCH  35  37
ENDBRANCH  31  33
ENDBRANCH  26  27
ENDBRANCH  25  26
ENDBRANCH   8  25
TORSDOF 6
ENDMDL
MODEL 5
REMARK VINA RESULT:      -9.1      2.457      3.659
REMARK  Name = 
REMARK  9 active torsions:
REMARK  status: ('A' for Active; 'I' for Inactive)
REMARK    1  A    between atoms: C_1  and  C_2
REMARK    2  A    between atoms: C_4  and  C_5
REMARK    3  A    between atoms: N_17  and  C_18
REMARK    4  A    between atoms: C_21  and  C_22
REMARK    5  A    between atoms: C_23  and  O_24
REMARK    6  A    between atoms: O_24  and  C_25
REMARK    7  A    between atoms: C_25  and  C_26
REMARK    8  A    between atoms: C_30  and  C_31
REMARK    9  A    between atoms: N_33  and  O_34
REMARK                            x       y       z     vdW  Elec       q    Type
REMARK                         _______ _______ _______ _____ _____    ______ ____
ROOT
ATOM      1  C   UNL     1       6.141   7.109  16.881  0.00  0.00    +0.000 C 
ATOM      2  C   UNL     1       4.820   6.550  17.339  0.00  0.00    +0.000 A 
ATOM      3  C   UNL     1       3.931   7.479  17.919  0.00  0.00    +0.000 A 
ATOM      4  C   UNL     1       2.662   7.099  18.358  0.00  0.00    +0.000 A 
ATOM      5  C   UNL     1       2.241   5.782  18.190  0.00  0.00    +0.000 A 
ATOM      6  C   UNL     1       3.098   4.835  17.619  0.00  0.00    +0.000 A 
ATOM      7  C   UNL     1       2.591   3.423  17.467  0.00  0.00    +0.000 C 
ATOM      8  C   UNL     1       4.401   5.206  17.205  0.00  0.00    +0.000 A 
ENDROOT
BRANCH   4   9
ATOM      9  C   UNL     1       1.781   8.107  18.985  0.00  0.00    +0.000 A 
ATOM     10  N   UNL     1       1.595   8.120  20.272  0.00  0.00    +0.000 NA
ATOM     11  C   UNL     1       0.762   9.096  20.716  0.00  0.00    +0.000 A 
ATOM     12  S   UNL     1       0.445   9.317  22.380  0.00  0.00    +0.000 S 
ATOM     13  C   UNL     1      -0.568  10.646  22.064  0.00  0.00    +0.000 A 
ATOM     14  C   UNL     1      -0.713  10.897  20.711  0.00  0.00    +0.000 A 
ATOM     15  C   UNL     1       0.092  10.018  19.941  0.00  0.00    +0.000 A 
ATOM     16  C   UNL     1       0.292   9.978  18.513  0.00  0.00    +0.000 A 
ATOM     17  O   UNL     1      -0.241  10.736  17.708  0.00  0.00    +0.000 OA
ATOM     18  N   UNL     1       1.167   8.994  18.118  0.00  0.00    +0.000 N 
ATOM     19  C   UNL     1      -1.574  12.020  20.219  0.00  0.00    +0.000 C 
ATOM     20  C   UNL     1      -2.439  12.581  21.370  0.00  0.00    +0.000 C 
ATOM     21  N   UNL     1      -1.722  12.753  22.657  0.00  0.00    +0.000 NA
ATOM     22  C   UNL     1      -0.617  13.709  22.532  0.00  0.00    +0.000 C 
ATOM     23  C   UNL     1      -1.235  11.438  23.150  0.00  0.00    +0.000 C 
ATOM     24  H   UNL     1       1.281   8.928  17.113  0.00  0.00    +0.000 HD
ENDBRANCH   4   9
BRANCH   8  25
ATOM     25  O   UNL     1       5.101   4.171  16.639  0.00  0.00    +0.000 OA
BRANCH  25  26
ATOM     26  C   UNL     1       6.462   4.391  16.282  0.00  0.00    +0.000 C 
BRANCH  26  27
ATOM     27  C   UNL     1       6.667   4.354  14.781  0.00  0.00    +0.000 A 
ATOM     28  C   UNL     1       7.701   5.124  14.225  0.00  0.00    +0.000 A 
ATOM     29  C   UNL     1       7.919   5.147  12.849  0.00  0.00    +0.000 A 
ATOM     30  C   UNL     1       7.101   4.403  12.002  0.00  0.00    +0.000 A 
ATOM     31  C   UNL     1       6.057   3.635  12.534  0.00  0.00    +0.000 A 
ATOM     32  C   UNL     1       5.829   3.629  13.920  0.00  0.00    +0.000 A 
BRANCH  31  33
ATOM     33  C   UNL     1       5.151   2.847  11.657  0.00  0.00    +0.000 C 
ATOM     34  O   UNL     1       5.444   1.714  11.284  0.00  0.00    +0.000 OA
ATOM     35  N   UNL     1       3.986   3.465  11.260  0.00  0.00    +0.000 N 
ATOM     36  H   UNL     1       3.807   4.460  11.337  0.00  0.00    +0.000 HD
BRANCH  35  37
ATOM     37  O   UNL     1       3.190   2.747  10.338  0.00  0.00    +0.000 OA
ATOM     38  H   UNL     1       2.285   2.887  10.694  0.00  0.00    +0.000 HD
ENDBRANCH  35  37
ENDBRANCH  31  33
ENDBRANCH  26  27
ENDBRANCH  25  26
ENDBRANCH   8  25
TORSDOF 6
ENDMDL
MODEL 6
REMARK VINA RESULT:      -9.0      1.907      2.888
REMARK  Name = 
REMARK  9 active torsions:
REMARK  status: ('A' for Active; 'I' for Inactive)
REMARK    1  A    between atoms: C_1  and  C_2
REMARK    2  A    between atoms: C_4  and  C_5
REMARK    3  A    between atoms: N_17  and  C_18
REMARK    4  A    between atoms: C_21  and  C_22
REMARK    5  A    between atoms: C_23  and  O_24
REMARK    6  A    between atoms: O_24  and  C_25
REMARK    7  A    between atoms: C_25  and  C_26
REMARK    8  A    between atoms: C_30  and  C_31
REMARK    9  A    between atoms: N_33  and  O_34
REMARK                            x       y       z     vdW  Elec       q    Type
REMARK                         _______ _______ _______ _____ _____    ______ ____
ROOT
ATOM      1  C   UNL     1       4.860   7.053  15.632  0.00  0.00    +0.000 C 
ATOM      2  C   UNL     1       4.127   6.578  16.859  0.00  0.00    +0.000 A 
ATOM      3  C   UNL     1       3.366   7.555  17.534  0.00  0.00    +0.000 A 
ATOM      4  C   UNL     1       2.615   7.241  18.667  0.00  0.00    +0.000 A 
ATOM      5  C   UNL     1       2.580   5.926  19.128  0.00  0.00    +0.000 A 
ATOM      6  C   UNL     1       3.323   4.933  18.482  0.00  0.00    +0.000 A 
ATOM      7  C   UNL     1       3.254   3.529  19.029  0.00  0.00    +0.000 C 
ATOM      8  C   UNL     1       4.118   5.253  17.354  0.00  0.00    +0.000 A 
ENDROOT
BRANCH   4   9
ATOM      9  C   UNL     1       1.857   8.310  19.353  0.00  0.00    +0.000 A 
ATOM     10  N   UNL     1       1.457   9.362  18.702  0.00  0.00    +0.000 NA
ATOM     11  C   UNL     1       0.773  10.265  19.450  0.00  0.00    +0.000 A 
ATOM     12  S   UNL     1       0.108  11.680  18.762  0.00  0.00    +0.000 S 
ATOM     13  C   UNL     1      -0.538  12.168  20.259  0.00  0.00    +0.000 A 
ATOM     14  C   UNL     1      -0.216  11.300  21.286  0.00  0.00    +0.000 A 
ATOM     15  C   UNL     1       0.511  10.182  20.801  0.00  0.00    +0.000 A 
ATOM     16  C   UNL     1       0.981   9.018  21.513  0.00  0.00    +0.000 A 
ATOM     17  O   UNL     1       0.819   8.817  22.713  0.00  0.00    +0.000 OA
ATOM     18  N   UNL     1       1.637   8.121  20.706  0.00  0.00    +0.000 N 
ATOM     19  C   UNL     1      -0.680  11.553  22.688  0.00  0.00    +0.000 C 
ATOM     20  C   UNL     1      -1.248  12.985  22.818  0.00  0.00    +0.000 C 
ATOM     21  N   UNL     1      -2.123  13.408  21.697  0.00  0.00    +0.000 NA
ATOM     22  C   UNL     1      -3.309  12.553  21.591  0.00  0.00    +0.000 C 
ATOM     23  C   UNL     1      -1.355  13.415  20.425  0.00  0.00    +0.000 C 
ATOM     24  H   UNL     1       2.010   7.321  21.204  0.00  0.00    +0.000 HD
ENDBRANCH   4   9
BRANCH   8  25
ATOM     25  O   UNL     1       4.759   4.164  16.820  0.00  0.00    +0.000 OA
BRANCH  25  26
ATOM     26  C   UNL     1       6.158   4.257  16.571  0.00  0.00    +0.000 C 
BRANCH  26  27
ATOM     27  C   UNL     1       6.467   4.277  15.087  0.00  0.00    +0.000 A 
ATOM     28  C   UNL     1       7.537   5.067  14.635  0.00  0.00    +0.000 A 
ATOM     29  C   UNL     1       7.852   5.142  13.280  0.00  0.00    +0.000 A 
ATOM     30  C   UNL     1       7.096   4.432  12.350  0.00  0.00    +0.000 A 
ATOM     31  C   UNL     1       6.018   3.647  12.776  0.00  0.00    +0.000 A 
ATOM     32  C   UNL     1       5.694   3.588  14.142  0.00  0.00    +0.000 A 
BRANCH  31  33
ATOM     33  C   UNL     1       5.177   2.895  11.808  0.00  0.00    +0.000 C 
ATOM     34  O   UNL     1       5.506   1.784  11.399  0.00  0.00    +0.000 OA
ATOM     35  N   UNL     1       4.031   3.520  11.371  0.00  0.00    +0.000 N 
ATOM     36  H   UNL     1       3.836   4.508  11.485  0.00  0.00    +0.000 HD
BRANCH  35  37
ATOM     37  O   UNL     1       3.302   2.841  10.368  0.00  0.00    +0.000 OA
ATOM     38  H   UNL     1       2.800   2.178  10.891  0.00  0.00    +0.000 HD
ENDBRANCH  35  37
ENDBRANCH  31  33
ENDBRANCH  26  27
ENDBRANCH  25  26
ENDBRANCH   8  25
TORSDOF 6
ENDMDL
MODEL 7
REMARK VINA RESULT:      -8.9      1.881      2.384
REMARK  Name = 
REMARK  9 active torsions:
REMARK  status: ('A' for Active; 'I' for Inactive)
REMARK    1  A    between atoms: C_1  and  C_2
REMARK    2  A    between atoms: C_4  and  C_5
REMARK    3  A    between atoms: N_17  and  C_18
REMARK    4  A    between atoms: C_21  and  C_22
REMARK    5  A    between atoms: C_23  and  O_24
REMARK    6  A    between atoms: O_24  and  C_25
REMARK    7  A    between atoms: C_25  and  C_26
REMARK    8  A    between atoms: C_30  and  C_31
REMARK    9  A    between atoms: N_33  and  O_34
REMARK                            x       y       z     vdW  Elec       q    Type
REMARK                         _______ _______ _______ _____ _____    ______ ____
ROOT
ATOM      1  C   UNL     1       3.584   6.777  17.105  0.00  0.00    +0.000 C 
ATOM      2  C   UNL     1       2.912   6.582  18.438  0.00  0.00    +0.000 A 
ATOM      3  C   UNL     1       2.216   7.701  18.942  0.00  0.00    +0.000 A 
ATOM      4  C   UNL     1       1.524   7.646  20.153  0.00  0.00    +0.000 A 
ATOM      5  C   UNL     1       1.483   6.452  20.869  0.00  0.00    +0.000 A 
ATOM      6  C   UNL     1       2.162   5.323  20.398  0.00  0.00    +0.000 A 
ATOM      7  C   UNL     1       2.088   4.060  21.218  0.00  0.00    +0.000 C 
ATOM      8  C   UNL     1       2.898   5.384  19.189  0.00  0.00    +0.000 A 
ENDROOT
BRANCH   4   9
ATOM      9  C   UNL     1       0.834   8.857  20.648  0.00  0.00    +0.000 A 
ATOM     10  N   UNL     1       0.460   9.792  19.825  0.00  0.00    +0.000 NA
ATOM     11  C   UNL     1      -0.161  10.848  20.411  0.00  0.00    +0.000 A 
ATOM     12  S   UNL     1      -0.784  12.145  19.491  0.00  0.00    +0.000 S 
ATOM     13  C   UNL     1      -1.364  12.925  20.887  0.00  0.00    +0.000 A 
ATOM     14  C   UNL     1      -1.049  12.244  22.048  0.00  0.00    +0.000 A 
ATOM     15  C   UNL     1      -0.386  11.023  21.760  0.00  0.00    +0.000 A 
ATOM     16  C   UNL     1       0.053   9.986  22.661  0.00  0.00    +0.000 A 
ATOM     17  O   UNL     1      -0.082  10.013  23.881  0.00  0.00    +0.000 OA
ATOM     18  N   UNL     1       0.646   8.926  22.017  0.00  0.00    +0.000 N 
ATOM     19  C   UNL     1      -1.460  12.768  23.390  0.00  0.00    +0.000 C 
ATOM     20  C   UNL     1      -1.961  14.225  23.269  0.00  0.00    +0.000 C 
ATOM     21  N   UNL     1      -2.849  14.481  22.109  0.00  0.00    +0.000 NA
ATOM     22  C   UNL     1      -4.075  13.679  22.185  0.00  0.00    +0.000 C 
ATOM     23  C   UNL     1      -2.120  14.221  20.841  0.00  0.00    +0.000 C 
ATOM     24  H   UNL     1       0.998   8.212  22.645  0.00  0.00    +0.000 HD
ENDBRANCH   4   9
BRANCH   8  25
ATOM     25  O   UNL     1       3.479   4.188  18.852  0.00  0.00    +0.000 OA
BRANCH  25  26
ATOM     26  C   UNL     1       4.850   3.985  19.182  0.00  0.00    +0.000 C 
BRANCH  26  27
ATOM     27  C   UNL     1       5.776   4.676  18.201  0.00  0.00    +0.000 A 
ATOM     28  C   UNL     1       6.075   4.029  16.991  0.00  0.00    +0.000 A 
ATOM     29  C   UNL     1       6.938   4.608  16.062  0.00  0.00    +0.000 A 
ATOM     30  C   UNL     1       7.525   5.842  16.332  0.00  0.00    +0.000 A 
ATOM     31  C   UNL     1       7.249   6.500  17.537  0.00  0.00    +0.000 A 
ATOM     32  C   UNL     1       6.392   5.906  18.478  0.00  0.00    +0.000 A 
BRANCH  31  33
ATOM     33  C   UNL     1       7.876   7.807  17.866  0.00  0.00    +0.000 C 
ATOM     34  O   UNL     1       7.776   8.774  17.115  0.00  0.00    +0.000 OA
ATOM     35  N   UNL     1       8.598   7.868  19.037  0.00  0.00    +0.000 N 
ATOM     36  H   UNL     1       8.909   7.059  19.563  0.00  0.00    +0.000 HD
BRANCH  35  37
ATOM     37  O   UNL     1       9.279   9.083  19.279  0.00  0.00    +0.000 OA
ATOM     38  H   UNL     1       9.389   9.066  20.256  0.00  0.00    +0.000 HD
ENDBRANCH  35  37
ENDBRANCH  31  33
ENDBRANCH  26  27
ENDBRANCH  25  26
ENDBRANCH   8  25
TORSDOF 6
ENDMDL
MODEL 8
REMARK VINA RESULT:      -8.6      3.281     10.207
REMARK  Name = 
REMARK  9 active torsions:
REMARK  status: ('A' for Active; 'I' for Inactive)
REMARK    1  A    between atoms: C_1  and  C_2
REMARK    2  A    between atoms: C_4  and  C_5
REMARK    3  A    between atoms: N_17  and  C_18
REMARK    4  A    between atoms: C_21  and  C_22
REMARK    5  A    between atoms: C_23  and  O_24
REMARK    6  A    between atoms: O_24  and  C_25
REMARK    7  A    between atoms: C_25  and  C_26
REMARK    8  A    between atoms: C_30  and  C_31
REMARK    9  A    between atoms: N_33  and  O_34
REMARK                            x       y       z     vdW  Elec       q    Type
REMARK                         _______ _______ _______ _____ _____    ______ ____
ROOT
ATOM      1  C   UNL     1       1.066  13.806  20.152  0.00  0.00    +0.000 C 
ATOM      2  C   UNL     1       0.542  12.527  20.749  0.00  0.00    +0.000 A 
ATOM      3  C   UNL     1       1.128  11.340  20.261  0.00  0.00    +0.000 A 
ATOM      4  C   UNL     1       0.756  10.087  20.751  0.00  0.00    +0.000 A 
ATOM      5  C   UNL     1      -0.188   9.999  21.772  0.00  0.00    +0.000 A 
ATOM      6  C   UNL     1      -0.788  11.156  22.279  0.00  0.00    +0.000 A 
ATOM      7  C   UNL     1      -1.808  11.001  23.378  0.00  0.00    +0.000 C 
ATOM      8  C   UNL     1      -0.442  12.428  21.759  0.00  0.00    +0.000 A 
ENDROOT
BRANCH   4   9
ATOM      9  C   UNL     1       1.382   8.873  20.185  0.00  0.00    +0.000 A 
ATOM     10  N   UNL     1       1.480   7.785  20.890  0.00  0.00    +0.000 NA
ATOM     11  C   UNL     1       2.076   6.746  20.251  0.00  0.00    +0.000 A 
ATOM     12  S   UNL     1       2.237   5.213  20.988  0.00  0.00    +0.000 S 
ATOM     13  C   UNL     1       2.990   4.569  19.605  0.00  0.00    +0.000 A 
ATOM     14  C   UNL     1       3.168   5.511  18.607  0.00  0.00    +0.000 A 
ATOM     15  C   UNL     1       2.601   6.758  18.976  0.00  0.00    +0.000 A 
ATOM     16  C   UNL     1       2.503   7.979  18.215  0.00  0.00    +0.000 A 
ATOM     17  O   UNL     1       2.928   8.129  17.073  0.00  0.00    +0.000 OA
ATOM     18  N   UNL     1       1.865   8.989  18.893  0.00  0.00    +0.000 N 
ATOM     19  C   UNL     1       3.822   5.150  17.309  0.00  0.00    +0.000 C 
ATOM     20  C   UNL     1       4.486   3.758  17.408  0.00  0.00    +0.000 C 
ATOM     21  N   UNL     1       3.669   2.729  18.097  0.00  0.00    +0.000 NA
ATOM     22  C   UNL     1       2.409   2.482  17.388  0.00  0.00    +0.000 C 
ATOM     23  C   UNL     1       3.419   3.134  19.504  0.00  0.00    +0.000 C 
ATOM     24  H   UNL     1       1.830   9.865  18.384  0.00  0.00    +0.000 HD
ENDBRANCH   4   9
BRANCH   8  25
ATOM     25  O   UNL     1      -1.097  13.460  22.382  0.00  0.00    +0.000 OA
BRANCH  25  26
ATOM     26  C   UNL     1      -1.942  14.297  21.599  0.00  0.00    +0.000 C 
BRANCH  26  27
ATOM     27  C   UNL     1      -3.069  13.517  20.953  0.00  0.00    +0.000 A 
ATOM     28  C   UNL     1      -4.236  13.282  21.698  0.00  0.00    +0.000 A 
ATOM     29  C   UNL     1      -5.295  12.550  21.163  0.00  0.00    +0.000 A 
ATOM     30  C   UNL     1      -5.202  12.034  19.873  0.00  0.00    +0.000 A 
ATOM     31  C   UNL     1      -4.043  12.246  19.115  0.00  0.00    +0.000 A 
ATOM     32  C   UNL     1      -2.971  12.970  19.665  0.00  0.00    +0.000 A 
BRANCH  31  33
ATOM     33  C   UNL     1      -3.901  11.690  17.744  0.00  0.00    +0.000 C 
ATOM     34  O   UNL     1      -4.822  11.088  17.197  0.00  0.00    +0.000 OA
ATOM     35  N   UNL     1      -2.678  11.857  17.134  0.00  0.00    +0.000 N 
ATOM     36  H   UNL     1      -1.828  12.127  17.615  0.00  0.00    +0.000 HD
BRANCH  35  37
ATOM     37  O   UNL     1      -2.524  11.226  15.878  0.00  0.00    +0.000 OA
ATOM     38  H   UNL     1      -1.571  11.374  15.689  0.00  0.00    +0.000 HD
ENDBRANCH  35  37
ENDBRANCH  31  33
ENDBRANCH  26  27
ENDBRANCH  25  26
ENDBRANCH   8  25
TORSDOF 6
ENDMDL
MODEL 9
REMARK VINA RESULT:      -8.5      1.464      2.331
REMARK  Name = 
REMARK  9 active torsions:
REMARK  status: ('A' for Active; 'I' for Inactive)
REMARK    1  A    between atoms: C_1  and  C_2
REMARK    2  A    between atoms: C_4  and  C_5
REMARK    3  A    between atoms: N_17  and  C_18
REMARK    4  A    between atoms: C_21  and  C_22
REMARK    5  A    between atoms: C_23  and  O_24
REMARK    6  A    between atoms: O_24  and  C_25
REMARK    7  A    between atoms: C_25  and  C_26
REMARK    8  A    between atoms: C_30  and  C_31
REMARK    9  A    between atoms: N_33  and  O_34
REMARK                            x       y       z     vdW  Elec       q    Type
REMARK                         _______ _______ _______ _____ _____    ______ ____
ROOT
ATOM      1  C   UNL     1       2.103   4.143  21.064  0.00  0.00    +0.000 C 
ATOM      2  C   UNL     1       2.282   5.420  20.285  0.00  0.00    +0.000 A 
ATOM      3  C   UNL     1       1.508   6.515  20.720  0.00  0.00    +0.000 A 
ATOM      4  C   UNL     1       1.600   7.765  20.106  0.00  0.00    +0.000 A 
ATOM      5  C   UNL     1       2.503   7.954  19.062  0.00  0.00    +0.000 A 
ATOM      6  C   UNL     1       3.286   6.889  18.606  0.00  0.00    +0.000 A 
ATOM      7  C   UNL     1       4.241   7.149  17.468  0.00  0.00    +0.000 C 
ATOM      8  C   UNL     1       3.170   5.608  19.201  0.00  0.00    +0.000 A 
ENDROOT
BRANCH   4   9
ATOM      9  C   UNL     1       0.744   8.872  20.584  0.00  0.00    +0.000 A 
ATOM     10  N   UNL     1       0.133   9.650  19.741  0.00  0.00    +0.000 NA
ATOM     11  C   UNL     1      -0.619  10.626  20.312  0.00  0.00    +0.000 A 
ATOM     12  S   UNL     1      -1.551  11.707  19.373  0.00  0.00    +0.000 S 
ATOM     13  C   UNL     1      -2.139  12.491  20.764  0.00  0.00    +0.000 A 
ATOM     14  C   UNL     1      -1.601  11.980  21.931  0.00  0.00    +0.000 A 
ATOM     15  C   UNL     1      -0.752  10.876  21.662  0.00  0.00    +0.000 A 
ATOM     16  C   UNL     1      -0.050  10.016  22.583  0.00  0.00    +0.000 A 
ATOM     17  O   UNL     1      -0.079  10.126  23.805  0.00  0.00    +0.000 OA
ATOM     18  N   UNL     1       0.669   9.027  21.957  0.00  0.00    +0.000 N 
ATOM     19  C   UNL     1      -1.982  12.539  23.268  0.00  0.00    +0.000 C 
ATOM     20  C   UNL     1      -2.753  13.867  23.099  0.00  0.00    +0.000 C 
ATOM     21  N   UNL     1      -3.773  13.858  22.021  0.00  0.00    +0.000 NA
ATOM     22  C   UNL     1      -4.816  12.861  22.279  0.00  0.00    +0.000 C 
ATOM     23  C   UNL     1      -3.124  13.622  20.706  0.00  0.00    +0.000 C 
ATOM     24  H   UNL     1       1.202   8.445  22.593  0.00  0.00    +0.000 HD
ENDBRANCH   4   9
BRANCH   8  25
ATOM     25  O   UNL     1       4.026   4.683  18.659  0.00  0.00    +0.000 OA
BRANCH  25  26
ATOM     26  C   UNL     1       3.717   4.142  17.379  0.00  0.00    +0.000 C 
BRANCH  26  27
ATOM     27  C   UNL     1       4.906   4.197  16.440  0.00  0.00    +0.000 A 
ATOM     28  C   UNL     1       6.143   4.625  16.947  0.00  0.00    +0.000 A 
ATOM     29  C   UNL     1       7.264   4.717  16.124  0.00  0.00    +0.000 A 
ATOM     30  C   UNL     1       7.164   4.389  14.773  0.00  0.00    +0.000 A 
ATOM     31  C   UNL     1       5.937   3.971  14.243  0.00  0.00    +0.000 A 
ATOM     32  C   UNL     1       4.806   3.896  15.073  0.00  0.00    +0.000 A 
BRANCH  31  33
ATOM     33  C   UNL     1       5.790   3.635  12.803  0.00  0.00    +0.000 C 
ATOM     34  O   UNL     1       6.764   3.572  12.056  0.00  0.00    +0.000 OA
ATOM     35  N   UNL     1       4.508   3.431  12.345  0.00  0.00    +0.000 N 
ATOM     36  H   UNL     1       3.669   3.699  12.846  0.00  0.00    +0.000 HD
BRANCH  35  37
ATOM     37  O   UNL     1       4.376   3.224  10.952  0.00  0.00    +0.000 OA
ATOM     38  H   UNL     1       5.234   2.803  10.724  0.00  0.00    +0.000 HD
ENDBRANCH  35  37
ENDBRANCH  31  33
ENDBRANCH  26  27
ENDBRANCH  25  26
ENDBRANCH   8  25
TORSDOF 6
ENDMDL
