MODEL 1
REMARK VINA RESULT:      -6.5      0.000      0.000
REMARK  Name = 
REMARK  7 active torsions:
REMARK  status: ('A' for Active; 'I' for Inactive)
REMARK    1  A    between atoms: C_1  and  C_2
REMARK    2  A    between atoms: C_5  and  N_6
REMARK    3  A    between atoms: N_6  and  C_14
REMARK    4  A    between atoms: C_7  and  C_9
REMARK    5  A    between atoms: C_14  and  C_15
REMARK    6  A    between atoms: C_14  and  C_24
REMARK    7  A    between atoms: N_17  and  C_18
REMARK                            x       y       z     vdW  Elec       q    Type
REMARK                         _______ _______ _______ _____ _____    ______ ____
ROOT
ATOM      1  C   UNL     1       0.447  12.146  21.114  0.00  0.00    +0.000 C 
ENDROOT
BRANCH   1   2
ATOM      2  C   UNL     1      -0.634  12.523  22.140  0.00  0.00    +0.000 A 
ATOM      3  C   UNL     1      -0.671  13.806  22.715  0.00  0.00    +0.000 A 
ATOM      4  C   UNL     1      -1.722  14.192  23.545  0.00  0.00    +0.000 A 
ATOM      5  C   UNL     1      -2.699  13.261  23.831  0.00  0.00    +0.000 A 
ATOM      6  N   UNL     1      -2.658  11.990  23.392  0.00  0.00    +0.000 NA
ATOM      7  C   UNL     1      -1.630  11.653  22.573  0.00  0.00    +0.000 A 
ENDBRANCH   1   2
BRANCH   1   8
ATOM      8  C   UNL     1       1.473  13.335  20.878  0.00  0.00    +0.000 C 
ATOM      9  O   UNL     1       2.627  13.298  21.302  0.00  0.00    +0.000 OA
ATOM     10  N   UNL     1       1.018  14.406  20.134  0.00  0.00    +0.000 N 
ATOM     11  H   UNL     1       0.032  14.580  20.259  0.00  0.00    +0.000 HD
BRANCH  10  12
ATOM     12  C   UNL     1       1.815  15.606  19.857  0.00  0.00    +0.000 C 
ATOM     13  C   UNL     1       1.503  16.280  18.510  0.00  0.00    +0.000 C 
ATOM     14  C   UNL     1       0.059  16.770  18.444  0.00  0.00    +0.000 C 
ATOM     15  C   UNL     1      -0.245  17.732  19.589  0.00  0.00    +0.000 C 
ATOM     16  C   UNL     1       0.127  17.159  20.952  0.00  0.00    +0.000 C 
ATOM     17  C   UNL     1       1.563  16.625  20.984  0.00  0.00    +0.000 C 
ENDBRANCH  10  12
ENDBRANCH   1   8
BRANCH   1  18
ATOM     18  N   UNL     1      -0.048  11.466  19.864  0.00  0.00    +0.000 N 
ATOM     19  C   UNL     1      -1.089  12.044  19.111  0.00  0.00    +0.000 C 
ATOM     20  O   UNL     1      -1.374  13.235  19.256  0.00  0.00    +0.000 OA
BRANCH  18  25
ATOM     21  C   UNL     1       3.069   6.882  18.305  0.00  0.00    +0.000 C 
ATOM     22  C   UNL     1       2.226   8.058  18.698  0.00  0.00    +0.000 A 
ATOM     23  C   UNL     1       1.602   8.097  19.948  0.00  0.00    +0.000 A 
ATOM     24  C   UNL     1       0.790   9.181  20.300  0.00  0.00    +0.000 A 
ATOM     25  C   UNL     1       0.622  10.272  19.430  0.00  0.00    +0.000 A 
ATOM     26  C   UNL     1       1.217  10.213  18.167  0.00  0.00    +0.000 A 
ATOM     27  C   UNL     1       2.005   9.112  17.803  0.00  0.00    +0.000 A 
ENDBRANCH  18  25
BRANCH  19  28
ATOM     28  C   UNL     1      -1.860  11.214  18.166  0.00  0.00    +0.000 A 
ATOM     29  C   UNL     1      -1.988  11.506  16.817  0.00  0.00    +0.000 A 
ATOM     30  S   UNL     1      -2.875  10.234  16.086  0.00  0.00    +0.000 S 
ATOM     31  N   UNL     1      -3.105   9.437  17.533  0.00  0.00    +0.000 NA
ATOM     32  N   UNL     1      -2.571  10.077  18.559  0.00  0.00    +0.000 NA
ENDBRANCH  19  28
ENDBRANCH   1  18
TORSDOF 6
ENDMDL
MODEL 2
REMARK VINA RESULT:      -6.2      8.464     11.260
REMARK  Name = 
REMARK  7 active torsions:
REMARK  status: ('A' for Active; 'I' for Inactive)
REMARK    1  A    between atoms: C_1  and  C_2
REMARK    2  A    between atoms: C_5  and  N_6
REMARK    3  A    between atoms: N_6  and  C_14
REMARK    4  A    between atoms: C_7  and  C_9
REMARK    5  A    between atoms: C_14  and  C_15
REMARK    6  A    between atoms: C_14  and  C_24
REMARK    7  A    between atoms: N_17  and  C_18
REMARK                            x       y       z     vdW  Elec       q    Type
REMARK                         _______ _______ _______ _____ _____    ______ ____
ROOT
ATOM      1  C   UNL     1       8.575  16.468  19.026  0.00  0.00    +0.000 C 
ENDROOT
BRANCH   1   2
ATOM      2  C   UNL     1       7.113  16.206  18.632  0.00  0.00    +0.000 A 
ATOM      3  C   UNL     1       6.723  14.975  18.073  0.00  0.00    +0.000 A 
ATOM      4  C   UNL     1       5.380  14.687  17.835  0.00  0.00    +0.000 A 
ATOM      5  C   UNL     1       4.447  15.664  18.115  0.00  0.00    +0.000 A 
ATOM      6  N   UNL     1       4.774  16.893  18.553  0.00  0.00    +0.000 NA
ATOM      7  C   UNL     1       6.088  17.135  18.790  0.00  0.00    +0.000 A 
ENDBRANCH   1   2
BRANCH   1   8
ATOM      8  C   UNL     1       9.588  15.718  18.060  0.00  0.00    +0.000 C 
ATOM      9  O   UNL     1      10.142  16.287  17.122  0.00  0.00    +0.000 OA
ATOM     10  N   UNL     1       9.851  14.392  18.348  0.00  0.00    +0.000 N 
ATOM     11  H   UNL     1       9.060  13.915  18.753  0.00  0.00    +0.000 HD
BRANCH  10  12
ATOM     12  C   UNL     1      10.724  13.537  17.536  0.00  0.00    +0.000 C 
ATOM     13  C   UNL     1      12.190  13.502  18.001  0.00  0.00    +0.000 C 
ATOM     14  C   UNL     1      12.322  12.934  19.412  0.00  0.00    +0.000 C 
ATOM     15  C   UNL     1      11.716  11.537  19.499  0.00  0.00    +0.000 C 
ATOM     16  C   UNL     1      10.288  11.482  18.966  0.00  0.00    +0.000 C 
ATOM     17  C   UNL     1      10.165  12.103  17.571  0.00  0.00    +0.000 C 
ENDBRANCH  10  12
ENDBRANCH   1   8
BRANCH   1  18
ATOM     18  N   UNL     1       8.886  16.355  20.497  0.00  0.00    +0.000 N 
ATOM     19  C   UNL     1       9.411  17.461  21.194  0.00  0.00    +0.000 C 
ATOM     20  O   UNL     1       9.311  18.596  20.724  0.00  0.00    +0.000 OA
BRANCH  18  25
ATOM     21  C   UNL     1       7.690  11.668  23.621  0.00  0.00    +0.000 C 
ATOM     22  C   UNL     1       7.990  12.870  22.776  0.00  0.00    +0.000 A 
ATOM     23  C   UNL     1       6.989  13.798  22.482  0.00  0.00    +0.000 A 
ATOM     24  C   UNL     1       7.264  14.902  21.667  0.00  0.00    +0.000 A 
ATOM     25  C   UNL     1       8.557  15.128  21.167  0.00  0.00    +0.000 A 
ATOM     26  C   UNL     1       9.548  14.178  21.433  0.00  0.00    +0.000 A 
ATOM     27  C   UNL     1       9.263  13.057  22.223  0.00  0.00    +0.000 A 
ENDBRANCH  18  25
BRANCH  19  28
ATOM     28  C   UNL     1      10.106  17.256  22.479  0.00  0.00    +0.000 A 
ATOM     29  C   UNL     1       9.495  17.404  23.714  0.00  0.00    +0.000 A 
ATOM     30  S   UNL     1      10.635  16.975  24.920  0.00  0.00    +0.000 S 
ATOM     31  N   UNL     1      11.849  16.705  23.807  0.00  0.00    +0.000 NA
ATOM     32  N   UNL     1      11.463  16.936  22.565  0.00  0.00    +0.000 NA
ENDBRANCH  19  28
ENDBRANCH   1  18
TORSDOF 6
ENDMDL
MODEL 3
REMARK VINA RESULT:      -6.2      2.834      5.618
REMARK  Name = 
REMARK  7 active torsions:
REMARK  status: ('A' for Active; 'I' for Inactive)
REMARK    1  A    between atoms: C_1  and  C_2
REMARK    2  A    between atoms: C_5  and  N_6
REMARK    3  A    between atoms: N_6  and  C_14
REMARK    4  A    between atoms: C_7  and  C_9
REMARK    5  A    between atoms: C_14  and  C_15
REMARK    6  A    between atoms: C_14  and  C_24
REMARK    7  A    between atoms: N_17  and  C_18
REMARK                            x       y       z     vdW  Elec       q    Type
REMARK                         _______ _______ _______ _____ _____    ______ ____
ROOT
ATOM      1  C   UNL     1      -2.920  13.846  20.471  0.00  0.00    +0.000 C 
ENDROOT
BRANCH   1   2
ATOM      2  C   UNL     1      -3.659  14.659  21.546  0.00  0.00    +0.000 A 
ATOM      3  C   UNL     1      -3.519  14.349  22.911  0.00  0.00    +0.000 A 
ATOM      4  C   UNL     1      -4.083  15.161  23.894  0.00  0.00    +0.000 A 
ATOM      5  C   UNL     1      -4.826  16.250  23.489  0.00  0.00    +0.000 A 
ATOM      6  N   UNL     1      -5.077  16.533  22.198  0.00  0.00    +0.000 NA
ATOM      7  C   UNL     1      -4.500  15.732  21.267  0.00  0.00    +0.000 A 
ENDBRANCH   1   2
BRANCH   1   8
ATOM      8  C   UNL     1      -3.768  12.590  19.997  0.00  0.00    +0.000 C 
ATOM      9  O   UNL     1      -4.596  12.046  20.725  0.00  0.00    +0.000 OA
ATOM     10  N   UNL     1      -3.558  12.155  18.702  0.00  0.00    +0.000 N 
ATOM     11  H   UNL     1      -2.610  12.298  18.390  0.00  0.00    +0.000 HD
BRANCH  10  12
ATOM     12  C   UNL     1      -4.221  10.985  18.116  0.00  0.00    +0.000 C 
ATOM     13  C   UNL     1      -4.725  11.194  16.677  0.00  0.00    +0.000 C 
ATOM     14  C   UNL     1      -3.578  11.492  15.715  0.00  0.00    +0.000 C 
ATOM     15  C   UNL     1      -2.535  10.378  15.744  0.00  0.00    +0.000 C 
ATOM     16  C   UNL     1      -2.059  10.057  17.156  0.00  0.00    +0.000 C 
ATOM     17  C   UNL     1      -3.225   9.812  18.120  0.00  0.00    +0.000 C 
ENDBRANCH  10  12
ENDBRANCH   1   8
BRANCH   1  18
ATOM     18  N   UNL     1      -1.463  13.572  20.745  0.00  0.00    +0.000 N 
ATOM     19  C   UNL     1      -0.543  14.637  20.800  0.00  0.00    +0.000 C 
ATOM     20  O   UNL     1      -0.940  15.794  20.962  0.00  0.00    +0.000 OA
BRANCH  18  25
ATOM     21  C   UNL     1       0.584   8.331  21.973  0.00  0.00    +0.000 C 
ATOM     22  C   UNL     1       0.016   9.681  21.647  0.00  0.00    +0.000 A 
ATOM     23  C   UNL     1      -0.597  10.450  22.638  0.00  0.00    +0.000 A 
ATOM     24  C   UNL     1      -1.154  11.696  22.324  0.00  0.00    +0.000 A 
ATOM     25  C   UNL     1      -1.068  12.220  21.024  0.00  0.00    +0.000 A 
ATOM     26  C   UNL     1      -0.486  11.432  20.027  0.00  0.00    +0.000 A 
ATOM     27  C   UNL     1       0.043  10.171  20.335  0.00  0.00    +0.000 A 
ENDBRANCH  18  25
BRANCH  19  28
ATOM     28  C   UNL     1       0.899  14.371  20.638  0.00  0.00    +0.000 A 
ATOM     29  C   UNL     1       1.566  14.474  19.427  0.00  0.00    +0.000 A 
ATOM     30  S   UNL     1       3.229  14.178  19.717  0.00  0.00    +0.000 S 
ATOM     31  N   UNL     1       2.986  13.862  21.337  0.00  0.00    +0.000 NA
ATOM     32  N   UNL     1       1.715  13.944  21.688  0.00  0.00    +0.000 NA
ENDBRANCH  19  28
ENDBRANCH   1  18
TORSDOF 6
ENDMDL
MODEL 4
REMARK VINA RESULT:      -6.2      3.408      5.830
REMARK  Name = 
REMARK  7 active torsions:
REMARK  status: ('A' for Active; 'I' for Inactive)
REMARK    1  A    between atoms: C_1  and  C_2
REMARK    2  A    between atoms: C_5  and  N_6
REMARK    3  A    between atoms: N_6  and  C_14
REMARK    4  A    between atoms: C_7  and  C_9
REMARK    5  A    between atoms: C_14  and  C_15
REMARK    6  A    between atoms: C_14  and  C_24
REMARK    7  A    between atoms: N_17  and  C_18
REMARK                            x       y       z     vdW  Elec       q    Type
REMARK                         _______ _______ _______ _____ _____    ______ ____
ROOT
ATOM      1  C   UNL     1      -3.317  14.225  21.498  0.00  0.00    +0.000 C 
ENDROOT
BRANCH   1   2
ATOM      2  C   UNL     1      -3.601  14.997  22.796  0.00  0.00    +0.000 A 
ATOM      3  C   UNL     1      -2.970  14.644  24.003  0.00  0.00    +0.000 A 
ATOM      4  C   UNL     1      -3.125  15.420  25.150  0.00  0.00    +0.000 A 
ATOM      5  C   UNL     1      -3.959  16.517  25.084  0.00  0.00    +0.000 A 
ATOM      6  N   UNL     1      -4.667  16.840  23.987  0.00  0.00    +0.000 NA
ATOM      7  C   UNL     1      -4.480  16.074  22.883  0.00  0.00    +0.000 A 
ENDBRANCH   1   2
BRANCH   1   8
ATOM      8  C   UNL     1      -4.335  13.023  21.294  0.00  0.00    +0.000 C 
ATOM      9  O   UNL     1      -4.670  12.284  22.217  0.00  0.00    +0.000 OA
ATOM     10  N   UNL     1      -4.861  12.868  20.026  0.00  0.00    +0.000 N 
ATOM     11  H   UNL     1      -4.219  13.142  19.298  0.00  0.00    +0.000 HD
BRANCH  10  12
ATOM     12  C   UNL     1      -5.778  11.787  19.649  0.00  0.00    +0.000 C 
ATOM     13  C   UNL     1      -7.249  12.218  19.512  0.00  0.00    +0.000 C 
ATOM     14  C   UNL     1      -7.431  13.261  18.412  0.00  0.00    +0.000 C 
ATOM     15  C   UNL     1      -6.916  12.740  17.073  0.00  0.00    +0.000 C 
ATOM     16  C   UNL     1      -5.489  12.210  17.160  0.00  0.00    +0.000 C 
ATOM     17  C   UNL     1      -5.312  11.204  18.302  0.00  0.00    +0.000 C 
ENDBRANCH  10  12
ENDBRANCH   1   8
BRANCH   1  18
ATOM     18  N   UNL     1      -1.870  13.893  21.239  0.00  0.00    +0.000 N 
ATOM     19  C   UNL     1      -0.943  14.924  20.988  0.00  0.00    +0.000 C 
ATOM     20  O   UNL     1      -1.208  16.088  21.300  0.00  0.00    +0.000 OA
BRANCH  18  25
ATOM     21  C   UNL     1       0.248   8.548  21.557  0.00  0.00    +0.000 C 
ATOM     22  C   UNL     1      -0.339   9.926  21.481  0.00  0.00    +0.000 A 
ATOM     23  C   UNL     1      -0.495  10.694  22.637  0.00  0.00    +0.000 A 
ATOM     24  C   UNL     1      -1.072  11.968  22.568  0.00  0.00    +0.000 A 
ATOM     25  C   UNL     1      -1.461  12.520  21.336  0.00  0.00    +0.000 A 
ATOM     26  C   UNL     1      -1.337  11.735  20.187  0.00  0.00    +0.000 A 
ATOM     27  C   UNL     1      -0.788  10.447  20.262  0.00  0.00    +0.000 A 
ENDBRANCH  18  25
BRANCH  19  28
ATOM     28  C   UNL     1       0.338  14.615  20.326  0.00  0.00    +0.000 A 
ATOM     29  C   UNL     1       1.523  14.399  21.011  0.00  0.00    +0.000 A 
ATOM     30  S   UNL     1       2.724  13.977  19.863  0.00  0.00    +0.000 S 
ATOM     31  N   UNL     1       1.689  14.171  18.570  0.00  0.00    +0.000 NA
ATOM     32  N   UNL     1       0.480  14.558  18.937  0.00  0.00    +0.000 NA
ENDBRANCH  19  28
ENDBRANCH   1  18
TORSDOF 6
ENDMDL
MODEL 5
REMARK VINA RESULT:      -6.2      0.675      1.299
REMARK  Name = 
REMARK  7 active torsions:
REMARK  status: ('A' for Active; 'I' for Inactive)
REMARK    1  A    between atoms: C_1  and  C_2
REMARK    2  A    between atoms: C_5  and  N_6
REMARK    3  A    between atoms: N_6  and  C_14
REMARK    4  A    between atoms: C_7  and  C_9
REMARK    5  A    between atoms: C_14  and  C_15
REMARK    6  A    between atoms: C_14  and  C_24
REMARK    7  A    between atoms: N_17  and  C_18
REMARK                            x       y       z     vdW  Elec       q    Type
REMARK                         _______ _______ _______ _____ _____    ______ ____
ROOT
ATOM      1  C   UNL     1       0.262  12.571  21.306  0.00  0.00    +0.000 C 
ENDROOT
BRANCH   1   2
ATOM      2  C   UNL     1      -0.898  12.874  22.268  0.00  0.00    +0.000 A 
ATOM      3  C   UNL     1      -1.900  11.919  22.517  0.00  0.00    +0.000 A 
ATOM      4  C   UNL     1      -2.880  12.140  23.484  0.00  0.00    +0.000 A 
ATOM      5  C   UNL     1      -2.870  13.346  24.154  0.00  0.00    +0.000 A 
ATOM      6  N   UNL     1      -1.999  14.333  23.883  0.00  0.00    +0.000 NA
ATOM      7  C   UNL     1      -1.048  14.079  22.948  0.00  0.00    +0.000 A 
ENDBRANCH   1   2
BRANCH   1   8
ATOM      8  C   UNL     1       1.206  13.833  21.108  0.00  0.00    +0.000 C 
ATOM      9  O   UNL     1       2.291  13.934  21.677  0.00  0.00    +0.000 OA
ATOM     10  N   UNL     1       0.765  14.803  20.229  0.00  0.00    +0.000 N 
ATOM     11  H   UNL     1      -0.239  14.891  20.214  0.00  0.00    +0.000 HD
BRANCH  10  12
ATOM     12  C   UNL     1       1.487  16.052  19.961  0.00  0.00    +0.000 C 
ATOM     13  C   UNL     1       1.315  16.593  18.532  0.00  0.00    +0.000 C 
ATOM     14  C   UNL     1      -0.143  16.934  18.229  0.00  0.00    +0.000 C 
ATOM     15  C   UNL     1      -0.689  17.942  19.235  0.00  0.00    +0.000 C 
ATOM     16  C   UNL     1      -0.467  17.509  20.680  0.00  0.00    +0.000 C 
ATOM     17  C   UNL     1       0.990  17.120  20.952  0.00  0.00    +0.000 C 
ENDBRANCH  10  12
ENDBRANCH   1   8
BRANCH   1  18
ATOM     18  N   UNL     1      -0.112  11.843  20.041  0.00  0.00    +0.000 N 
ATOM     19  C   UNL     1      -1.174  12.312  19.244  0.00  0.00    +0.000 C 
ATOM     20  O   UNL     1      -1.582  13.469  19.370  0.00  0.00    +0.000 OA
BRANCH  18  25
ATOM     21  C   UNL     1       2.698   7.164  18.203  0.00  0.00    +0.000 C 
ATOM     22  C   UNL     1       1.998   8.396  18.697  0.00  0.00    +0.000 A 
ATOM     23  C   UNL     1       2.000   9.566  17.935  0.00  0.00    +0.000 A 
ATOM     24  C   UNL     1       1.373  10.722  18.413  0.00  0.00    +0.000 A 
ATOM     25  C   UNL     1       0.692  10.722  19.641  0.00  0.00    +0.000 A 
ATOM     26  C   UNL     1       0.724   9.560  20.418  0.00  0.00    +0.000 A 
ATOM     27  C   UNL     1       1.378   8.411  19.952  0.00  0.00    +0.000 A 
ENDBRANCH  18  25
BRANCH  19  28
ATOM     28  C   UNL     1      -1.819  11.408  18.273  0.00  0.00    +0.000 A 
ATOM     29  C   UNL     1      -1.930  11.688  16.920  0.00  0.00    +0.000 A 
ATOM     30  S   UNL     1      -2.650  10.331  16.160  0.00  0.00    +0.000 S 
ATOM     31  N   UNL     1      -2.846   9.511  17.599  0.00  0.00    +0.000 NA
ATOM     32  N   UNL     1      -2.419  10.201  18.642  0.00  0.00    +0.000 NA
ENDBRANCH  19  28
ENDBRANCH   1  18
TORSDOF 6
ENDMDL
MODEL 6
REMARK VINA RESULT:      -6.2      8.510     11.060
REMARK  Name = 
REMARK  7 active torsions:
REMARK  status: ('A' for Active; 'I' for Inactive)
REMARK    1  A    between atoms: C_1  and  C_2
REMARK    2  A    between atoms: C_5  and  N_6
REMARK    3  A    between atoms: N_6  and  C_14
REMARK    4  A    between atoms: C_7  and  C_9
REMARK    5  A    between atoms: C_14  and  C_15
REMARK    6  A    between atoms: C_14  and  C_24
REMARK    7  A    between atoms: N_17  and  C_18
REMARK                            x       y       z     vdW  Elec       q    Type
REMARK                         _______ _______ _______ _____ _____    ______ ____
ROOT
ATOM      1  C   UNL     1       7.763  13.744  21.685  0.00  0.00    +0.000 C 
ENDROOT
BRANCH   1   2
ATOM      2  C   UNL     1       7.437  13.734  23.187  0.00  0.00    +0.000 A 
ATOM      3  C   UNL     1       8.444  13.515  24.145  0.00  0.00    +0.000 A 
ATOM      4  C   UNL     1       8.178  13.632  25.508  0.00  0.00    +0.000 A 
ATOM      5  C   UNL     1       6.884  13.919  25.894  0.00  0.00    +0.000 A 
ATOM      6  N   UNL     1       5.864  14.036  25.026  0.00  0.00    +0.000 NA
ATOM      7  C   UNL     1       6.161  13.932  23.706  0.00  0.00    +0.000 A 
ENDBRANCH   1   2
BRANCH   1   8
ATOM      8  C   UNL     1       8.673  12.510  21.271  0.00  0.00    +0.000 C 
ATOM      9  O   UNL     1       8.595  11.421  21.836  0.00  0.00    +0.000 OA
ATOM     10  N   UNL     1       9.538  12.708  20.212  0.00  0.00    +0.000 N 
ATOM     11  H   UNL     1       9.879  13.655  20.156  0.00  0.00    +0.000 HD
BRANCH  10  12
ATOM     12  C   UNL     1      10.480  11.693  19.727  0.00  0.00    +0.000 C 
ATOM     13  C   UNL     1      10.412  11.433  18.213  0.00  0.00    +0.000 C 
ATOM     14  C   UNL     1      10.764  12.682  17.409  0.00  0.00    +0.000 C 
ATOM     15  C   UNL     1      12.149  13.202  17.784  0.00  0.00    +0.000 C 
ATOM     16  C   UNL     1      12.315  13.396  19.288  0.00  0.00    +0.000 C 
ATOM     17  C   UNL     1      11.907  12.150  20.081  0.00  0.00    +0.000 C 
ENDBRANCH  10  12
ENDBRANCH   1   8
BRANCH   1  18
ATOM     18  N   UNL     1       8.187  15.075  21.117  0.00  0.00    +0.000 N 
ATOM     19  C   UNL     1       7.712  15.488  19.857  0.00  0.00    +0.000 C 
ATOM     20  O   UNL     1       6.716  14.956  19.362  0.00  0.00    +0.000 OA
BRANCH  18  25
ATOM     21  C   UNL     1      11.412  18.164  24.753  0.00  0.00    +0.000 C 
ATOM     22  C   UNL     1      10.580  17.385  23.778  0.00  0.00    +0.000 A 
ATOM     23  C   UNL     1      11.165  16.406  22.971  0.00  0.00    +0.000 A 
ATOM     24  C   UNL     1      10.393  15.702  22.040  0.00  0.00    +0.000 A 
ATOM     25  C   UNL     1       9.011  15.927  21.929  0.00  0.00    +0.000 A 
ATOM     26  C   UNL     1       8.436  16.932  22.711  0.00  0.00    +0.000 A 
ATOM     27  C   UNL     1       9.216  17.658  23.621  0.00  0.00    +0.000 A 
ENDBRANCH  18  25
BRANCH  19  28
ATOM     28  C   UNL     1       8.427  16.544  19.114  0.00  0.00    +0.000 A 
ATOM     29  C   UNL     1       9.637  16.343  18.469  0.00  0.00    +0.000 A 
ATOM     30  S   UNL     1      10.048  17.796  17.658  0.00  0.00    +0.000 S 
ATOM     31  N   UNL     1       8.711  18.607  18.238  0.00  0.00    +0.000 NA
ATOM     32  N   UNL     1       7.965  17.860  19.033  0.00  0.00    +0.000 NA
ENDBRANCH  19  28
ENDBRANCH   1  18
TORSDOF 6
ENDMDL
MODEL 7
REMARK VINA RESULT:      -6.1      8.411     11.153
REMARK  Name = 
REMARK  7 active torsions:
REMARK  status: ('A' for Active; 'I' for Inactive)
REMARK    1  A    between atoms: C_1  and  C_2
REMARK    2  A    between atoms: C_5  and  N_6
REMARK    3  A    between atoms: N_6  and  C_14
REMARK    4  A    between atoms: C_7  and  C_9
REMARK    5  A    between atoms: C_14  and  C_15
REMARK    6  A    between atoms: C_14  and  C_24
REMARK    7  A    between atoms: N_17  and  C_18
REMARK                            x       y       z     vdW  Elec       q    Type
REMARK                         _______ _______ _______ _____ _____    ______ ____
ROOT
ATOM      1  C   UNL     1       8.456  16.218  19.069  0.00  0.00    +0.000 C 
ENDROOT
BRANCH   1   2
ATOM      2  C   UNL     1       6.989  15.905  18.730  0.00  0.00    +0.000 A 
ATOM      3  C   UNL     1       5.966  16.824  19.026  0.00  0.00    +0.000 A 
ATOM      4  C   UNL     1       4.656  16.601  18.604  0.00  0.00    +0.000 A 
ATOM      5  C   UNL     1       4.380  15.427  17.933  0.00  0.00    +0.000 A 
ATOM      6  N   UNL     1       5.299  14.470  17.715  0.00  0.00    +0.000 NA
ATOM      7  C   UNL     1       6.567  14.726  18.124  0.00  0.00    +0.000 A 
ENDBRANCH   1   2
BRANCH   1   8
ATOM      8  C   UNL     1       9.459  15.452  18.106  0.00  0.00    +0.000 C 
ATOM      9  O   UNL     1      10.089  16.030  17.223  0.00  0.00    +0.000 OA
ATOM     10  N   UNL     1       9.621  14.098  18.332  0.00  0.00    +0.000 N 
ATOM     11  H   UNL     1       8.784  13.656  18.679  0.00  0.00    +0.000 HD
BRANCH  10  12
ATOM     12  C   UNL     1      10.471  13.229  17.511  0.00  0.00    +0.000 C 
ATOM     13  C   UNL     1      11.978  13.373  17.783  0.00  0.00    +0.000 C 
ATOM     14  C   UNL     1      12.333  12.992  19.219  0.00  0.00    +0.000 C 
ATOM     15  C   UNL     1      11.882  11.568  19.534  0.00  0.00    +0.000 C 
ATOM     16  C   UNL     1      10.413  11.331  19.200  0.00  0.00    +0.000 C 
ATOM     17  C   UNL     1      10.064  11.768  17.773  0.00  0.00    +0.000 C 
ENDBRANCH  10  12
ENDBRANCH   1   8
BRANCH   1  18
ATOM     18  N   UNL     1       8.811  16.175  20.534  0.00  0.00    +0.000 N 
ATOM     19  C   UNL     1       9.345  17.316  21.164  0.00  0.00    +0.000 C 
ATOM     20  O   UNL     1       9.221  18.428  20.646  0.00  0.00    +0.000 OA
BRANCH  18  25
ATOM     21  C   UNL     1       7.776  11.618  23.899  0.00  0.00    +0.000 C 
ATOM     22  C   UNL     1       8.032  12.785  22.992  0.00  0.00    +0.000 A 
ATOM     23  C   UNL     1       7.025  13.720  22.738  0.00  0.00    +0.000 A 
ATOM     24  C   UNL     1       7.257  14.791  21.868  0.00  0.00    +0.000 A 
ATOM     25  C   UNL     1       8.513  14.977  21.269  0.00  0.00    +0.000 A 
ATOM     26  C   UNL     1       9.506  14.020  21.495  0.00  0.00    +0.000 A 
ATOM     27  C   UNL     1       9.264  12.931  22.343  0.00  0.00    +0.000 A 
ENDBRANCH  18  25
BRANCH  19  28
ATOM     28  C   UNL     1      10.080  17.175  22.435  0.00  0.00    +0.000 A 
ATOM     29  C   UNL     1      11.458  17.039  22.515  0.00  0.00    +0.000 A 
ATOM     30  S   UNL     1      11.888  17.008  24.173  0.00  0.00    +0.000 S 
ATOM     31  N   UNL     1      10.302  17.090  24.683  0.00  0.00    +0.000 NA
ATOM     32  N   UNL     1       9.444  17.120  23.678  0.00  0.00    +0.000 NA
ENDBRANCH  19  28
ENDBRANCH   1  18
TORSDOF 6
ENDMDL
MODEL 8
REMARK VINA RESULT:      -6.1      3.120      6.736
REMARK  Name = 
REMARK  7 active torsions:
REMARK  status: ('A' for Active; 'I' for Inactive)
REMARK    1  A    between atoms: C_1  and  C_2
REMARK    2  A    between atoms: C_5  and  N_6
REMARK    3  A    between atoms: N_6  and  C_14
REMARK    4  A    between atoms: C_7  and  C_9
REMARK    5  A    between atoms: C_14  and  C_15
REMARK    6  A    between atoms: C_14  and  C_24
REMARK    7  A    between atoms: N_17  and  C_18
REMARK                            x       y       z     vdW  Elec       q    Type
REMARK                         _______ _______ _______ _____ _____    ______ ____
ROOT
ATOM      1  C   UNL     1      -1.232  11.515  20.093  0.00  0.00    +0.000 C 
ENDROOT
BRANCH   1   2
ATOM      2  C   UNL     1      -0.228  10.427  19.681  0.00  0.00    +0.000 A 
ATOM      3  C   UNL     1       0.177  10.285  18.341  0.00  0.00    +0.000 A 
ATOM      4  C   UNL     1       1.182   9.387  17.985  0.00  0.00    +0.000 A 
ATOM      5  C   UNL     1       1.732   8.601  18.977  0.00  0.00    +0.000 A 
ATOM      6  N   UNL     1       1.311   8.623  20.254  0.00  0.00    +0.000 NA
ATOM      7  C   UNL     1       0.343   9.520  20.570  0.00  0.00    +0.000 A 
ENDBRANCH   1   2
BRANCH   1   8
ATOM      8  C   UNL     1      -2.287  11.809  18.943  0.00  0.00    +0.000 C 
ATOM      9  O   UNL     1      -1.958  11.906  17.762  0.00  0.00    +0.000 OA
ATOM     10  N   UNL     1      -3.609  11.914  19.328  0.00  0.00    +0.000 N 
ATOM     11  H   UNL     1      -3.718  12.302  20.253  0.00  0.00    +0.000 HD
BRANCH  10  12
ATOM     12  C   UNL     1      -4.707  12.227  18.406  0.00  0.00    +0.000 C 
ATOM     13  C   UNL     1      -5.451  10.995  17.863  0.00  0.00    +0.000 C 
ATOM     14  C   UNL     1      -6.121  10.201  18.982  0.00  0.00    +0.000 C 
ATOM     15  C   UNL     1      -7.081  11.079  19.778  0.00  0.00    +0.000 C 
ATOM     16  C   UNL     1      -6.428  12.366  20.270  0.00  0.00    +0.000 C 
ATOM     17  C   UNL     1      -5.718  13.124  19.144  0.00  0.00    +0.000 C 
ENDBRANCH  10  12
ENDBRANCH   1   8
BRANCH   1  18
ATOM     18  N   UNL     1      -0.639  12.736  20.749  0.00  0.00    +0.000 N 
ATOM     19  C   UNL     1      -0.764  12.920  22.140  0.00  0.00    +0.000 C 
ATOM     20  O   UNL     1      -1.046  11.967  22.871  0.00  0.00    +0.000 OA
BRANCH  18  25
ATOM     21  C   UNL     1       2.487  16.646  17.903  0.00  0.00    +0.000 C 
ATOM     22  C   UNL     1       1.667  15.608  18.611  0.00  0.00    +0.000 A 
ATOM     23  C   UNL     1       2.264  14.441  19.094  0.00  0.00    +0.000 A 
ATOM     24  C   UNL     1       1.491  13.461  19.727  0.00  0.00    +0.000 A 
ATOM     25  C   UNL     1       0.114  13.646  19.933  0.00  0.00    +0.000 A 
ATOM     26  C   UNL     1      -0.486  14.798  19.417  0.00  0.00    +0.000 A 
ATOM     27  C   UNL     1       0.283  15.765  18.755  0.00  0.00    +0.000 A 
ENDBRANCH  18  25
BRANCH  19  28
ATOM     28  C   UNL     1      -0.584  14.264  22.722  0.00  0.00    +0.000 A 
ATOM     29  C   UNL     1      -1.636  15.085  23.096  0.00  0.00    +0.000 A 
ATOM     30  S   UNL     1      -0.974  16.495  23.810  0.00  0.00    +0.000 S 
ATOM     31  N   UNL     1       0.598  16.012  23.529  0.00  0.00    +0.000 NA
ATOM     32  N   UNL     1       0.671  14.850  22.906  0.00  0.00    +0.000 NA
ENDBRANCH  19  28
ENDBRANCH   1  18
TORSDOF 6
ENDMDL
MODEL 9
REMARK VINA RESULT:      -6.1      3.296      6.664
REMARK  Name = 
REMARK  7 active torsions:
REMARK  status: ('A' for Active; 'I' for Inactive)
REMARK    1  A    between atoms: C_1  and  C_2
REMARK    2  A    between atoms: C_5  and  N_6
REMARK    3  A    between atoms: N_6  and  C_14
REMARK    4  A    between atoms: C_7  and  C_9
REMARK    5  A    between atoms: C_14  and  C_15
REMARK    6  A    between atoms: C_14  and  C_24
REMARK    7  A    between atoms: N_17  and  C_18
REMARK                            x       y       z     vdW  Elec       q    Type
REMARK                         _______ _______ _______ _____ _____    ______ ____
ROOT
ATOM      1  C   UNL     1      -1.586  11.530  20.244  0.00  0.00    +0.000 C 
ENDROOT
BRANCH   1   2
ATOM      2  C   UNL     1      -0.509  10.523  19.810  0.00  0.00    +0.000 A 
ATOM      3  C   UNL     1      -0.073  10.459  18.474  0.00  0.00    +0.000 A 
ATOM      4  C   UNL     1       0.992   9.639  18.103  0.00  0.00    +0.000 A 
ATOM      5  C   UNL     1       1.574   8.851  19.075  0.00  0.00    +0.000 A 
ATOM      6  N   UNL     1       1.130   8.797  20.344  0.00  0.00    +0.000 NA
ATOM      7  C   UNL     1       0.103   9.620  20.675  0.00  0.00    +0.000 A 
ENDBRANCH   1   2
BRANCH   1   8
ATOM      8  C   UNL     1      -2.604  11.846  19.067  0.00  0.00    +0.000 C 
ATOM      9  O   UNL     1      -2.248  11.906  17.892  0.00  0.00    +0.000 OA
ATOM     10  N   UNL     1      -3.928  12.015  19.423  0.00  0.00    +0.000 N 
ATOM     11  H   UNL     1      -4.038  12.425  20.338  0.00  0.00    +0.000 HD
BRANCH  10  12
ATOM     12  C   UNL     1      -4.993  12.356  18.473  0.00  0.00    +0.000 C 
ATOM     13  C   UNL     1      -5.758  11.145  17.914  0.00  0.00    +0.000 C 
ATOM     14  C   UNL     1      -6.478  10.372  19.018  0.00  0.00    +0.000 C 
ATOM     15  C   UNL     1      -7.433  11.280  19.787  0.00  0.00    +0.000 C 
ATOM     16  C   UNL     1      -6.756  12.550  20.293  0.00  0.00    +0.000 C 
ATOM     17  C   UNL     1      -5.996  13.283  19.183  0.00  0.00    +0.000 C 
ENDBRANCH  10  12
ENDBRANCH   1   8
BRANCH   1  18
ATOM     18  N   UNL     1      -1.087  12.733  21.003  0.00  0.00    +0.000 N 
ATOM     19  C   UNL     1      -1.546  12.981  22.312  0.00  0.00    +0.000 C 
ATOM     20  O   UNL     1      -2.074  12.080  22.967  0.00  0.00    +0.000 OA
BRANCH  18  25
ATOM     21  C   UNL     1       2.949  15.694  18.157  0.00  0.00    +0.000 C 
ATOM     22  C   UNL     1       1.897  14.950  18.925  0.00  0.00    +0.000 A 
ATOM     23  C   UNL     1       0.543  15.223  18.718  0.00  0.00    +0.000 A 
ATOM     24  C   UNL     1      -0.436  14.550  19.459  0.00  0.00    +0.000 A 
ATOM     25  C   UNL     1      -0.084  13.556  20.388  0.00  0.00    +0.000 A 
ATOM     26  C   UNL     1       1.272  13.312  20.618  0.00  0.00    +0.000 A 
ATOM     27  C   UNL     1       2.252  14.009  19.899  0.00  0.00    +0.000 A 
ENDBRANCH  18  25
BRANCH  19  28
ATOM     28  C   UNL     1      -1.417  14.331  22.892  0.00  0.00    +0.000 A 
ATOM     29  C   UNL     1      -2.308  15.363  22.639  0.00  0.00    +0.000 A 
ATOM     30  S   UNL     1      -1.835  16.709  23.588  0.00  0.00    +0.000 S 
ATOM     31  N   UNL     1      -0.493  15.928  24.196  0.00  0.00    +0.000 NA
ATOM     32  N   UNL     1      -0.352  14.706  23.715  0.00  0.00    +0.000 NA
ENDBRANCH  19  28
ENDBRANCH   1  18
TORSDOF 6
ENDMDL
