MODEL 1
REMARK VINA RESULT:      -7.3      0.000      0.000
REMARK  Name = 
REMARK  3 active torsions:
REMARK  status: ('A' for Active; 'I' for Inactive)
REMARK    1  A    between atoms: S_2  and  C_4
REMARK    2  A    between atoms: S_2  and  C_11
REMARK    3  A    between atoms: C_7  and  O_8
REMARK                            x       y       z     vdW  Elec       q    Type
REMARK                         _______ _______ _______ _____ _____    ______ ____
ROOT
ATOM      1  O   UNL     1       7.313   4.516  18.452  0.00  0.00    +0.000 OA
ATOM      2  S   UNL     1       6.575   5.506  17.683  0.00  0.00    +0.000 S 
ATOM      3  O   UNL     1       6.978   6.902  17.758  0.00  0.00    +0.000 OA
ENDROOT
BRANCH   2   4
ATOM      4  C   UNL     1       4.898   5.439  18.217  0.00  0.00    +0.000 A 
ATOM      5  C   UNL     1       4.518   4.583  19.256  0.00  0.00    +0.000 A 
ATOM      6  C   UNL     1       3.205   4.617  19.730  0.00  0.00    +0.000 A 
ATOM      7  C   UNL     1       2.282   5.504  19.172  0.00  0.00    +0.000 A 
ATOM      8  C   UNL     1       2.669   6.349  18.130  0.00  0.00    +0.000 A 
ATOM      9  C   UNL     1       3.977   6.310  17.653  0.00  0.00    +0.000 A 
ATOM     10  F   UNL     1       4.325   7.131  16.653  0.00  0.00    +0.000 F 
ENDBRANCH   2   4
BRANCH   2  11
ATOM     11  C   UNL     1       6.717   5.007  15.995  0.00  0.00    +0.000 A 
ATOM     12  C   UNL     1       5.904   4.019  15.470  0.00  0.00    +0.000 A 
ATOM     13  C   UNL     1       6.008   3.762  14.109  0.00  0.00    +0.000 A 
ATOM     14  C   UNL     1       6.922   4.501  13.378  0.00  0.00    +0.000 A 
ATOM     15  N   UNL     1       7.716   5.441  13.936  0.00  0.00    +0.000 NA
ATOM     16  N   UNL     1       7.614   5.709  15.271  0.00  0.00    +0.000 NA
BRANCH  14  17
ATOM     17  O   UNL     1       7.057   4.326  12.032  0.00  0.00    +0.000 OA
ATOM     18  H   UNL     1       6.739   5.124  11.584  0.00  0.00    +0.000 HD
ENDBRANCH  14  17
ENDBRANCH   2  11
TORSDOF 3
ENDMDL
MODEL 2
REMARK VINA RESULT:      -7.3      1.596      1.692
REMARK  Name = 
REMARK  3 active torsions:
REMARK  status: ('A' for Active; 'I' for Inactive)
REMARK    1  A    between atoms: S_2  and  C_4
REMARK    2  A    between atoms: S_2  and  C_11
REMARK    3  A    between atoms: C_7  and  O_8
REMARK                            x       y       z     vdW  Elec       q    Type
REMARK                         _______ _______ _______ _____ _____    ______ ____
ROOT
ATOM      1  O   UNL     1       6.479   4.181  18.722  0.00  0.00    +0.000 OA
ATOM      2  S   UNL     1       5.520   4.865  17.867  0.00  0.00    +0.000 S 
ATOM      3  O   UNL     1       5.226   6.268  18.117  0.00  0.00    +0.000 OA
ENDROOT
BRANCH   2   4
ATOM      4  C   UNL     1       3.992   4.000  18.001  0.00  0.00    +0.000 A 
ATOM      5  C   UNL     1       3.966   2.665  18.414  0.00  0.00    +0.000 A 
ATOM      6  C   UNL     1       2.738   2.028  18.608  0.00  0.00    +0.000 A 
ATOM      7  C   UNL     1       1.547   2.725  18.396  0.00  0.00    +0.000 A 
ATOM      8  C   UNL     1       1.583   4.056  17.976  0.00  0.00    +0.000 A 
ATOM      9  C   UNL     1       2.808   4.689  17.776  0.00  0.00    +0.000 A 
ATOM     10  F   UNL     1       2.817   5.967  17.375  0.00  0.00    +0.000 F 
ENDBRANCH   2   4
BRANCH   2  11
ATOM     11  C   UNL     1       6.167   4.747  16.229  0.00  0.00    +0.000 A 
ATOM     12  C   UNL     1       5.546   3.970  15.267  0.00  0.00    +0.000 A 
ATOM     13  C   UNL     1       6.059   4.017  13.978  0.00  0.00    +0.000 A 
ATOM     14  C   UNL     1       7.159   4.826  13.746  0.00  0.00    +0.000 A 
ATOM     15  N   UNL     1       7.751   5.551  14.721  0.00  0.00    +0.000 NA
ATOM     16  N   UNL     1       7.248   5.520  15.990  0.00  0.00    +0.000 NA
BRANCH  14  17
ATOM     17  O   UNL     1       7.697   4.946  12.499  0.00  0.00    +0.000 OA
ATOM     18  H   UNL     1       8.661   4.985  12.582  0.00  0.00    +0.000 HD
ENDBRANCH  14  17
ENDBRANCH   2  11
TORSDOF 3
ENDMDL
MODEL 3
REMARK VINA RESULT:      -7.3      1.847      2.360
REMARK  Name = 
REMARK  3 active torsions:
REMARK  status: ('A' for Active; 'I' for Inactive)
REMARK    1  A    between atoms: S_2  and  C_4
REMARK    2  A    between atoms: S_2  and  C_11
REMARK    3  A    between atoms: C_7  and  O_8
REMARK                            x       y       z     vdW  Elec       q    Type
REMARK                         _______ _______ _______ _____ _____    ______ ____
ROOT
ATOM      1  O   UNL     1       4.113   3.160  17.869  0.00  0.00    +0.000 OA
ATOM      2  S   UNL     1       4.998   4.299  18.061  0.00  0.00    +0.000 S 
ATOM      3  O   UNL     1       6.007   4.240  19.108  0.00  0.00    +0.000 OA
ENDROOT
BRANCH   2   4
ATOM      4  C   UNL     1       3.985   5.695  18.417  0.00  0.00    +0.000 A 
ATOM      5  C   UNL     1       3.918   6.770  17.525  0.00  0.00    +0.000 A 
ATOM      6  C   UNL     1       3.034   7.821  17.778  0.00  0.00    +0.000 A 
ATOM      7  C   UNL     1       2.219   7.791  18.912  0.00  0.00    +0.000 A 
ATOM      8  C   UNL     1       2.298   6.717  19.801  0.00  0.00    +0.000 A 
ATOM      9  C   UNL     1       3.185   5.672  19.551  0.00  0.00    +0.000 A 
ATOM     10  F   UNL     1       3.242   4.652  20.417  0.00  0.00    +0.000 F 
ENDBRANCH   2   4
BRANCH   2  11
ATOM     11  C   UNL     1       5.845   4.513  16.527  0.00  0.00    +0.000 A 
ATOM     12  C   UNL     1       5.363   3.951  15.358  0.00  0.00    +0.000 A 
ATOM     13  C   UNL     1       6.031   4.256  14.179  0.00  0.00    +0.000 A 
ATOM     14  C   UNL     1       7.134   5.089  14.255  0.00  0.00    +0.000 A 
ATOM     15  N   UNL     1       7.586   5.598  15.423  0.00  0.00    +0.000 NA
ATOM     16  N   UNL     1       6.932   5.312  16.586  0.00  0.00    +0.000 NA
BRANCH  14  17
ATOM     17  O   UNL     1       7.819   5.458  13.135  0.00  0.00    +0.000 OA
ATOM     18  H   UNL     1       7.272   5.261  12.360  0.00  0.00    +0.000 HD
ENDBRANCH  14  17
ENDBRANCH   2  11
TORSDOF 3
ENDMDL
MODEL 4
REMARK VINA RESULT:      -7.1      1.845      2.213
REMARK  Name = 
REMARK  3 active torsions:
REMARK  status: ('A' for Active; 'I' for Inactive)
REMARK    1  A    between atoms: S_2  and  C_4
REMARK    2  A    between atoms: S_2  and  C_11
REMARK    3  A    between atoms: C_7  and  O_8
REMARK                            x       y       z     vdW  Elec       q    Type
REMARK                         _______ _______ _______ _____ _____    ______ ____
ROOT
ATOM      1  O   UNL     1       6.513   4.342  18.816  0.00  0.00    +0.000 OA
ATOM      2  S   UNL     1       5.598   5.084  17.962  0.00  0.00    +0.000 S 
ATOM      3  O   UNL     1       5.452   6.518  18.161  0.00  0.00    +0.000 OA
ENDROOT
BRANCH   2   4
ATOM      4  C   UNL     1       3.997   4.382  18.179  0.00  0.00    +0.000 A 
ATOM      5  C   UNL     1       2.867   5.013  17.647  0.00  0.00    +0.000 A 
ATOM      6  C   UNL     1       1.621   4.390  17.745  0.00  0.00    +0.000 A 
ATOM      7  C   UNL     1       1.509   3.144  18.364  0.00  0.00    +0.000 A 
ATOM      8  C   UNL     1       2.641   2.525  18.898  0.00  0.00    +0.000 A 
ATOM      9  C   UNL     1       3.883   3.150  18.806  0.00  0.00    +0.000 A 
ATOM     10  F   UNL     1       4.955   2.536  19.324  0.00  0.00    +0.000 F 
ENDBRANCH   2   4
BRANCH   2  11
ATOM     11  C   UNL     1       6.173   4.837  16.312  0.00  0.00    +0.000 A 
ATOM     12  C   UNL     1       5.526   3.971  15.449  0.00  0.00    +0.000 A 
ATOM     13  C   UNL     1       5.980   3.916  14.138  0.00  0.00    +0.000 A 
ATOM     14  C   UNL     1       7.052   4.720  13.789  0.00  0.00    +0.000 A 
ATOM     15  N   UNL     1       7.672   5.535  14.670  0.00  0.00    +0.000 NA
ATOM     16  N   UNL     1       7.227   5.604  15.960  0.00  0.00    +0.000 NA
BRANCH  14  17
ATOM     17  O   UNL     1       7.532   4.742  12.512  0.00  0.00    +0.000 OA
ATOM     18  H   UNL     1       6.983   4.159  11.967  0.00  0.00    +0.000 HD
ENDBRANCH  14  17
ENDBRANCH   2  11
TORSDOF 3
ENDMDL
MODEL 5
REMARK VINA RESULT:      -7.1      2.373      2.851
REMARK  Name = 
REMARK  3 active torsions:
REMARK  status: ('A' for Active; 'I' for Inactive)
REMARK    1  A    between atoms: S_2  and  C_4
REMARK    2  A    between atoms: S_2  and  C_11
REMARK    3  A    between atoms: C_7  and  O_8
REMARK                            x       y       z     vdW  Elec       q    Type
REMARK                         _______ _______ _______ _____ _____    ______ ____
ROOT
ATOM      1  O   UNL     1       5.341   5.394  19.679  0.00  0.00    +0.000 OA
ATOM      2  S   UNL     1       4.441   5.514  18.541  0.00  0.00    +0.000 S 
ATOM      3  O   UNL     1       3.699   6.752  18.356  0.00  0.00    +0.000 OA
ENDROOT
BRANCH   2   4
ATOM      4  C   UNL     1       3.246   4.228  18.681  0.00  0.00    +0.000 A 
ATOM      5  C   UNL     1       1.907   4.465  18.354  0.00  0.00    +0.000 A 
ATOM      6  C   UNL     1       0.995   3.408  18.378  0.00  0.00    +0.000 A 
ATOM      7  C   UNL     1       1.423   2.123  18.719  0.00  0.00    +0.000 A 
ATOM      8  C   UNL     1       2.761   1.897  19.050  0.00  0.00    +0.000 A 
ATOM      9  C   UNL     1       3.669   2.954  19.033  0.00  0.00    +0.000 A 
ATOM     10  F   UNL     1       4.946   2.713  19.353  0.00  0.00    +0.000 F 
ENDBRANCH   2   4
BRANCH   2  11
ATOM     11  C   UNL     1       5.446   5.285  17.108  0.00  0.00    +0.000 A 
ATOM     12  C   UNL     1       5.047   4.450  16.079  0.00  0.00    +0.000 A 
ATOM     13  C   UNL     1       5.845   4.409  14.943  0.00  0.00    +0.000 A 
ATOM     14  C   UNL     1       6.986   5.193  14.923  0.00  0.00    +0.000 A 
ATOM     15  N   UNL     1       7.353   5.977  15.961  0.00  0.00    +0.000 NA
ATOM     16  N   UNL     1       6.570   6.032  17.079  0.00  0.00    +0.000 NA
BRANCH  14  17
ATOM     17  O   UNL     1       7.800   5.228  13.829  0.00  0.00    +0.000 OA
ATOM     18  H   UNL     1       7.453   5.886  13.208  0.00  0.00    +0.000 HD
ENDBRANCH  14  17
ENDBRANCH   2  11
TORSDOF 3
ENDMDL
MODEL 6
REMARK VINA RESULT:      -7.0      2.509      2.979
REMARK  Name = 
REMARK  3 active torsions:
REMARK  status: ('A' for Active; 'I' for Inactive)
REMARK    1  A    between atoms: S_2  and  C_4
REMARK    2  A    between atoms: S_2  and  C_11
REMARK    3  A    between atoms: C_7  and  O_8
REMARK                            x       y       z     vdW  Elec       q    Type
REMARK                         _______ _______ _______ _____ _____    ______ ____
ROOT
ATOM      1  O   UNL     1       5.671   4.294  19.983  0.00  0.00    +0.000 OA
ATOM      2  S   UNL     1       4.724   4.933  19.082  0.00  0.00    +0.000 S 
ATOM      3  O   UNL     1       4.262   6.280  19.383  0.00  0.00    +0.000 OA
ENDROOT
BRANCH   2   4
ATOM      4  C   UNL     1       3.290   3.912  19.022  0.00  0.00    +0.000 A 
ATOM      5  C   UNL     1       3.097   3.021  17.962  0.00  0.00    +0.000 A 
ATOM      6  C   UNL     1       2.004   2.151  17.984  0.00  0.00    +0.000 A 
ATOM      7  C   UNL     1       1.116   2.170  19.062  0.00  0.00    +0.000 A 
ATOM      8  C   UNL     1       1.313   3.068  20.113  0.00  0.00    +0.000 A 
ATOM      9  C   UNL     1       2.400   3.940  20.087  0.00  0.00    +0.000 A 
ATOM     10  F   UNL     1       2.569   4.792  21.106  0.00  0.00    +0.000 F 
ENDBRANCH   2   4
BRANCH   2  11
ATOM     11  C   UNL     1       5.520   4.989  17.508  0.00  0.00    +0.000 A 
ATOM     12  C   UNL     1       4.881   5.518  16.400  0.00  0.00    +0.000 A 
ATOM     13  C   UNL     1       5.617   5.621  15.227  0.00  0.00    +0.000 A 
ATOM     14  C   UNL     1       6.929   5.180  15.243  0.00  0.00    +0.000 A 
ATOM     15  N   UNL     1       7.508   4.647  16.342  0.00  0.00    +0.000 NA
ATOM     16  N   UNL     1       6.797   4.550  17.503  0.00  0.00    +0.000 NA
BRANCH  14  17
ATOM     17  O   UNL     1       7.722   5.280  14.137  0.00  0.00    +0.000 OA
ATOM     18  H   UNL     1       7.527   4.534  13.550  0.00  0.00    +0.000 HD
ENDBRANCH  14  17
ENDBRANCH   2  11
TORSDOF 3
ENDMDL
MODEL 7
REMARK VINA RESULT:      -7.0      2.464      2.878
REMARK  Name = 
REMARK  3 active torsions:
REMARK  status: ('A' for Active; 'I' for Inactive)
REMARK    1  A    between atoms: S_2  and  C_4
REMARK    2  A    between atoms: S_2  and  C_11
REMARK    3  A    between atoms: C_7  and  O_8
REMARK                            x       y       z     vdW  Elec       q    Type
REMARK                         _______ _______ _______ _____ _____    ______ ____
ROOT
ATOM      1  O   UNL     1       5.757   3.859  19.846  0.00  0.00    +0.000 OA
ATOM      2  S   UNL     1       4.834   4.675  19.071  0.00  0.00    +0.000 S 
ATOM      3  O   UNL     1       4.524   6.021  19.532  0.00  0.00    +0.000 OA
ENDROOT
BRANCH   2   4
ATOM      4  C   UNL     1       3.304   3.806  18.997  0.00  0.00    +0.000 A 
ATOM      5  C   UNL     1       2.174   4.299  19.656  0.00  0.00    +0.000 A 
ATOM      6  C   UNL     1       0.948   3.647  19.504  0.00  0.00    +0.000 A 
ATOM      7  C   UNL     1       0.855   2.515  18.692  0.00  0.00    +0.000 A 
ATOM      8  C   UNL     1       1.990   2.026  18.042  0.00  0.00    +0.000 A 
ATOM      9  C   UNL     1       3.214   2.672  18.201  0.00  0.00    +0.000 A 
ATOM     10  F   UNL     1       4.288   2.185  17.567  0.00  0.00    +0.000 F 
ENDBRANCH   2   4
BRANCH   2  11
ATOM     11  C   UNL     1       5.552   4.821  17.465  0.00  0.00    +0.000 A 
ATOM     12  C   UNL     1       4.832   5.337  16.402  0.00  0.00    +0.000 A 
ATOM     13  C   UNL     1       5.505   5.515  15.201  0.00  0.00    +0.000 A 
ATOM     14  C   UNL     1       6.841   5.156  15.146  0.00  0.00    +0.000 A 
ATOM     15  N   UNL     1       7.501   4.633  16.203  0.00  0.00    +0.000 NA
ATOM     16  N   UNL     1       6.852   4.462  17.392  0.00  0.00    +0.000 NA
BRANCH  14  17
ATOM     17  O   UNL     1       7.574   5.333  14.010  0.00  0.00    +0.000 OA
ATOM     18  H   UNL     1       8.271   5.982  14.191  0.00  0.00    +0.000 HD
ENDBRANCH  14  17
ENDBRANCH   2  11
TORSDOF 3
ENDMDL
MODEL 8
REMARK VINA RESULT:      -7.0      2.639      3.091
REMARK  Name = 
REMARK  3 active torsions:
REMARK  status: ('A' for Active; 'I' for Inactive)
REMARK    1  A    between atoms: S_2  and  C_4
REMARK    2  A    between atoms: S_2  and  C_11
REMARK    3  A    between atoms: C_7  and  O_8
REMARK                            x       y       z     vdW  Elec       q    Type
REMARK                         _______ _______ _______ _____ _____    ______ ____
ROOT
ATOM      1  O   UNL     1       4.722   5.548  19.964  0.00  0.00    +0.000 OA
ATOM      2  S   UNL     1       3.989   5.672  18.713  0.00  0.00    +0.000 S 
ATOM      3  O   UNL     1       3.229   6.887  18.459  0.00  0.00    +0.000 OA
ENDROOT
BRANCH   2   4
ATOM      4  C   UNL     1       2.842   4.338  18.645  0.00  0.00    +0.000 A 
ATOM      5  C   UNL     1       3.029   3.287  17.741  0.00  0.00    +0.000 A 
ATOM      6  C   UNL     1       2.164   2.191  17.770  0.00  0.00    +0.000 A 
ATOM      7  C   UNL     1       1.124   2.146  18.701  0.00  0.00    +0.000 A 
ATOM      8  C   UNL     1       0.941   3.203  19.595  0.00  0.00    +0.000 A 
ATOM      9  C   UNL     1       1.800   4.299  19.561  0.00  0.00    +0.000 A 
ATOM     10  F   UNL     1       1.606   5.300  20.429  0.00  0.00    +0.000 F 
ENDBRANCH   2   4
BRANCH   2  11
ATOM     11  C   UNL     1       5.196   5.529  17.433  0.00  0.00    +0.000 A 
ATOM     12  C   UNL     1       6.306   4.717  17.583  0.00  0.00    +0.000 A 
ATOM     13  C   UNL     1       7.150   4.579  16.488  0.00  0.00    +0.000 A 
ATOM     14  C   UNL     1       6.830   5.271  15.332  0.00  0.00    +0.000 A 
ATOM     15  N   UNL     1       5.748   6.074  15.236  0.00  0.00    +0.000 NA
ATOM     16  N   UNL     1       4.906   6.209  16.303  0.00  0.00    +0.000 NA
BRANCH  14  17
ATOM     17  O   UNL     1       7.595   5.159  14.208  0.00  0.00    +0.000 OA
ATOM     18  H   UNL     1       8.300   4.516  14.377  0.00  0.00    +0.000 HD
ENDBRANCH  14  17
ENDBRANCH   2  11
TORSDOF 3
ENDMDL
MODEL 9
REMARK VINA RESULT:      -6.9      3.468      4.542
REMARK  Name = 
REMARK  3 active torsions:
REMARK  status: ('A' for Active; 'I' for Inactive)
REMARK    1  A    between atoms: S_2  and  C_4
REMARK    2  A    between atoms: S_2  and  C_11
REMARK    3  A    between atoms: C_7  and  O_8
REMARK                            x       y       z     vdW  Elec       q    Type
REMARK                         _______ _______ _______ _____ _____    ______ ____
ROOT
ATOM      1  O   UNL     1       3.218   4.285  16.828  0.00  0.00    +0.000 OA
ATOM      2  S   UNL     1       3.998   3.580  17.835  0.00  0.00    +0.000 S 
ATOM      3  O   UNL     1       4.441   2.222  17.561  0.00  0.00    +0.000 OA
ENDROOT
BRANCH   2   4
ATOM      4  C   UNL     1       3.018   3.504  19.296  0.00  0.00    +0.000 A 
ATOM      5  C   UNL     1       1.819   4.218  19.385  0.00  0.00    +0.000 A 
ATOM      6  C   UNL     1       1.009   4.066  20.512  0.00  0.00    +0.000 A 
ATOM      7  C   UNL     1       1.395   3.202  21.539  0.00  0.00    +0.000 A 
ATOM      8  C   UNL     1       2.598   2.499  21.445  0.00  0.00    +0.000 A 
ATOM      9  C   UNL     1       3.408   2.656  20.323  0.00  0.00    +0.000 A 
ATOM     10  F   UNL     1       4.556   1.970  20.254  0.00  0.00    +0.000 F 
ENDBRANCH   2   4
BRANCH   2  11
ATOM     11  C   UNL     1       5.442   4.562  18.097  0.00  0.00    +0.000 A 
ATOM     12  C   UNL     1       5.987   5.321  17.076  0.00  0.00    +0.000 A 
ATOM     13  C   UNL     1       7.058   6.145  17.395  0.00  0.00    +0.000 A 
ATOM     14  C   UNL     1       7.512   6.143  18.702  0.00  0.00    +0.000 A 
ATOM     15  N   UNL     1       6.965   5.367  19.664  0.00  0.00    +0.000 NA
ATOM     16  N   UNL     1       5.905   4.560  19.364  0.00  0.00    +0.000 NA
BRANCH  14  17
ATOM     17  O   UNL     1       8.538   6.950  19.096  0.00  0.00    +0.000 OA
ATOM     18  H   UNL     1       8.491   7.063  20.057  0.00  0.00    +0.000 HD
ENDBRANCH  14  17
ENDBRANCH   2  11
TORSDOF 3
ENDMDL
