MODEL 1
REMARK VINA RESULT:      -6.9      0.000      0.000
REMARK  Name = 
REMARK  10 active torsions:
REMARK  status: ('A' for Active; 'I' for Inactive)
REMARK    1  A    between atoms: C_1  and  C_2
REMARK    2  A    between atoms: C_2  and  C_3
REMARK    3  A    between atoms: N_5  and  C_6
REMARK    4  A    between atoms: C_9  and  N_10
REMARK    5  A    between atoms: C_11  and  S_12
REMARK    6  A    between atoms: N_13  and  C_14
REMARK    7  A    between atoms: C_18  and  O_19
REMARK    8  A    between atoms: O_19  and  C_20
REMARK    9  A    between atoms: C_22  and  O_23
REMARK   10  A    between atoms: O_23  and  C_24
REMARK                            x       y       z     vdW  Elec       q    Type
REMARK                         _______ _______ _______ _____ _____    ______ ____
ROOT
ATOM      1  N   UNL     1       0.579  11.162  19.073  0.00  0.00    +0.000 N 
ATOM      2  C   UNL     1      -0.691  11.593  18.766  0.00  0.00    +0.000 C 
ATOM      3  N   UNL     1      -1.699  10.808  18.529  0.00  0.00    +0.000 NA
ATOM      4  H   UNL     1       1.226  11.873  19.382  0.00  0.00    +0.000 HD
ENDROOT
BRANCH   3   5
ATOM      5  C   UNL     1      -2.992  11.176  18.140  0.00  0.00    +0.000 A 
ATOM      6  C   UNL     1      -3.852  11.765  19.077  0.00  0.00    +0.000 A 
ATOM      7  C   UNL     1      -5.106  12.256  18.720  0.00  0.00    +0.000 A 
ATOM      8 CL   UNL     1      -6.117  12.874  19.980  0.00  0.00    +0.000 Cl
ATOM      9  C   UNL     1      -5.512  12.267  17.384  0.00  0.00    +0.000 A 
ATOM     10  C   UNL     1      -4.641  11.743  16.427  0.00  0.00    +0.000 A 
ATOM     11  C   UNL     1      -3.398  11.191  16.790  0.00  0.00    +0.000 A 
BRANCH   9  12
ATOM     12  O   UNL     1      -6.735  12.817  17.112  0.00  0.00    +0.000 OA
ATOM     13  C   UNL     1      -6.770  14.193  16.762  0.00  0.00    +0.000 C 
ENDBRANCH   9  12
BRANCH  11  14
ATOM     14  O   UNL     1      -2.674  10.802  15.689  0.00  0.00    +0.000 OA
ATOM     15  C   UNL     1      -3.354  10.080  14.673  0.00  0.00    +0.000 C 
ENDBRANCH  11  14
ENDBRANCH   3   5
BRANCH   1  19
ATOM     16  C   UNL     1       2.245   7.319  19.605  0.00  0.00    +0.000 A 
ATOM     17  C   UNL     1       1.552   7.934  20.642  0.00  0.00    +0.000 A 
ATOM     18  C   UNL     1       0.930   9.164  20.448  0.00  0.00    +0.000 A 
ATOM     19  C   UNL     1       0.995   9.830  19.224  0.00  0.00    +0.000 A 
ATOM     20  C   UNL     1       1.619   9.171  18.159  0.00  0.00    +0.000 A 
ATOM     21  C   UNL     1       2.252   7.931  18.348  0.00  0.00    +0.000 A 
BRANCH  16  24
ATOM     22  C   UNL     1       2.529   4.847  19.573  0.00  0.00    +0.000 C 
ATOM     23  O   UNL     1       1.469   4.550  19.040  0.00  0.00    +0.000 OA
ATOM     24  N   UNL     1       2.995   6.138  19.786  0.00  0.00    +0.000 N 
ATOM     25  H   UNL     1       3.956   6.248  20.084  0.00  0.00    +0.000 HD
BRANCH  22  27
ATOM     26  C   UNL     1       2.791   2.864  21.069  0.00  0.00    +0.000 C 
ATOM     27  C   UNL     1       3.486   3.790  20.080  0.00  0.00    +0.000 C 
ENDBRANCH  22  27
ENDBRANCH  16  24
ENDBRANCH   1  19
BRANCH   2  28
ATOM     28  S   UNL     1      -0.765  13.352  18.780  0.00  0.00    +0.000 S 
ATOM     29  H   UNL     1      -1.148  13.481  17.502  0.00  0.00    +0.000 HD
ENDBRANCH   2  28
TORSDOF 7
ENDMDL
MODEL 2
REMARK VINA RESULT:      -6.5      1.240      1.604
REMARK  Name = 
REMARK  10 active torsions:
REMARK  status: ('A' for Active; 'I' for Inactive)
REMARK    1  A    between atoms: C_1  and  C_2
REMARK    2  A    between atoms: C_2  and  C_3
REMARK    3  A    between atoms: N_5  and  C_6
REMARK    4  A    between atoms: C_9  and  N_10
REMARK    5  A    between atoms: C_11  and  S_12
REMARK    6  A    between atoms: N_13  and  C_14
REMARK    7  A    between atoms: C_18  and  O_19
REMARK    8  A    between atoms: O_19  and  C_20
REMARK    9  A    between atoms: C_22  and  O_23
REMARK   10  A    between atoms: O_23  and  C_24
REMARK                            x       y       z     vdW  Elec       q    Type
REMARK                         _______ _______ _______ _____ _____    ______ ____
ROOT
ATOM      1  N   UNL     1       1.478  10.493  18.846  0.00  0.00    +0.000 N 
ATOM      2  C   UNL     1       0.210  10.994  18.662  0.00  0.00    +0.000 C 
ATOM      3  N   UNL     1      -0.867  10.268  18.597  0.00  0.00    +0.000 NA
ATOM      4  H   UNL     1       2.200  11.175  19.029  0.00  0.00    +0.000 HD
ENDROOT
BRANCH   3   5
ATOM      5  C   UNL     1      -2.172  10.702  18.339  0.00  0.00    +0.000 A 
ATOM      6  C   UNL     1      -2.828  11.510  19.277  0.00  0.00    +0.000 A 
ATOM      7  C   UNL     1      -4.080  12.066  19.024  0.00  0.00    +0.000 A 
ATOM      8 CL   UNL     1      -4.832  12.968  20.295  0.00  0.00    +0.000 Cl
ATOM      9  C   UNL     1      -4.687  11.913  17.776  0.00  0.00    +0.000 A 
ATOM     10  C   UNL     1      -4.019  11.164  16.806  0.00  0.00    +0.000 A 
ATOM     11  C   UNL     1      -2.781  10.550  17.077  0.00  0.00    +0.000 A 
BRANCH   9  12
ATOM     12  O   UNL     1      -5.891  12.537  17.592  0.00  0.00    +0.000 OA
ATOM     13  C   UNL     1      -7.059  11.836  17.991  0.00  0.00    +0.000 C 
ENDBRANCH   9  12
BRANCH  11  14
ATOM     14  O   UNL     1      -2.270   9.926  15.965  0.00  0.00    +0.000 OA
ATOM     15  C   UNL     1      -2.951  10.109  14.733  0.00  0.00    +0.000 C 
ENDBRANCH  11  14
ENDBRANCH   3   5
BRANCH   1  19
ATOM     16  C   UNL     1       2.095   6.343  19.318  0.00  0.00    +0.000 A 
ATOM     17  C   UNL     1       2.462   6.978  18.136  0.00  0.00    +0.000 A 
ATOM     18  C   UNL     1       2.338   8.359  18.004  0.00  0.00    +0.000 A 
ATOM     19  C   UNL     1       1.826   9.147  19.035  0.00  0.00    +0.000 A 
ATOM     20  C   UNL     1       1.539   8.519  20.252  0.00  0.00    +0.000 A 
ATOM     21  C   UNL     1       1.659   7.126  20.391  0.00  0.00    +0.000 A 
BRANCH  16  24
ATOM     22  C   UNL     1       1.541   4.045  18.543  0.00  0.00    +0.000 C 
ATOM     23  O   UNL     1       1.148   4.323  17.418  0.00  0.00    +0.000 OA
ATOM     24  N   UNL     1       2.084   4.940  19.456  0.00  0.00    +0.000 N 
ATOM     25  H   UNL     1       2.522   4.558  20.284  0.00  0.00    +0.000 HD
BRANCH  22  27
ATOM     26  C   UNL     1       1.539   2.633  20.603  0.00  0.00    +0.000 C 
ATOM     27  C   UNL     1       1.469   2.632  19.082  0.00  0.00    +0.000 C 
ENDBRANCH  22  27
ENDBRANCH  16  24
ENDBRANCH   1  19
BRANCH   2  28
ATOM     28  S   UNL     1       0.246  12.751  18.568  0.00  0.00    +0.000 S 
ATOM     29  H   UNL     1      -0.983  12.939  19.068  0.00  0.00    +0.000 HD
ENDBRANCH   2  28
TORSDOF 7
ENDMDL
MODEL 3
REMARK VINA RESULT:      -6.5      2.065      2.839
REMARK  Name = 
REMARK  10 active torsions:
REMARK  status: ('A' for Active; 'I' for Inactive)
REMARK    1  A    between atoms: C_1  and  C_2
REMARK    2  A    between atoms: C_2  and  C_3
REMARK    3  A    between atoms: N_5  and  C_6
REMARK    4  A    between atoms: C_9  and  N_10
REMARK    5  A    between atoms: C_11  and  S_12
REMARK    6  A    between atoms: N_13  and  C_14
REMARK    7  A    between atoms: C_18  and  O_19
REMARK    8  A    between atoms: O_19  and  C_20
REMARK    9  A    between atoms: C_22  and  O_23
REMARK   10  A    between atoms: O_23  and  C_24
REMARK                            x       y       z     vdW  Elec       q    Type
REMARK                         _______ _______ _______ _____ _____    ______ ____
ROOT
ATOM      1  N   UNL     1       1.868  10.221  18.936  0.00  0.00    +0.000 N 
ATOM      2  C   UNL     1       0.666  10.803  18.603  0.00  0.00    +0.000 C 
ATOM      3  N   UNL     1      -0.423  10.145  18.335  0.00  0.00    +0.000 NA
ATOM      4  H   UNL     1       2.587  10.849  19.266  0.00  0.00    +0.000 HD
ENDROOT
BRANCH   3   5
ATOM      5  C   UNL     1      -1.653  10.667  17.920  0.00  0.00    +0.000 A 
ATOM      6  C   UNL     1      -2.182  10.282  16.681  0.00  0.00    +0.000 A 
ATOM      7  C   UNL     1      -3.452  10.677  16.266  0.00  0.00    +0.000 A 
ATOM      8 CL   UNL     1      -3.959  10.219  14.678  0.00  0.00    +0.000 Cl
ATOM      9  C   UNL     1      -4.287  11.398  17.123  0.00  0.00    +0.000 A 
ATOM     10  C   UNL     1      -3.801  11.736  18.387  0.00  0.00    +0.000 A 
ATOM     11  C   UNL     1      -2.496  11.391  18.788  0.00  0.00    +0.000 A 
BRANCH   9  12
ATOM     12  O   UNL     1      -5.539  11.698  16.659  0.00  0.00    +0.000 OA
ATOM     13  C   UNL     1      -6.215  12.792  17.261  0.00  0.00    +0.000 C 
ENDBRANCH   9  12
BRANCH  11  14
ATOM     14  O   UNL     1      -2.251  11.756  20.089  0.00  0.00    +0.000 OA
ATOM     15  C   UNL     1      -2.726  13.022  20.520  0.00  0.00    +0.000 C 
ENDBRANCH  11  14
ENDBRANCH   3   5
BRANCH   1  19
ATOM     16  C   UNL     1       2.193   6.025  19.264  0.00  0.00    +0.000 A 
ATOM     17  C   UNL     1       2.658   6.679  18.128  0.00  0.00    +0.000 A 
ATOM     18  C   UNL     1       2.629   8.069  18.048  0.00  0.00    +0.000 A 
ATOM     19  C   UNL     1       2.119   8.849  19.085  0.00  0.00    +0.000 A 
ATOM     20  C   UNL     1       1.731   8.195  20.261  0.00  0.00    +0.000 A 
ATOM     21  C   UNL     1       1.754   6.793  20.347  0.00  0.00    +0.000 A 
BRANCH  16  24
ATOM     22  C   UNL     1       1.453   3.808  18.410  0.00  0.00    +0.000 C 
ATOM     23  O   UNL     1       1.051   4.162  17.311  0.00  0.00    +0.000 OA
ATOM     24  N   UNL     1       2.084   4.621  19.343  0.00  0.00    +0.000 N 
ATOM     25  H   UNL     1       2.516   4.173  20.142  0.00  0.00    +0.000 HD
BRANCH  22  27
ATOM     26  C   UNL     1       1.593   2.280  20.381  0.00  0.00    +0.000 C 
ATOM     27  C   UNL     1       1.295   2.381  18.892  0.00  0.00    +0.000 C 
ENDBRANCH  22  27
ENDBRANCH  16  24
ENDBRANCH   1  19
BRANCH   2  28
ATOM     28  S   UNL     1       0.801  12.559  18.630  0.00  0.00    +0.000 S 
ATOM     29  H   UNL     1       0.478  12.738  17.342  0.00  0.00    +0.000 HD
ENDBRANCH   2  28
TORSDOF 7
ENDMDL
MODEL 4
REMARK VINA RESULT:      -6.5      3.513      4.791
REMARK  Name = 
REMARK  10 active torsions:
REMARK  status: ('A' for Active; 'I' for Inactive)
REMARK    1  A    between atoms: C_1  and  C_2
REMARK    2  A    between atoms: C_2  and  C_3
REMARK    3  A    between atoms: N_5  and  C_6
REMARK    4  A    between atoms: C_9  and  N_10
REMARK    5  A    between atoms: C_11  and  S_12
REMARK    6  A    between atoms: N_13  and  C_14
REMARK    7  A    between atoms: C_18  and  O_19
REMARK    8  A    between atoms: O_19  and  C_20
REMARK    9  A    between atoms: C_22  and  O_23
REMARK   10  A    between atoms: O_23  and  C_24
REMARK                            x       y       z     vdW  Elec       q    Type
REMARK                         _______ _______ _______ _____ _____    ______ ____
ROOT
ATOM      1  N   UNL     1       1.686   7.642  20.836  0.00  0.00    +0.000 N 
ATOM      2  C   UNL     1       1.149   8.907  20.757  0.00  0.00    +0.000 C 
ATOM      3  N   UNL     1       1.071   9.608  19.665  0.00  0.00    +0.000 NA
ATOM      4  H   UNL     1       1.544   7.156  21.709  0.00  0.00    +0.000 HD
ENDROOT
BRANCH   3   5
ATOM      5  C   UNL     1       0.608  10.921  19.527  0.00  0.00    +0.000 A 
ATOM      6  C   UNL     1       1.505  11.988  19.676  0.00  0.00    +0.000 A 
ATOM      7  C   UNL     1       1.127  13.308  19.437  0.00  0.00    +0.000 A 
ATOM      8 CL   UNL     1       2.293  14.547  19.745  0.00  0.00    +0.000 Cl
ATOM      9  C   UNL     1      -0.145  13.604  18.942  0.00  0.00    +0.000 A 
ATOM     10  C   UNL     1      -1.031  12.548  18.726  0.00  0.00    +0.000 A 
ATOM     11  C   UNL     1      -0.675  11.219  19.023  0.00  0.00    +0.000 A 
BRANCH   9  12
ATOM     12  O   UNL     1      -0.416  14.920  18.682  0.00  0.00    +0.000 OA
ATOM     13  C   UNL     1      -1.031  15.678  19.713  0.00  0.00    +0.000 C 
ENDBRANCH   9  12
BRANCH  11  14
ATOM     14  O   UNL     1      -1.665  10.336  18.668  0.00  0.00    +0.000 OA
ATOM     15  C   UNL     1      -1.888  10.115  17.283  0.00  0.00    +0.000 C 
ENDBRANCH  11  14
ENDBRANCH   3   5
BRANCH   1  19
ATOM     16  C   UNL     1       3.627   5.439  17.802  0.00  0.00    +0.000 A 
ATOM     17  C   UNL     1       3.053   4.785  18.888  0.00  0.00    +0.000 A 
ATOM     18  C   UNL     1       2.341   5.498  19.849  0.00  0.00    +0.000 A 
ATOM     19  C   UNL     1       2.194   6.883  19.772  0.00  0.00    +0.000 A 
ATOM     20  C   UNL     1       2.698   7.527  18.636  0.00  0.00    +0.000 A 
ATOM     21  C   UNL     1       3.421   6.815  17.664  0.00  0.00    +0.000 A 
BRANCH  16  24
ATOM     22  C   UNL     1       5.821   4.550  17.036  0.00  0.00    +0.000 C 
ATOM     23  O   UNL     1       6.457   4.723  18.066  0.00  0.00    +0.000 OA
ATOM     24  N   UNL     1       4.461   4.783  16.874  0.00  0.00    +0.000 N 
ATOM     25  H   UNL     1       4.024   4.444  16.026  0.00  0.00    +0.000 HD
BRANCH  22  27
ATOM     26  C   UNL     1       5.611   4.333  14.556  0.00  0.00    +0.000 C 
ATOM     27  C   UNL     1       6.481   4.043  15.771  0.00  0.00    +0.000 C 
ENDBRANCH  22  27
ENDBRANCH  16  24
ENDBRANCH   1  19
BRANCH   2  28
ATOM     28  S   UNL     1       0.548   9.422  22.329  0.00  0.00    +0.000 S 
ATOM     29  H   UNL     1      -0.214   8.341  22.544  0.00  0.00    +0.000 HD
ENDBRANCH   2  28
TORSDOF 7
ENDMDL
MODEL 5
REMARK VINA RESULT:      -6.4      2.268      3.118
REMARK  Name = 
REMARK  10 active torsions:
REMARK  status: ('A' for Active; 'I' for Inactive)
REMARK    1  A    between atoms: C_1  and  C_2
REMARK    2  A    between atoms: C_2  and  C_3
REMARK    3  A    between atoms: N_5  and  C_6
REMARK    4  A    between atoms: C_9  and  N_10
REMARK    5  A    between atoms: C_11  and  S_12
REMARK    6  A    between atoms: N_13  and  C_14
REMARK    7  A    between atoms: C_18  and  O_19
REMARK    8  A    between atoms: O_19  and  C_20
REMARK    9  A    between atoms: C_22  and  O_23
REMARK   10  A    between atoms: O_23  and  C_24
REMARK                            x       y       z     vdW  Elec       q    Type
REMARK                         _______ _______ _______ _____ _____    ______ ____
ROOT
ATOM      1  N   UNL     1       2.443   9.561  18.458  0.00  0.00    +0.000 N 
ATOM      2  C   UNL     1       1.281  10.294  18.367  0.00  0.00    +0.000 C 
ATOM      3  N   UNL     1       0.095   9.781  18.226  0.00  0.00    +0.000 NA
ATOM      4  H   UNL     1       3.272  10.076  18.718  0.00  0.00    +0.000 HD
ENDROOT
BRANCH   3   5
ATOM      5  C   UNL     1      -1.113  10.465  18.053  0.00  0.00    +0.000 A 
ATOM      6  C   UNL     1      -1.866  10.252  16.891  0.00  0.00    +0.000 A 
ATOM      7  C   UNL     1      -3.129  10.815  16.717  0.00  0.00    +0.000 A 
ATOM      8 CL   UNL     1      -3.923  10.558  15.202  0.00  0.00    +0.000 Cl
ATOM      9  C   UNL     1      -3.733  11.539  17.748  0.00  0.00    +0.000 A 
ATOM     10  C   UNL     1      -3.023  11.707  18.938  0.00  0.00    +0.000 A 
ATOM     11  C   UNL     1      -1.723  11.192  19.096  0.00  0.00    +0.000 A 
BRANCH   9  12
ATOM     12  O   UNL     1      -4.996  12.010  17.515  0.00  0.00    +0.000 OA
ATOM     13  C   UNL     1      -6.080  11.277  18.065  0.00  0.00    +0.000 C 
ENDBRANCH   9  12
BRANCH  11  14
ATOM     14  O   UNL     1      -1.242  11.409  20.365  0.00  0.00    +0.000 OA
ATOM     15  C   UNL     1      -1.835  12.449  21.127  0.00  0.00    +0.000 C 
ENDBRANCH  11  14
ENDBRANCH   3   5
BRANCH   1  19
ATOM     16  C   UNL     1       3.167   5.406  18.658  0.00  0.00    +0.000 A 
ATOM     17  C   UNL     1       2.348   6.023  19.599  0.00  0.00    +0.000 A 
ATOM     18  C   UNL     1       2.039   7.376  19.491  0.00  0.00    +0.000 A 
ATOM     19  C   UNL     1       2.550   8.162  18.458  0.00  0.00    +0.000 A 
ATOM     20  C   UNL     1       3.303   7.522  17.466  0.00  0.00    +0.000 A 
ATOM     21  C   UNL     1       3.621   6.158  17.570  0.00  0.00    +0.000 A 
BRANCH  16  24
ATOM     22  C   UNL     1       2.995   2.961  18.233  0.00  0.00    +0.000 C 
ATOM     23  O   UNL     1       2.090   2.983  17.412  0.00  0.00    +0.000 OA
ATOM     24  N   UNL     1       3.610   4.075  18.792  0.00  0.00    +0.000 N 
ATOM     25  H   UNL     1       4.454   3.925  19.330  0.00  0.00    +0.000 HD
BRANCH  22  27
ATOM     26  C   UNL     1       4.422   1.899  19.987  0.00  0.00    +0.000 C 
ATOM     27  C   UNL     1       3.566   1.658  18.752  0.00  0.00    +0.000 C 
ENDBRANCH  22  27
ENDBRANCH  16  24
ENDBRANCH   1  19
BRANCH   2  28
ATOM     28  S   UNL     1       1.624  12.015  18.510  0.00  0.00    +0.000 S 
ATOM     29  H   UNL     1       0.343  12.401  18.586  0.00  0.00    +0.000 HD
ENDBRANCH   2  28
TORSDOF 7
ENDMDL
MODEL 6
REMARK VINA RESULT:      -6.4      2.032      2.830
REMARK  Name = 
REMARK  10 active torsions:
REMARK  status: ('A' for Active; 'I' for Inactive)
REMARK    1  A    between atoms: C_1  and  C_2
REMARK    2  A    between atoms: C_2  and  C_3
REMARK    3  A    between atoms: N_5  and  C_6
REMARK    4  A    between atoms: C_9  and  N_10
REMARK    5  A    between atoms: C_11  and  S_12
REMARK    6  A    between atoms: N_13  and  C_14
REMARK    7  A    between atoms: C_18  and  O_19
REMARK    8  A    between atoms: O_19  and  C_20
REMARK    9  A    between atoms: C_22  and  O_23
REMARK   10  A    between atoms: O_23  and  C_24
REMARK                            x       y       z     vdW  Elec       q    Type
REMARK                         _______ _______ _______ _____ _____    ______ ____
ROOT
ATOM      1  N   UNL     1       1.141  10.983  18.830  0.00  0.00    +0.000 N 
ATOM      2  C   UNL     1      -0.024  11.701  18.973  0.00  0.00    +0.000 C 
ATOM      3  N   UNL     1      -1.150  11.203  19.391  0.00  0.00    +0.000 NA
ATOM      4  H   UNL     1       1.974  11.523  18.643  0.00  0.00    +0.000 HD
ENDROOT
BRANCH   3   5
ATOM      5  C   UNL     1      -2.384  11.855  19.490  0.00  0.00    +0.000 A 
ATOM      6  C   UNL     1      -3.367  11.620  18.519  0.00  0.00    +0.000 A 
ATOM      7  C   UNL     1      -4.652  12.149  18.628  0.00  0.00    +0.000 A 
ATOM      8 CL   UNL     1      -5.750  11.870  17.322  0.00  0.00    +0.000 Cl
ATOM      9  C   UNL     1      -5.035  12.859  19.769  0.00  0.00    +0.000 A 
ATOM     10  C   UNL     1      -4.087  13.048  20.776  0.00  0.00    +0.000 A 
ATOM     11  C   UNL     1      -2.770  12.567  20.644  0.00  0.00    +0.000 A 
BRANCH   9  12
ATOM     12  O   UNL     1      -6.330  13.296  19.820  0.00  0.00    +0.000 OA
ATOM     13  C   UNL     1      -6.941  13.388  21.098  0.00  0.00    +0.000 C 
ENDBRANCH   9  12
BRANCH  11  14
ATOM     14  O   UNL     1      -2.029  12.799  21.778  0.00  0.00    +0.000 OA
ATOM     15  C   UNL     1      -2.385  12.091  22.956  0.00  0.00    +0.000 C 
ENDBRANCH  11  14
ENDBRANCH   3   5
BRANCH   1  19
ATOM     16  C   UNL     1       2.143   7.013  19.858  0.00  0.00    +0.000 A 
ATOM     17  C   UNL     1       1.500   7.835  20.777  0.00  0.00    +0.000 A 
ATOM     18  C   UNL     1       1.093   9.117  20.417  0.00  0.00    +0.000 A 
ATOM     19  C   UNL     1       1.331   9.628  19.141  0.00  0.00    +0.000 A 
ATOM     20  C   UNL     1       1.901   8.770  18.194  0.00  0.00    +0.000 A 
ATOM     21  C   UNL     1       2.317   7.476  18.551  0.00  0.00    +0.000 A 
BRANCH  16  24
ATOM     22  C   UNL     1       1.957   4.589  20.388  0.00  0.00    +0.000 C 
ATOM     23  O   UNL     1       0.778   4.431  20.107  0.00  0.00    +0.000 OA
ATOM     24  N   UNL     1       2.685   5.759  20.209  0.00  0.00    +0.000 N 
ATOM     25  H   UNL     1       3.689   5.710  20.325  0.00  0.00    +0.000 HD
BRANCH  22  27
ATOM     26  C   UNL     1       1.906   2.521  21.789  0.00  0.00    +0.000 C 
ATOM     27  C   UNL     1       2.785   3.474  20.991  0.00  0.00    +0.000 C 
ENDBRANCH  22  27
ENDBRANCH  16  24
ENDBRANCH   1  19
BRANCH   2  28
ATOM     28  S   UNL     1       0.236  13.390  18.551  0.00  0.00    +0.000 S 
ATOM     29  H   UNL     1       1.327  13.176  17.803  0.00  0.00    +0.000 HD
ENDBRANCH   2  28
TORSDOF 7
ENDMDL
MODEL 7
REMARK VINA RESULT:      -6.3      5.454     10.212
REMARK  Name = 
REMARK  10 active torsions:
REMARK  status: ('A' for Active; 'I' for Inactive)
REMARK    1  A    between atoms: C_1  and  C_2
REMARK    2  A    between atoms: C_2  and  C_3
REMARK    3  A    between atoms: N_5  and  C_6
REMARK    4  A    between atoms: C_9  and  N_10
REMARK    5  A    between atoms: C_11  and  S_12
REMARK    6  A    between atoms: N_13  and  C_14
REMARK    7  A    between atoms: C_18  and  O_19
REMARK    8  A    between atoms: O_19  and  C_20
REMARK    9  A    between atoms: C_22  and  O_23
REMARK   10  A    between atoms: O_23  and  C_24
REMARK                            x       y       z     vdW  Elec       q    Type
REMARK                         _______ _______ _______ _____ _____    ______ ____
ROOT
ATOM      1  N   UNL     1       2.804   5.936  19.626  0.00  0.00    +0.000 N 
ATOM      2  C   UNL     1       3.778   5.435  18.793  0.00  0.00    +0.000 C 
ATOM      3  N   UNL     1       4.346   6.106  17.836  0.00  0.00    +0.000 NA
ATOM      4  H   UNL     1       2.561   5.359  20.419  0.00  0.00    +0.000 HD
ENDROOT
BRANCH   3   5
ATOM      5  C   UNL     1       5.283   5.638  16.908  0.00  0.00    +0.000 A 
ATOM      6  C   UNL     1       4.840   5.033  15.725  0.00  0.00    +0.000 A 
ATOM      7  C   UNL     1       5.723   4.654  14.715  0.00  0.00    +0.000 A 
ATOM      8 CL   UNL     1       5.068   3.830  13.342  0.00  0.00    +0.000 Cl
ATOM      9  C   UNL     1       7.083   4.956  14.809  0.00  0.00    +0.000 A 
ATOM     10  C   UNL     1       7.533   5.616  15.953  0.00  0.00    +0.000 A 
ATOM     11  C   UNL     1       6.656   5.948  17.002  0.00  0.00    +0.000 A 
BRANCH   9  12
ATOM     12  O   UNL     1       7.871   4.598  13.749  0.00  0.00    +0.000 OA
ATOM     13  C   UNL     1       8.184   5.603  12.797  0.00  0.00    +0.000 C 
ENDBRANCH   9  12
BRANCH  11  14
ATOM     14  O   UNL     1       7.293   6.655  17.993  0.00  0.00    +0.000 OA
ATOM     15  C   UNL     1       7.772   7.953  17.675  0.00  0.00    +0.000 C 
ENDBRANCH  11  14
ENDBRANCH   3   5
BRANCH   1  19
ATOM     16  C   UNL     1       0.884   9.691  19.442  0.00  0.00    +0.000 A 
ATOM     17  C   UNL     1       0.945   8.992  20.643  0.00  0.00    +0.000 A 
ATOM     18  C   UNL     1       1.647   7.792  20.730  0.00  0.00    +0.000 A 
ATOM     19  C   UNL     1       2.292   7.242  19.622  0.00  0.00    +0.000 A 
ATOM     20  C   UNL     1       2.302   7.989  18.439  0.00  0.00    +0.000 A 
ATOM     21  C   UNL     1       1.593   9.198  18.343  0.00  0.00    +0.000 A 
BRANCH  16  24
ATOM     22  C   UNL     1      -1.168  10.868  18.673  0.00  0.00    +0.000 C 
ATOM     23  O   UNL     1      -1.833   9.891  18.362  0.00  0.00    +0.000 OA
ATOM     24  N   UNL     1       0.085  10.840  19.271  0.00  0.00    +0.000 N 
ATOM     25  H   UNL     1       0.455  11.713  19.629  0.00  0.00    +0.000 HD
BRANCH  22  27
ATOM     26  C   UNL     1      -0.496  13.235  18.240  0.00  0.00    +0.000 C 
ATOM     27  C   UNL     1      -1.665  12.277  18.424  0.00  0.00    +0.000 C 
ENDBRANCH  22  27
ENDBRANCH  16  24
ENDBRANCH   1  19
BRANCH   2  28
ATOM     28  S   UNL     1       4.171   3.775  19.231  0.00  0.00    +0.000 S 
ATOM     29  H   UNL     1       3.058   3.556  19.944  0.00  0.00    +0.000 HD
ENDBRANCH   2  28
TORSDOF 7
ENDMDL
MODEL 8
REMARK VINA RESULT:      -6.3      3.923      5.290
REMARK  Name = 
REMARK  10 active torsions:
REMARK  status: ('A' for Active; 'I' for Inactive)
REMARK    1  A    between atoms: C_1  and  C_2
REMARK    2  A    between atoms: C_2  and  C_3
REMARK    3  A    between atoms: N_5  and  C_6
REMARK    4  A    between atoms: C_9  and  N_10
REMARK    5  A    between atoms: C_11  and  S_12
REMARK    6  A    between atoms: N_13  and  C_14
REMARK    7  A    between atoms: C_18  and  O_19
REMARK    8  A    between atoms: O_19  and  C_20
REMARK    9  A    between atoms: C_22  and  O_23
REMARK   10  A    between atoms: O_23  and  C_24
REMARK                            x       y       z     vdW  Elec       q    Type
REMARK                         _______ _______ _______ _____ _____    ______ ____
ROOT
ATOM      1  N   UNL     1       2.110   7.241  20.124  0.00  0.00    +0.000 N 
ATOM      2  C   UNL     1       1.541   8.494  20.105  0.00  0.00    +0.000 C 
ATOM      3  N   UNL     1       1.470   9.256  19.054  0.00  0.00    +0.000 NA
ATOM      4  H   UNL     1       1.961   6.700  20.963  0.00  0.00    +0.000 HD
ENDROOT
BRANCH   3   5
ATOM      5  C   UNL     1       0.975  10.562  18.982  0.00  0.00    +0.000 A 
ATOM      6  C   UNL     1       1.867  11.630  18.820  0.00  0.00    +0.000 A 
ATOM      7  C   UNL     1       1.426  12.938  18.626  0.00  0.00    +0.000 A 
ATOM      8 CL   UNL     1       2.621  14.185  18.534  0.00  0.00    +0.000 Cl
ATOM      9  C   UNL     1       0.064  13.215  18.489  0.00  0.00    +0.000 A 
ATOM     10  C   UNL     1      -0.837  12.154  18.583  0.00  0.00    +0.000 A 
ATOM     11  C   UNL     1      -0.400  10.840  18.838  0.00  0.00    +0.000 A 
BRANCH   9  12
ATOM     12  O   UNL     1      -0.280  14.517  18.246  0.00  0.00    +0.000 OA
ATOM     13  C   UNL     1      -0.629  15.321  19.362  0.00  0.00    +0.000 C 
ENDBRANCH   9  12
BRANCH  11  14
ATOM     14  O   UNL     1      -1.443   9.946  18.819  0.00  0.00    +0.000 OA
ATOM     15  C   UNL     1      -2.413  10.085  17.792  0.00  0.00    +0.000 C 
ENDBRANCH  11  14
ENDBRANCH   3   5
BRANCH   1  19
ATOM     16  C   UNL     1       4.092   5.036  17.117  0.00  0.00    +0.000 A 
ATOM     17  C   UNL     1       2.955   4.522  17.732  0.00  0.00    +0.000 A 
ATOM     18  C   UNL     1       2.249   5.278  18.665  0.00  0.00    +0.000 A 
ATOM     19  C   UNL     1       2.663   6.559  19.030  0.00  0.00    +0.000 A 
ATOM     20  C   UNL     1       3.756   7.107  18.348  0.00  0.00    +0.000 A 
ATOM     21  C   UNL     1       4.474   6.349  17.409  0.00  0.00    +0.000 A 
BRANCH  16  24
ATOM     22  C   UNL     1       5.600   4.749  15.159  0.00  0.00    +0.000 C 
ATOM     23  O   UNL     1       5.739   5.928  14.864  0.00  0.00    +0.000 OA
ATOM     24  N   UNL     1       4.909   4.267  16.264  0.00  0.00    +0.000 N 
ATOM     25  H   UNL     1       5.008   3.285  16.487  0.00  0.00    +0.000 HD
BRANCH  22  27
ATOM     26  C   UNL     1       6.339   4.093  12.865  0.00  0.00    +0.000 C 
ATOM     27  C   UNL     1       6.191   3.643  14.312  0.00  0.00    +0.000 C 
ENDBRANCH  22  27
ENDBRANCH  16  24
ENDBRANCH   1  19
BRANCH   2  28
ATOM     28  S   UNL     1       0.890   8.900  21.690  0.00  0.00    +0.000 S 
ATOM     29  H   UNL     1       1.769   8.167  22.388  0.00  0.00    +0.000 HD
ENDBRANCH   2  28
TORSDOF 7
ENDMDL
MODEL 9
REMARK VINA RESULT:      -6.3      1.075      1.162
REMARK  Name = 
REMARK  10 active torsions:
REMARK  status: ('A' for Active; 'I' for Inactive)
REMARK    1  A    between atoms: C_1  and  C_2
REMARK    2  A    between atoms: C_2  and  C_3
REMARK    3  A    between atoms: N_5  and  C_6
REMARK    4  A    between atoms: C_9  and  N_10
REMARK    5  A    between atoms: C_11  and  S_12
REMARK    6  A    between atoms: N_13  and  C_14
REMARK    7  A    between atoms: C_18  and  O_19
REMARK    8  A    between atoms: O_19  and  C_20
REMARK    9  A    between atoms: C_22  and  O_23
REMARK   10  A    between atoms: O_23  and  C_24
REMARK                            x       y       z     vdW  Elec       q    Type
REMARK                         _______ _______ _______ _____ _____    ______ ____
ROOT
ATOM      1  N   UNL     1       1.287  10.596  18.767  0.00  0.00    +0.000 N 
ATOM      2  C   UNL     1       0.029  11.153  18.739  0.00  0.00    +0.000 C 
ATOM      3  N   UNL     1      -1.079  10.474  18.769  0.00  0.00    +0.000 NA
ATOM      4  H   UNL     1       2.054  11.242  18.892  0.00  0.00    +0.000 HD
ENDROOT
BRANCH   3   5
ATOM      5  C   UNL     1      -2.384  10.969  18.669  0.00  0.00    +0.000 A 
ATOM      6  C   UNL     1      -2.860  11.859  19.641  0.00  0.00    +0.000 A 
ATOM      7  C   UNL     1      -4.106  12.473  19.531  0.00  0.00    +0.000 A 
ATOM      8 CL   UNL     1      -4.625  13.479  20.839  0.00  0.00    +0.000 Cl
ATOM      9  C   UNL     1      -4.889  12.293  18.389  0.00  0.00    +0.000 A 
ATOM     10  C   UNL     1      -4.403  11.460  17.381  0.00  0.00    +0.000 A 
ATOM     11  C   UNL     1      -3.171  10.790  17.513  0.00  0.00    +0.000 A 
BRANCH   9  12
ATOM     12  O   UNL     1      -6.074  12.976  18.338  0.00  0.00    +0.000 OA
ATOM     13  C   UNL     1      -6.955  12.679  17.264  0.00  0.00    +0.000 C 
ENDBRANCH   9  12
BRANCH  11  14
ATOM     14  O   UNL     1      -2.853  10.084  16.378  0.00  0.00    +0.000 OA
ATOM     15  C   UNL     1      -3.153  10.678  15.125  0.00  0.00    +0.000 C 
ENDBRANCH  11  14
ENDBRANCH   3   5
BRANCH   1  19
ATOM     16  C   UNL     1       2.637   6.616  19.174  0.00  0.00    +0.000 A 
ATOM     17  C   UNL     1       1.986   7.249  20.228  0.00  0.00    +0.000 A 
ATOM     18  C   UNL     1       1.466   8.531  20.073  0.00  0.00    +0.000 A 
ATOM     19  C   UNL     1       1.594   9.232  18.874  0.00  0.00    +0.000 A 
ATOM     20  C   UNL     1       2.172   8.562  17.789  0.00  0.00    +0.000 A 
ATOM     21  C   UNL     1       2.702   7.269  17.939  0.00  0.00    +0.000 A 
BRANCH  16  24
ATOM     22  C   UNL     1       2.701   4.130  19.127  0.00  0.00    +0.000 C 
ATOM     23  O   UNL     1       1.595   3.928  18.647  0.00  0.00    +0.000 OA
ATOM     24  N   UNL     1       3.288   5.374  19.317  0.00  0.00    +0.000 N 
ATOM     25  H   UNL     1       4.269   5.398  19.567  0.00  0.00    +0.000 HD
BRANCH  22  27
ATOM     26  C   UNL     1       3.474   1.805  18.638  0.00  0.00    +0.000 C 
ATOM     27  C   UNL     1       3.586   2.991  19.587  0.00  0.00    +0.000 C 
ENDBRANCH  22  27
ENDBRANCH  16  24
ENDBRANCH   1  19
BRANCH   2  28
ATOM     28  S   UNL     1       0.132  12.910  18.698  0.00  0.00    +0.000 S 
ATOM     29  H   UNL     1       0.080  13.017  17.363  0.00  0.00    +0.000 HD
ENDBRANCH   2  28
TORSDOF 7
ENDMDL
