MODEL 1
REMARK VINA RESULT:      -6.7      0.000      0.000
REMARK  Name = 
REMARK  12 active torsions:
REMARK  status: ('A' for Active; 'I' for Inactive)
REMARK    1  A    between atoms: C_1  and  C_2
REMARK    2  A    between atoms: C_2  and  C_3
REMARK    3  A    between atoms: C_2  and  C_4
REMARK    4  A    between atoms: C_2  and  C_5
REMARK    5  A    between atoms: C_5  and  C_6
REMARK    6  A    between atoms: N_8  and  C_9
REMARK    7  A    between atoms: C_9  and  C_10
REMARK    8  A    between atoms: C_9  and  C_26
REMARK    9  A    between atoms: C_10  and  S_11
REMARK   10  A    between atoms: S_11  and  N_14
REMARK   11  A    between atoms: N_28  and  C_29
REMARK   12  A    between atoms: C_29  and  C_30
REMARK                            x       y       z     vdW  Elec       q    Type
REMARK                         _______ _______ _______ _____ _____    ______ ____
ROOT
ATOM      1  C   UNL     1       2.634   6.852  18.775  0.00  0.00    +0.000 C 
ENDROOT
BRANCH   1   4
ATOM      2  C   UNL     1       4.646   6.480  17.340  0.00  0.00    +0.000 C 
ATOM      3  O   UNL     1       5.416   6.653  18.278  0.00  0.00    +0.000 OA
ATOM      4  N   UNL     1       3.274   6.512  17.486  0.00  0.00    +0.000 N 
ATOM      5  H   UNL     1       2.761   6.787  16.648  0.00  0.00    +0.000 HD
BRANCH   2   6
ATOM      6  C   UNL     1       5.130   6.179  15.921  0.00  0.00    +0.000 C 
BRANCH   6   8
ATOM      7  C   UNL     1       4.900   3.703  16.493  0.00  0.00    +0.000 C 
ATOM      8  C   UNL     1       5.699   4.752  15.703  0.00  0.00    +0.000 C 
ATOM      9  C   UNL     1       7.181   4.676  16.108  0.00  0.00    +0.000 C 
ATOM     10  C   UNL     1       5.599   4.396  14.203  0.00  0.00    +0.000 C 
ENDBRANCH   6   8
ENDBRANCH   2   6
ENDBRANCH   1   4
BRANCH   1  11
ATOM     11  C   UNL     1       2.503   5.641  19.717  0.00  0.00    +0.000 C 
ATOM     12  O   UNL     1       2.409   5.765  20.935  0.00  0.00    +0.000 OA
ATOM     13  N   UNL     1       2.491   4.426  19.065  0.00  0.00    +0.000 N 
ATOM     14  H   UNL     1       2.857   4.435  18.119  0.00  0.00    +0.000 HD
BRANCH  13  15
ATOM     15  C   UNL     1       2.457   3.162  19.747  0.00  0.00    +0.000 C 
ATOM     16  C   UNL     1       1.367   2.198  19.307  0.00  0.00    +0.000 C 
ATOM     17  C   UNL     1       1.334   2.779  20.686  0.00  0.00    +0.000 C 
BRANCH  15  18
ATOM     18  C   UNL     1       3.758   2.604  20.038  0.00  0.00    +0.000 C 
ATOM     19  N   UNL     1       4.790   2.128  20.292  0.00  0.00    +0.000 NA
ENDBRANCH  15  18
ENDBRANCH  13  15
ENDBRANCH   1  11
BRANCH   1  20
ATOM     20  C   UNL     1       1.284   7.547  18.642  0.00  0.00    +0.000 C 
BRANCH  20  21
ATOM     21  S   UNL     1       1.409   9.251  18.111  0.00  0.00    +0.000 S 
ATOM     22  O   UNL     1       2.590   9.380  17.287  0.00  0.00    +0.000 OA
ATOM     23  O   UNL     1       0.106   9.630  17.597  0.00  0.00    +0.000 OA
BRANCH  21  24
ATOM     24  N   UNL     1       1.653  10.133  19.526  0.00  0.00    +0.000 NA
ATOM     25  C   UNL     1       1.442  11.626  19.451  0.00  0.00    +0.000 C 
ATOM     26  C   UNL     1      -0.054  12.016  19.526  0.00  0.00    +0.000 C 
ATOM     27  N   UNL     1      -0.674  11.385  20.695  0.00  0.00    +0.000 N 
ATOM     28  C   UNL     1      -1.727  11.952  21.375  0.00  0.00    +0.000 A 
ATOM     29  C   UNL     1      -2.556  12.914  20.803  0.00  0.00    +0.000 A 
ATOM     30  C   UNL     1      -3.562  13.514  21.561  0.00  0.00    +0.000 A 
ATOM     31  C   UNL     1      -3.712  13.154  22.890  0.00  0.00    +0.000 A 
ATOM     32  C   UNL     1      -2.860  12.191  23.393  0.00  0.00    +0.000 A 
ATOM     33  N   UNL     1      -1.896  11.582  22.664  0.00  0.00    +0.000 NA
ATOM     34  C   UNL     1      -0.513   9.931  20.804  0.00  0.00    +0.000 C 
ATOM     35  C   UNL     1       0.980   9.590  20.762  0.00  0.00    +0.000 C 
ENDBRANCH  21  24
ENDBRANCH  20  21
ENDBRANCH   1  20
TORSDOF 9
ENDMDL
MODEL 2
REMARK VINA RESULT:      -6.6      1.760      3.962
REMARK  Name = 
REMARK  12 active torsions:
REMARK  status: ('A' for Active; 'I' for Inactive)
REMARK    1  A    between atoms: C_1  and  C_2
REMARK    2  A    between atoms: C_2  and  C_3
REMARK    3  A    between atoms: C_2  and  C_4
REMARK    4  A    between atoms: C_2  and  C_5
REMARK    5  A    between atoms: C_5  and  C_6
REMARK    6  A    between atoms: N_8  and  C_9
REMARK    7  A    between atoms: C_9  and  C_10
REMARK    8  A    between atoms: C_9  and  C_26
REMARK    9  A    between atoms: C_10  and  S_11
REMARK   10  A    between atoms: S_11  and  N_14
REMARK   11  A    between atoms: N_28  and  C_29
REMARK   12  A    between atoms: C_29  and  C_30
REMARK                            x       y       z     vdW  Elec       q    Type
REMARK                         _______ _______ _______ _____ _____    ______ ____
ROOT
ATOM      1  C   UNL     1       2.858   7.329  17.862  0.00  0.00    +0.000 C 
ENDROOT
BRANCH   1   4
ATOM      2  C   UNL     1       1.877   5.225  18.786  0.00  0.00    +0.000 C 
ATOM      3  O   UNL     1       1.612   4.792  17.671  0.00  0.00    +0.000 OA
ATOM      4  N   UNL     1       2.522   6.429  18.986  0.00  0.00    +0.000 N 
ATOM      5  H   UNL     1       2.313   6.885  19.874  0.00  0.00    +0.000 HD
BRANCH   2   6
ATOM      6  C   UNL     1       1.548   4.458  20.067  0.00  0.00    +0.000 C 
BRANCH   6   8
ATOM      7  C   UNL     1       3.743   3.179  19.838  0.00  0.00    +0.000 C 
ATOM      8  C   UNL     1       2.257   3.087  20.221  0.00  0.00    +0.000 C 
ATOM      9  C   UNL     1       1.576   2.009  19.363  0.00  0.00    +0.000 C 
ATOM     10  C   UNL     1       2.173   2.641  21.698  0.00  0.00    +0.000 C 
ENDBRANCH   6   8
ENDBRANCH   2   6
ENDBRANCH   1   4
BRANCH   1  11
ATOM     11  C   UNL     1       4.245   7.044  17.258  0.00  0.00    +0.000 C 
ATOM     12  O   UNL     1       4.545   7.381  16.115  0.00  0.00    +0.000 OA
ATOM     13  N   UNL     1       5.104   6.394  18.118  0.00  0.00    +0.000 N 
ATOM     14  H   UNL     1       4.664   5.925  18.903  0.00  0.00    +0.000 HD
BRANCH  13  15
ATOM     15  C   UNL     1       6.420   5.957  17.742  0.00  0.00    +0.000 C 
ATOM     16  C   UNL     1       7.447   5.901  18.862  0.00  0.00    +0.000 C 
ATOM     17  C   UNL     1       7.614   6.887  17.749  0.00  0.00    +0.000 C 
BRANCH  15  18
ATOM     18  C   UNL     1       6.441   4.889  16.769  0.00  0.00    +0.000 C 
ATOM     19  N   UNL     1       6.494   4.032  15.984  0.00  0.00    +0.000 NA
ENDBRANCH  15  18
ENDBRANCH  13  15
ENDBRANCH   1  11
BRANCH   1  20
ATOM     20  C   UNL     1       2.736   8.814  18.188  0.00  0.00    +0.000 C 
BRANCH  20  21
ATOM     21  S   UNL     1       1.144   9.265  18.869  0.00  0.00    +0.000 S 
ATOM     22  O   UNL     1       0.167   9.210  17.804  0.00  0.00    +0.000 OA
ATOM     23  O   UNL     1       0.963   8.482  20.076  0.00  0.00    +0.000 OA
BRANCH  21  24
ATOM     24  N   UNL     1       1.312  10.873  19.348  0.00  0.00    +0.000 NA
ATOM     25  C   UNL     1       0.544  11.908  18.563  0.00  0.00    +0.000 C 
ATOM     26  C   UNL     1      -0.942  11.989  18.990  0.00  0.00    +0.000 C 
ATOM     27  N   UNL     1      -1.034  12.155  20.443  0.00  0.00    +0.000 N 
ATOM     28  C   UNL     1      -2.066  12.832  21.051  0.00  0.00    +0.000 A 
ATOM     29  C   UNL     1      -3.292  13.045  20.425  0.00  0.00    +0.000 A 
ATOM     30  C   UNL     1      -4.278  13.804  21.056  0.00  0.00    +0.000 A 
ATOM     31  C   UNL     1      -4.015  14.356  22.298  0.00  0.00    +0.000 A 
ATOM     32  C   UNL     1      -2.781  14.103  22.863  0.00  0.00    +0.000 A 
ATOM     33  N   UNL     1      -1.824  13.348  22.277  0.00  0.00    +0.000 NA
ATOM     34  C   UNL     1      -0.318  11.161  21.252  0.00  0.00    +0.000 C 
ATOM     35  C   UNL     1       1.153  11.138  20.824  0.00  0.00    +0.000 C 
ENDBRANCH  21  24
ENDBRANCH  20  21
ENDBRANCH   1  20
TORSDOF 9
ENDMDL
MODEL 3
REMARK VINA RESULT:      -6.5      2.908     10.032
REMARK  Name = 
REMARK  12 active torsions:
REMARK  status: ('A' for Active; 'I' for Inactive)
REMARK    1  A    between atoms: C_1  and  C_2
REMARK    2  A    between atoms: C_2  and  C_3
REMARK    3  A    between atoms: C_2  and  C_4
REMARK    4  A    between atoms: C_2  and  C_5
REMARK    5  A    between atoms: C_5  and  C_6
REMARK    6  A    between atoms: N_8  and  C_9
REMARK    7  A    between atoms: C_9  and  C_10
REMARK    8  A    between atoms: C_9  and  C_26
REMARK    9  A    between atoms: C_10  and  S_11
REMARK   10  A    between atoms: S_11  and  N_14
REMARK   11  A    between atoms: N_28  and  C_29
REMARK   12  A    between atoms: C_29  and  C_30
REMARK                            x       y       z     vdW  Elec       q    Type
REMARK                         _______ _______ _______ _____ _____    ______ ____
ROOT
ATOM      1  C   UNL     1      -2.074  12.235  20.266  0.00  0.00    +0.000 C 
ENDROOT
BRANCH   1   4
ATOM      2  C   UNL     1      -3.676  11.662  18.435  0.00  0.00    +0.000 C 
ATOM      3  O   UNL     1      -3.251  10.515  18.347  0.00  0.00    +0.000 OA
ATOM      4  N   UNL     1      -3.201  12.564  19.366  0.00  0.00    +0.000 N 
ATOM      5  H   UNL     1      -3.281  13.543  19.093  0.00  0.00    +0.000 HD
BRANCH   2   6
ATOM      6  C   UNL     1      -4.797  12.196  17.544  0.00  0.00    +0.000 C 
BRANCH   6   8
ATOM      7  C   UNL     1      -6.711  10.787  18.469  0.00  0.00    +0.000 C 
ATOM      8  C   UNL     1      -6.207  12.212  18.189  0.00  0.00    +0.000 C 
ATOM      9  C   UNL     1      -7.221  12.943  17.293  0.00  0.00    +0.000 C 
ATOM     10  C   UNL     1      -6.136  12.965  19.536  0.00  0.00    +0.000 C 
ENDBRANCH   6   8
ENDBRANCH   2   6
ENDBRANCH   1   4
BRANCH   1  11
ATOM     11  C   UNL     1      -2.403  12.475  21.751  0.00  0.00    +0.000 C 
ATOM     12  O   UNL     1      -1.883  11.821  22.651  0.00  0.00    +0.000 OA
ATOM     13  N   UNL     1      -3.316  13.486  21.964  0.00  0.00    +0.000 N 
ATOM     14  H   UNL     1      -3.875  13.746  21.158  0.00  0.00    +0.000 HD
BRANCH  13  15
ATOM     15  C   UNL     1      -3.830  13.828  23.261  0.00  0.00    +0.000 C 
ATOM     16  C   UNL     1      -3.892  15.313  23.581  0.00  0.00    +0.000 C 
ATOM     17  C   UNL     1      -2.958  14.426  24.344  0.00  0.00    +0.000 C 
BRANCH  15  18
ATOM     18  C   UNL     1      -4.934  13.008  23.703  0.00  0.00    +0.000 C 
ATOM     19  N   UNL     1      -5.819  12.326  24.030  0.00  0.00    +0.000 NA
ENDBRANCH  15  18
ENDBRANCH  13  15
ENDBRANCH   1  11
BRANCH   1  20
ATOM     20  C   UNL     1      -0.765  12.932  19.912  0.00  0.00    +0.000 C 
BRANCH  20  21
ATOM     21  S   UNL     1       0.643  11.828  19.880  0.00  0.00    +0.000 S 
ATOM     22  O   UNL     1       1.520  12.247  18.809  0.00  0.00    +0.000 OA
ATOM     23  O   UNL     1       1.137  11.734  21.241  0.00  0.00    +0.000 OA
BRANCH  21  24
ATOM     24  N   UNL     1       0.008  10.319  19.483  0.00  0.00    +0.000 NA
ATOM     25  C   UNL     1       0.247   9.820  18.079  0.00  0.00    +0.000 C 
ATOM     26  C   UNL     1       1.661   9.215  17.900  0.00  0.00    +0.000 C 
ATOM     27  N   UNL     1       1.908   8.211  18.939  0.00  0.00    +0.000 N 
ATOM     28  C   UNL     1       2.724   7.121  18.741  0.00  0.00    +0.000 A 
ATOM     29  C   UNL     1       3.694   7.084  17.742  0.00  0.00    +0.000 A 
ATOM     30  C   UNL     1       4.442   5.925  17.534  0.00  0.00    +0.000 A 
ATOM     31  C   UNL     1       4.195   4.812  18.320  0.00  0.00    +0.000 A 
ATOM     32  C   UNL     1       3.223   4.917  19.294  0.00  0.00    +0.000 A 
ATOM     33  N   UNL     1       2.507   6.041  19.525  0.00  0.00    +0.000 NA
ATOM     34  C   UNL     1       1.707   8.653  20.324  0.00  0.00    +0.000 C 
ATOM     35  C   UNL     1       0.286   9.210  20.467  0.00  0.00    +0.000 C 
ENDBRANCH  21  24
ENDBRANCH  20  21
ENDBRANCH   1  20
TORSDOF 9
ENDMDL
MODEL 4
REMARK VINA RESULT:      -6.4      2.061      2.571
REMARK  Name = 
REMARK  12 active torsions:
REMARK  status: ('A' for Active; 'I' for Inactive)
REMARK    1  A    between atoms: C_1  and  C_2
REMARK    2  A    between atoms: C_2  and  C_3
REMARK    3  A    between atoms: C_2  and  C_4
REMARK    4  A    between atoms: C_2  and  C_5
REMARK    5  A    between atoms: C_5  and  C_6
REMARK    6  A    between atoms: N_8  and  C_9
REMARK    7  A    between atoms: C_9  and  C_10
REMARK    8  A    between atoms: C_9  and  C_26
REMARK    9  A    between atoms: C_10  and  S_11
REMARK   10  A    between atoms: S_11  and  N_14
REMARK   11  A    between atoms: N_28  and  C_29
REMARK   12  A    between atoms: C_29  and  C_30
REMARK                            x       y       z     vdW  Elec       q    Type
REMARK                         _______ _______ _______ _____ _____    ______ ____
ROOT
ATOM      1  C   UNL     1       2.793   6.727  19.752  0.00  0.00    +0.000 C 
ENDROOT
BRANCH   1   4
ATOM      2  C   UNL     1       4.696   6.194  18.221  0.00  0.00    +0.000 C 
ATOM      3  O   UNL     1       5.338   5.656  19.116  0.00  0.00    +0.000 OA
ATOM      4  N   UNL     1       3.430   6.708  18.417  0.00  0.00    +0.000 N 
ATOM      5  H   UNL     1       3.177   7.474  17.793  0.00  0.00    +0.000 HD
BRANCH   2   6
ATOM      6  C   UNL     1       5.221   6.321  16.792  0.00  0.00    +0.000 C 
BRANCH   6   8
ATOM      7  C   UNL     1       4.657   3.857  16.447  0.00  0.00    +0.000 C 
ATOM      8  C   UNL     1       5.645   4.989  16.119  0.00  0.00    +0.000 C 
ATOM      9  C   UNL     1       7.060   4.571  16.554  0.00  0.00    +0.000 C 
ATOM     10  C   UNL     1       5.657   5.181  14.587  0.00  0.00    +0.000 C 
ENDBRANCH   6   8
ENDBRANCH   2   6
ENDBRANCH   1   4
BRANCH   1  11
ATOM     11  C   UNL     1       1.918   5.488  20.017  0.00  0.00    +0.000 C 
ATOM     12  O   UNL     1       0.835   5.562  20.592  0.00  0.00    +0.000 OA
ATOM     13  N   UNL     1       2.458   4.312  19.543  0.00  0.00    +0.000 N 
ATOM     14  H   UNL     1       3.455   4.334  19.354  0.00  0.00    +0.000 HD
BRANCH  13  15
ATOM     15  C   UNL     1       1.855   3.024  19.748  0.00  0.00    +0.000 C 
ATOM     16  C   UNL     1       2.267   1.934  18.772  0.00  0.00    +0.000 C 
ATOM     17  C   UNL     1       0.856   2.435  18.776  0.00  0.00    +0.000 C 
BRANCH  15  18
ATOM     18  C   UNL     1       1.702   2.649  21.135  0.00  0.00    +0.000 C 
ATOM     19  N   UNL     1       1.584   2.313  22.243  0.00  0.00    +0.000 NA
ENDBRANCH  15  18
ENDBRANCH  13  15
ENDBRANCH   1  11
BRANCH   1  20
ATOM     20  C   UNL     1       1.995   7.992  20.049  0.00  0.00    +0.000 C 
BRANCH  20  21
ATOM     21  S   UNL     1       1.492   8.878  18.579  0.00  0.00    +0.000 S 
ATOM     22  O   UNL     1       2.530   9.829  18.248  0.00  0.00    +0.000 OA
ATOM     23  O   UNL     1       1.067   7.885  17.611  0.00  0.00    +0.000 OA
BRANCH  21  24
ATOM     24  N   UNL     1       0.116   9.738  19.035  0.00  0.00    +0.000 NA
ATOM     25  C   UNL     1      -0.030  10.075  20.499  0.00  0.00    +0.000 C 
ATOM     26  C   UNL     1       0.813  11.307  20.909  0.00  0.00    +0.000 C 
ATOM     27  N   UNL     1       0.527  12.427  20.009  0.00  0.00    +0.000 N 
ATOM     28  C   UNL     1       0.605  13.741  20.409  0.00  0.00    +0.000 A 
ATOM     29  C   UNL     1       1.343  14.143  21.520  0.00  0.00    +0.000 A 
ATOM     30  C   UNL     1       1.326  15.477  21.928  0.00  0.00    +0.000 A 
ATOM     31  C   UNL     1       0.553  16.388  21.227  0.00  0.00    +0.000 A 
ATOM     32  C   UNL     1      -0.150  15.924  20.134  0.00  0.00    +0.000 A 
ATOM     33  N   UNL     1      -0.124  14.640  19.710  0.00  0.00    +0.000 NA
ATOM     34  C   UNL     1       0.673  12.155  18.574  0.00  0.00    +0.000 C 
ATOM     35  C   UNL     1      -0.204  10.954  18.203  0.00  0.00    +0.000 C 
ENDBRANCH  21  24
ENDBRANCH  20  21
ENDBRANCH   1  20
TORSDOF 9
ENDMDL
MODEL 5
REMARK VINA RESULT:      -6.3      1.161      1.483
REMARK  Name = 
REMARK  12 active torsions:
REMARK  status: ('A' for Active; 'I' for Inactive)
REMARK    1  A    between atoms: C_1  and  C_2
REMARK    2  A    between atoms: C_2  and  C_3
REMARK    3  A    between atoms: C_2  and  C_4
REMARK    4  A    between atoms: C_2  and  C_5
REMARK    5  A    between atoms: C_5  and  C_6
REMARK    6  A    between atoms: N_8  and  C_9
REMARK    7  A    between atoms: C_9  and  C_10
REMARK    8  A    between atoms: C_9  and  C_26
REMARK    9  A    between atoms: C_10  and  S_11
REMARK   10  A    between atoms: S_11  and  N_14
REMARK   11  A    between atoms: N_28  and  C_29
REMARK   12  A    between atoms: C_29  and  C_30
REMARK                            x       y       z     vdW  Elec       q    Type
REMARK                         _______ _______ _______ _____ _____    ______ ____
ROOT
ATOM      1  C   UNL     1       2.576   6.833  19.624  0.00  0.00    +0.000 C 
ENDROOT
BRANCH   1   4
ATOM      2  C   UNL     1       4.438   6.268  18.055  0.00  0.00    +0.000 C 
ATOM      3  O   UNL     1       5.107   5.757  18.945  0.00  0.00    +0.000 OA
ATOM      4  N   UNL     1       3.175   6.782  18.273  0.00  0.00    +0.000 N 
ATOM      5  H   UNL     1       2.901   7.530  17.636  0.00  0.00    +0.000 HD
BRANCH   2   6
ATOM      6  C   UNL     1       4.922   6.359  16.608  0.00  0.00    +0.000 C 
BRANCH   6   8
ATOM      7  C   UNL     1       6.962   4.828  16.589  0.00  0.00    +0.000 C 
ATOM      8  C   UNL     1       5.547   5.060  16.035  0.00  0.00    +0.000 C 
ATOM      9  C   UNL     1       5.603   5.101  14.498  0.00  0.00    +0.000 C 
ATOM     10  C   UNL     1       4.671   3.856  16.446  0.00  0.00    +0.000 C 
ENDBRANCH   6   8
ENDBRANCH   2   6
ENDBRANCH   1   4
BRANCH   1  11
ATOM     11  C   UNL     1       1.828   5.541  19.999  0.00  0.00    +0.000 C 
ATOM     12  O   UNL     1       0.863   5.539  20.759  0.00  0.00    +0.000 OA
ATOM     13  N   UNL     1       2.335   4.409  19.397  0.00  0.00    +0.000 N 
ATOM     14  H   UNL     1       3.279   4.492  19.036  0.00  0.00    +0.000 HD
BRANCH  13  15
ATOM     15  C   UNL     1       1.845   3.084  19.664  0.00  0.00    +0.000 C 
ATOM     16  C   UNL     1       2.245   2.014  18.660  0.00  0.00    +0.000 C 
ATOM     17  C   UNL     1       0.808   2.415  18.789  0.00  0.00    +0.000 C 
BRANCH  15  18
ATOM     18  C   UNL     1       1.845   2.716  21.061  0.00  0.00    +0.000 C 
ATOM     19  N   UNL     1       1.810   2.433  22.190  0.00  0.00    +0.000 NA
ENDBRANCH  15  18
ENDBRANCH  13  15
ENDBRANCH   1  11
BRANCH   1  20
ATOM     20  C   UNL     1       1.672   8.037  19.864  0.00  0.00    +0.000 C 
BRANCH  20  21
ATOM     21  S   UNL     1       1.701   9.228  18.529  0.00  0.00    +0.000 S 
ATOM     22  O   UNL     1       3.002   9.168  17.900  0.00  0.00    +0.000 OA
ATOM     23  O   UNL     1       0.496   9.019  17.750  0.00  0.00    +0.000 OA
BRANCH  21  24
ATOM     24  N   UNL     1       1.547  10.730  19.278  0.00  0.00    +0.000 NA
ATOM     25  C   UNL     1       0.852  11.819  18.498  0.00  0.00    +0.000 C 
ATOM     26  C   UNL     1      -0.690  11.692  18.549  0.00  0.00    +0.000 C 
ATOM     27  N   UNL     1      -1.134  11.581  19.941  0.00  0.00    +0.000 N 
ATOM     28  C   UNL     1      -2.356  12.043  20.371  0.00  0.00    +0.000 A 
ATOM     29  C   UNL     1      -3.423  12.259  19.501  0.00  0.00    +0.000 A 
ATOM     30  C   UNL     1      -4.617  12.802  19.976  0.00  0.00    +0.000 A 
ATOM     31  C   UNL     1      -4.719  13.139  21.315  0.00  0.00    +0.000 A 
ATOM     32  C   UNL     1      -3.627  12.896  22.123  0.00  0.00    +0.000 A 
ATOM     33  N   UNL     1      -2.472  12.347  21.683  0.00  0.00    +0.000 NA
ATOM     34  C   UNL     1      -0.501  10.524  20.738  0.00  0.00    +0.000 C 
ATOM     35  C   UNL     1       1.019  10.707  20.691  0.00  0.00    +0.000 C 
ENDBRANCH  21  24
ENDBRANCH  20  21
ENDBRANCH   1  20
TORSDOF 9
ENDMDL
MODEL 6
REMARK VINA RESULT:      -6.3      3.274      9.607
REMARK  Name = 
REMARK  12 active torsions:
REMARK  status: ('A' for Active; 'I' for Inactive)
REMARK    1  A    between atoms: C_1  and  C_2
REMARK    2  A    between atoms: C_2  and  C_3
REMARK    3  A    between atoms: C_2  and  C_4
REMARK    4  A    between atoms: C_2  and  C_5
REMARK    5  A    between atoms: C_5  and  C_6
REMARK    6  A    between atoms: N_8  and  C_9
REMARK    7  A    between atoms: C_9  and  C_10
REMARK    8  A    between atoms: C_9  and  C_26
REMARK    9  A    between atoms: C_10  and  S_11
REMARK   10  A    between atoms: S_11  and  N_14
REMARK   11  A    between atoms: N_28  and  C_29
REMARK   12  A    between atoms: C_29  and  C_30
REMARK                            x       y       z     vdW  Elec       q    Type
REMARK                         _______ _______ _______ _____ _____    ______ ____
ROOT
ATOM      1  C   UNL     1      -1.937  12.310  21.580  0.00  0.00    +0.000 C 
ENDROOT
BRANCH   1   4
ATOM      2  C   UNL     1      -2.841  12.096  19.259  0.00  0.00    +0.000 C 
ATOM      3  O   UNL     1      -3.996  12.262  19.634  0.00  0.00    +0.000 OA
ATOM      4  N   UNL     1      -1.763  12.145  20.120  0.00  0.00    +0.000 N 
ATOM      5  H   UNL     1      -0.956  11.594  19.828  0.00  0.00    +0.000 HD
BRANCH   2   6
ATOM      6  C   UNL     1      -2.477  11.851  17.795  0.00  0.00    +0.000 C 
BRANCH   6   8
ATOM      7  C   UNL     1      -4.786  11.320  16.850  0.00  0.00    +0.000 C 
ATOM      8  C   UNL     1      -3.353  10.803  17.060  0.00  0.00    +0.000 C 
ATOM      9  C   UNL     1      -3.399   9.475  17.833  0.00  0.00    +0.000 C 
ATOM     10  C   UNL     1      -2.740  10.522  15.670  0.00  0.00    +0.000 C 
ENDBRANCH   6   8
ENDBRANCH   2   6
ENDBRANCH   1   4
BRANCH   1  11
ATOM     11  C   UNL     1      -1.771  13.769  22.042  0.00  0.00    +0.000 C 
ATOM     12  O   UNL     1      -1.774  14.712  21.254  0.00  0.00    +0.000 OA
ATOM     13  N   UNL     1      -1.630  13.909  23.407  0.00  0.00    +0.000 N 
ATOM     14  H   UNL     1      -1.359  13.069  23.906  0.00  0.00    +0.000 HD
BRANCH  13  15
ATOM     15  C   UNL     1      -1.382  15.169  24.052  0.00  0.00    +0.000 C 
ATOM     16  C   UNL     1      -1.882  15.292  25.483  0.00  0.00    +0.000 C 
ATOM     17  C   UNL     1      -2.496  16.130  24.405  0.00  0.00    +0.000 C 
BRANCH  15  18
ATOM     18  C   UNL     1      -0.098  15.756  23.745  0.00  0.00    +0.000 C 
ATOM     19  N   UNL     1       0.922  16.261  23.503  0.00  0.00    +0.000 NA
ENDBRANCH  15  18
ENDBRANCH  13  15
ENDBRANCH   1  11
BRANCH   1  20
ATOM     20  C   UNL     1      -1.052  11.401  22.424  0.00  0.00    +0.000 C 
BRANCH  20  21
ATOM     21  S   UNL     1       0.402  10.817  21.559  0.00  0.00    +0.000 S 
ATOM     22  O   UNL     1       0.928  11.912  20.774  0.00  0.00    +0.000 OA
ATOM     23  O   UNL     1       1.235  10.146  22.538  0.00  0.00    +0.000 OA
BRANCH  21  24
ATOM     24  N   UNL     1      -0.164   9.633  20.502  0.00  0.00    +0.000 NA
ATOM     25  C   UNL     1       0.150   9.812  19.037  0.00  0.00    +0.000 C 
ATOM     26  C   UNL     1       1.590   9.368  18.682  0.00  0.00    +0.000 C 
ATOM     27  N   UNL     1       1.829   8.011  19.180  0.00  0.00    +0.000 N 
ATOM     28  C   UNL     1       2.690   7.132  18.564  0.00  0.00    +0.000 A 
ATOM     29  C   UNL     1       3.701   7.556  17.704  0.00  0.00    +0.000 A 
ATOM     30  C   UNL     1       4.497   6.619  17.044  0.00  0.00    +0.000 A 
ATOM     31  C   UNL     1       4.257   5.270  17.240  0.00  0.00    +0.000 A 
ATOM     32  C   UNL     1       3.242   4.919  18.108  0.00  0.00    +0.000 A 
ATOM     33  N   UNL     1       2.478   5.814  18.776  0.00  0.00    +0.000 NA
ATOM     34  C   UNL     1       1.556   7.789  20.605  0.00  0.00    +0.000 C 
ATOM     35  C   UNL     1       0.112   8.206  20.906  0.00  0.00    +0.000 C 
ENDBRANCH  21  24
ENDBRANCH  20  21
ENDBRANCH   1  20
TORSDOF 9
ENDMDL
MODEL 7
REMARK VINA RESULT:      -6.3      3.611      6.029
REMARK  Name = 
REMARK  12 active torsions:
REMARK  status: ('A' for Active; 'I' for Inactive)
REMARK    1  A    between atoms: C_1  and  C_2
REMARK    2  A    between atoms: C_2  and  C_3
REMARK    3  A    between atoms: C_2  and  C_4
REMARK    4  A    between atoms: C_2  and  C_5
REMARK    5  A    between atoms: C_5  and  C_6
REMARK    6  A    between atoms: N_8  and  C_9
REMARK    7  A    between atoms: C_9  and  C_10
REMARK    8  A    between atoms: C_9  and  C_26
REMARK    9  A    between atoms: C_10  and  S_11
REMARK   10  A    between atoms: S_11  and  N_14
REMARK   11  A    between atoms: N_28  and  C_29
REMARK   12  A    between atoms: C_29  and  C_30
REMARK                            x       y       z     vdW  Elec       q    Type
REMARK                         _______ _______ _______ _____ _____    ______ ____
ROOT
ATOM      1  C   UNL     1       6.484   6.976  17.573  0.00  0.00    +0.000 C 
ENDROOT
BRANCH   1   4
ATOM      2  C   UNL     1       8.145   8.804  17.955  0.00  0.00    +0.000 C 
ATOM      3  O   UNL     1       8.743   8.158  18.808  0.00  0.00    +0.000 OA
ATOM      4  N   UNL     1       7.061   8.302  17.263  0.00  0.00    +0.000 N 
ATOM      5  H   UNL     1       6.403   9.006  16.929  0.00  0.00    +0.000 HD
BRANCH   2   6
ATOM      6  C   UNL     1       8.562  10.217  17.548  0.00  0.00    +0.000 C 
BRANCH   6   8
ATOM      7  C   UNL     1       9.173  10.387  20.019  0.00  0.00    +0.000 C 
ATOM      8  C   UNL     1       9.340  11.016  18.626  0.00  0.00    +0.000 C 
ATOM      9  C   UNL     1       8.881  12.483  18.671  0.00  0.00    +0.000 C 
ATOM     10  C   UNL     1      10.844  11.001  18.275  0.00  0.00    +0.000 C 
ENDBRANCH   6   8
ENDBRANCH   2   6
ENDBRANCH   1   4
BRANCH   1  11
ATOM     11  C   UNL     1       6.963   5.874  16.610  0.00  0.00    +0.000 C 
ATOM     12  O   UNL     1       7.870   5.098  16.900  0.00  0.00    +0.000 OA
ATOM     13  N   UNL     1       6.276   5.841  15.415  0.00  0.00    +0.000 N 
ATOM     14  H   UNL     1       5.766   6.686  15.181  0.00  0.00    +0.000 HD
BRANCH  13  15
ATOM     15  C   UNL     1       6.605   4.950  14.337  0.00  0.00    +0.000 C 
ATOM     16  C   UNL     1       5.426   4.318  13.613  0.00  0.00    +0.000 C 
ATOM     17  C   UNL     1       6.354   3.459  14.415  0.00  0.00    +0.000 C 
BRANCH  15  18
ATOM     18  C   UNL     1       7.728   5.373  13.532  0.00  0.00    +0.000 C 
ATOM     19  N   UNL     1       8.652   5.717  12.914  0.00  0.00    +0.000 NA
ENDBRANCH  15  18
ENDBRANCH  13  15
ENDBRANCH   1  11
BRANCH   1  20
ATOM     20  C   UNL     1       4.962   6.957  17.657  0.00  0.00    +0.000 C 
BRANCH  20  21
ATOM     21  S   UNL     1       4.308   5.470  18.406  0.00  0.00    +0.000 S 
ATOM     22  O   UNL     1       4.642   4.351  17.553  0.00  0.00    +0.000 OA
ATOM     23  O   UNL     1       4.716   5.484  19.798  0.00  0.00    +0.000 OA
BRANCH  21  24
ATOM     24  N   UNL     1       2.634   5.669  18.384  0.00  0.00    +0.000 NA
ATOM     25  C   UNL     1       1.882   5.308  19.642  0.00  0.00    +0.000 C 
ATOM     26  C   UNL     1       1.950   6.426  20.712  0.00  0.00    +0.000 C 
ATOM     27  N   UNL     1       1.544   7.704  20.122  0.00  0.00    +0.000 N 
ATOM     28  C   UNL     1       0.933   8.699  20.850  0.00  0.00    +0.000 A 
ATOM     29  C   UNL     1       1.021   8.772  22.238  0.00  0.00    +0.000 A 
ATOM     30  C   UNL     1       0.318   9.756  22.934  0.00  0.00    +0.000 A 
ATOM     31  C   UNL     1      -0.479  10.643  22.230  0.00  0.00    +0.000 A 
ATOM     32  C   UNL     1      -0.519  10.517  20.856  0.00  0.00    +0.000 A 
ATOM     33  N   UNL     1       0.177   9.585  20.164  0.00  0.00    +0.000 NA
ATOM     34  C   UNL     1       2.259   8.109  18.906  0.00  0.00    +0.000 C 
ATOM     35  C   UNL     1       2.138   6.994  17.862  0.00  0.00    +0.000 C 
ENDBRANCH  21  24
ENDBRANCH  20  21
ENDBRANCH   1  20
TORSDOF 9
ENDMDL
MODEL 8
REMARK VINA RESULT:      -6.3      3.566     10.687
REMARK  Name = 
REMARK  12 active torsions:
REMARK  status: ('A' for Active; 'I' for Inactive)
REMARK    1  A    between atoms: C_1  and  C_2
REMARK    2  A    between atoms: C_2  and  C_3
REMARK    3  A    between atoms: C_2  and  C_4
REMARK    4  A    between atoms: C_2  and  C_5
REMARK    5  A    between atoms: C_5  and  C_6
REMARK    6  A    between atoms: N_8  and  C_9
REMARK    7  A    between atoms: C_9  and  C_10
REMARK    8  A    between atoms: C_9  and  C_26
REMARK    9  A    between atoms: C_10  and  S_11
REMARK   10  A    between atoms: S_11  and  N_14
REMARK   11  A    between atoms: N_28  and  C_29
REMARK   12  A    between atoms: C_29  and  C_30
REMARK                            x       y       z     vdW  Elec       q    Type
REMARK                         _______ _______ _______ _____ _____    ______ ____
ROOT
ATOM      1  C   UNL     1      -0.416  13.880  20.623  0.00  0.00    +0.000 C 
ENDROOT
BRANCH   1   4
ATOM      2  C   UNL     1      -1.379  12.869  22.696  0.00  0.00    +0.000 C 
ATOM      3  O   UNL     1      -0.439  13.248  23.385  0.00  0.00    +0.000 OA
ATOM      4  N   UNL     1      -1.485  13.162  21.351  0.00  0.00    +0.000 N 
ATOM      5  H   UNL     1      -2.016  12.483  20.805  0.00  0.00    +0.000 HD
BRANCH   2   6
ATOM      6  C   UNL     1      -2.545  12.061  23.265  0.00  0.00    +0.000 C 
BRANCH   6   8
ATOM      7  C   UNL     1      -4.595  12.272  24.768  0.00  0.00    +0.000 C 
ATOM      8  C   UNL     1      -3.826  12.876  23.582  0.00  0.00    +0.000 C 
ATOM      9  C   UNL     1      -4.754  12.951  22.358  0.00  0.00    +0.000 C 
ATOM     10  C   UNL     1      -3.423  14.318  23.961  0.00  0.00    +0.000 C 
ENDBRANCH   6   8
ENDBRANCH   2   6
ENDBRANCH   1   4
BRANCH   1  11
ATOM     11  C   UNL     1      -0.761  15.356  20.355  0.00  0.00    +0.000 C 
ATOM     12  O   UNL     1      -1.917  15.774  20.373  0.00  0.00    +0.000 OA
ATOM     13  N   UNL     1       0.338  16.150  20.106  0.00  0.00    +0.000 N 
ATOM     14  H   UNL     1       1.182  15.655  19.837  0.00  0.00    +0.000 HD
BRANCH  13  15
ATOM     15  C   UNL     1       0.248  17.540  19.752  0.00  0.00    +0.000 C 
ATOM     16  C   UNL     1       1.407  18.416  20.200  0.00  0.00    +0.000 C 
ATOM     17  C   UNL     1       0.046  18.626  20.786  0.00  0.00    +0.000 C 
BRANCH  15  18
ATOM     18  C   UNL     1      -0.303  17.788  18.440  0.00  0.00    +0.000 C 
ATOM     19  N   UNL     1      -0.776  17.968  17.391  0.00  0.00    +0.000 NA
ENDBRANCH  15  18
ENDBRANCH  13  15
ENDBRANCH   1  11
BRANCH   1  20
ATOM     20  C   UNL     1       0.017  13.211  19.323  0.00  0.00    +0.000 C 
BRANCH  20  21
ATOM     21  S   UNL     1       1.182  11.874  19.564  0.00  0.00    +0.000 S 
ATOM     22  O   UNL     1       2.212  11.986  18.555  0.00  0.00    +0.000 OA
ATOM     23  O   UNL     1       1.530  11.866  20.972  0.00  0.00    +0.000 OA
BRANCH  21  24
ATOM     24  N   UNL     1       0.302  10.468  19.267  0.00  0.00    +0.000 NA
ATOM     25  C   UNL     1       0.702   9.648  18.065  0.00  0.00    +0.000 C 
ATOM     26  C   UNL     1       1.937   8.756  18.343  0.00  0.00    +0.000 C 
ATOM     27  N   UNL     1       1.718   7.965  19.556  0.00  0.00    +0.000 N 
ATOM     28  C   UNL     1       2.273   6.720  19.745  0.00  0.00    +0.000 A 
ATOM     29  C   UNL     1       3.392   6.286  19.037  0.00  0.00    +0.000 A 
ATOM     30  C   UNL     1       3.869   4.987  19.210  0.00  0.00    +0.000 A 
ATOM     31  C   UNL     1       3.207   4.133  20.076  0.00  0.00    +0.000 A 
ATOM     32  C   UNL     1       2.108   4.628  20.748  0.00  0.00    +0.000 A 
ATOM     33  N   UNL     1       1.648   5.893  20.612  0.00  0.00    +0.000 NA
ATOM     34  C   UNL     1       1.344   8.719  20.759  0.00  0.00    +0.000 C 
ATOM     35  C   UNL     1       0.099   9.559  20.454  0.00  0.00    +0.000 C 
ENDBRANCH  21  24
ENDBRANCH  20  21
ENDBRANCH   1  20
TORSDOF 9
ENDMDL
MODEL 9
REMARK VINA RESULT:      -6.3      0.896      1.075
REMARK  Name = 
REMARK  12 active torsions:
REMARK  status: ('A' for Active; 'I' for Inactive)
REMARK    1  A    between atoms: C_1  and  C_2
REMARK    2  A    between atoms: C_2  and  C_3
REMARK    3  A    between atoms: C_2  and  C_4
REMARK    4  A    between atoms: C_2  and  C_5
REMARK    5  A    between atoms: C_5  and  C_6
REMARK    6  A    between atoms: N_8  and  C_9
REMARK    7  A    between atoms: C_9  and  C_10
REMARK    8  A    between atoms: C_9  and  C_26
REMARK    9  A    between atoms: C_10  and  S_11
REMARK   10  A    between atoms: S_11  and  N_14
REMARK   11  A    between atoms: N_28  and  C_29
REMARK   12  A    between atoms: C_29  and  C_30
REMARK                            x       y       z     vdW  Elec       q    Type
REMARK                         _______ _______ _______ _____ _____    ______ ____
ROOT
ATOM      1  C   UNL     1       3.450   6.620  18.489  0.00  0.00    +0.000 C 
ENDROOT
BRANCH   1   4
ATOM      2  C   UNL     1       5.114   6.534  16.626  0.00  0.00    +0.000 C 
ATOM      3  O   UNL     1       6.024   6.927  17.347  0.00  0.00    +0.000 OA
ATOM      4  N   UNL     1       3.835   6.310  17.095  0.00  0.00    +0.000 N 
ATOM      5  H   UNL     1       3.099   6.413  16.397  0.00  0.00    +0.000 HD
BRANCH   2   6
ATOM      6  C   UNL     1       5.313   6.221  15.144  0.00  0.00    +0.000 C 
BRANCH   6   8
ATOM      7  C   UNL     1       5.198   4.065  13.785  0.00  0.00    +0.000 C 
ATOM      8  C   UNL     1       5.989   4.859  14.837  0.00  0.00    +0.000 C 
ATOM      9  C   UNL     1       6.134   4.011  16.112  0.00  0.00    +0.000 C 
ATOM     10  C   UNL     1       7.404   5.116  14.274  0.00  0.00    +0.000 C 
ENDBRANCH   6   8
ENDBRANCH   2   6
ENDBRANCH   1   4
BRANCH   1  11
ATOM     11  C   UNL     1       3.706   5.450  19.457  0.00  0.00    +0.000 C 
ATOM     12  O   UNL     1       4.787   5.289  20.018  0.00  0.00    +0.000 OA
ATOM     13  N   UNL     1       2.617   4.624  19.634  0.00  0.00    +0.000 N 
ATOM     14  H   UNL     1       1.900   4.687  18.919  0.00  0.00    +0.000 HD
BRANCH  13  15
ATOM     15  C   UNL     1       2.652   3.427  20.428  0.00  0.00    +0.000 C 
ATOM     16  C   UNL     1       1.311   2.756  20.679  0.00  0.00    +0.000 C 
ATOM     17  C   UNL     1       2.065   3.363  21.821  0.00  0.00    +0.000 C 
BRANCH  15  18
ATOM     18  C   UNL     1       3.785   2.568  20.166  0.00  0.00    +0.000 C 
ATOM     19  N   UNL     1       4.715   1.892  19.984  0.00  0.00    +0.000 NA
ENDBRANCH  15  18
ENDBRANCH  13  15
ENDBRANCH   1  11
BRANCH   1  20
ATOM     20  C   UNL     1       2.015   7.112  18.649  0.00  0.00    +0.000 C 
BRANCH  20  21
ATOM     21  S   UNL     1       1.742   8.745  17.969  0.00  0.00    +0.000 S 
ATOM     22  O   UNL     1       2.785   9.011  17.004  0.00  0.00    +0.000 OA
ATOM     23  O   UNL     1       0.346   8.814  17.584  0.00  0.00    +0.000 OA
BRANCH  21  24
ATOM     24  N   UNL     1       1.945   9.799  19.269  0.00  0.00    +0.000 NA
ATOM     25  C   UNL     1       1.696  11.265  19.010  0.00  0.00    +0.000 C 
ATOM     26  C   UNL     1       0.189  11.620  19.023  0.00  0.00    +0.000 C 
ATOM     27  N   UNL     1      -0.430  11.119  20.253  0.00  0.00    +0.000 N 
ATOM     28  C   UNL     1      -1.507  11.735  20.849  0.00  0.00    +0.000 A 
ATOM     29  C   UNL     1      -2.353  12.597  20.155  0.00  0.00    +0.000 A 
ATOM     30  C   UNL     1      -3.384  13.256  20.825  0.00  0.00    +0.000 A 
ATOM     31  C   UNL     1      -3.542  13.056  22.186  0.00  0.00    +0.000 A 
ATOM     32  C   UNL     1      -2.671  12.186  22.811  0.00  0.00    +0.000 A 
ATOM     33  N   UNL     1      -1.683  11.520  22.172  0.00  0.00    +0.000 NA
ATOM     34  C   UNL     1      -0.232   9.694  20.541  0.00  0.00    +0.000 C 
ATOM     35  C   UNL     1       1.270   9.392  20.555  0.00  0.00    +0.000 C 
ENDBRANCH  21  24
ENDBRANCH  20  21
ENDBRANCH   1  20
TORSDOF 9
ENDMDL
