MODEL 1
REMARK VINA RESULT:      -7.6      0.000      0.000
REMARK  Name = 
REMARK  1 active torsions:
REMARK  status: ('A' for Active; 'I' for Inactive)
REMARK    1  A    between atoms: C_2  and  C_3
REMARK                            x       y       z     vdW  Elec       q    Type
REMARK                         _______ _______ _______ _____ _____    ______ ____
ROOT
ATOM      1  O   UNL     1       5.554   4.196  15.863  0.00  0.00    +0.000 OA
ATOM      2  C   UNL     1       5.466   4.415  17.071  0.00  0.00    +0.000 C 
ATOM      3  N   UNL     1       4.527   3.781  17.887  0.00  0.00    +0.000 N 
ATOM      4  C   UNL     1       3.796   2.633  17.350  0.00  0.00    +0.000 C 
ATOM      5  C   UNL     1       2.290   2.857  17.407  0.00  0.00    +0.000 C 
ATOM      6  C   UNL     1       1.849   3.230  18.823  0.00  0.00    +0.000 C 
ATOM      7  C   UNL     1       2.621   4.451  19.358  0.00  0.00    +0.000 C 
ATOM      8  C   UNL     1       2.257   4.716  20.835  0.00  0.00    +0.000 C 
ATOM      9  C   UNL     1       2.340   6.231  20.985  0.00  0.00    +0.000 C 
ATOM     10  N   UNL     1       1.851   6.688  19.704  0.00  0.00    +0.000 N 
ATOM     11  C   UNL     1       1.627   8.011  19.402  0.00  0.00    +0.000 A 
ATOM     12  C   UNL     1       1.259   8.929  20.391  0.00  0.00    +0.000 A 
ATOM     13  C   UNL     1       0.974  10.252  20.048  0.00  0.00    +0.000 A 
ATOM     14  C   UNL     1       1.068  10.647  18.727  0.00  0.00    +0.000 A 
ATOM     15  C   UNL     1       1.439   9.691  17.801  0.00  0.00    +0.000 A 
ATOM     16  N   UNL     1       1.709   8.402  18.111  0.00  0.00    +0.000 NA
ATOM     17  C   UNL     1       2.218   5.765  18.631  0.00  0.00    +0.000 C 
ATOM     18  C   UNL     1       4.135   4.204  19.232  0.00  0.00    +0.000 C 
ENDROOT
BRANCH   2  19
ATOM     19  C   UNL     1       6.431   5.384  17.653  0.00  0.00    +0.000 A 
ATOM     20  C   UNL     1       6.569   6.633  17.049  0.00  0.00    +0.000 A 
ATOM     21  C   UNL     1       7.494   7.512  17.581  0.00  0.00    +0.000 A 
ATOM     22  N   UNL     1       8.265   7.231  18.656  0.00  0.00    +0.000 NA
ATOM     23  C   UNL     1       8.133   6.003  19.199  0.00  0.00    +0.000 A 
ATOM     24  C   UNL     1       7.261   5.043  18.720  0.00  0.00    +0.000 A 
ENDBRANCH   2  19
TORSDOF 1
ENDMDL
MODEL 2
REMARK VINA RESULT:      -7.2      0.425      1.045
REMARK  Name = 
REMARK  1 active torsions:
REMARK  status: ('A' for Active; 'I' for Inactive)
REMARK    1  A    between atoms: C_2  and  C_3
REMARK                            x       y       z     vdW  Elec       q    Type
REMARK                         _______ _______ _______ _____ _____    ______ ____
ROOT
ATOM      1  O   UNL     1       5.793   4.700  15.499  0.00  0.00    +0.000 OA
ATOM      2  C   UNL     1       5.700   4.816  16.721  0.00  0.00    +0.000 C 
ATOM      3  N   UNL     1       4.791   4.079  17.482  0.00  0.00    +0.000 N 
ATOM      4  C   UNL     1       4.108   2.948  16.854  0.00  0.00    +0.000 C 
ATOM      5  C   UNL     1       2.594   3.102  16.929  0.00  0.00    +0.000 C 
ATOM      6  C   UNL     1       2.142   3.341  18.369  0.00  0.00    +0.000 C 
ATOM      7  C   UNL     1       2.863   4.546  19.002  0.00  0.00    +0.000 C 
ATOM      8  C   UNL     1       2.493   4.675  20.496  0.00  0.00    +0.000 C 
ATOM      9  C   UNL     1       2.512   6.175  20.768  0.00  0.00    +0.000 C 
ATOM     10  N   UNL     1       1.999   6.713  19.528  0.00  0.00    +0.000 N 
ATOM     11  C   UNL     1       1.719   8.045  19.334  0.00  0.00    +0.000 A 
ATOM     12  C   UNL     1       1.315   8.863  20.393  0.00  0.00    +0.000 A 
ATOM     13  C   UNL     1       0.973  10.197  20.159  0.00  0.00    +0.000 A 
ATOM     14  C   UNL     1       1.046  10.701  18.875  0.00  0.00    +0.000 A 
ATOM     15  C   UNL     1       1.454   9.839  17.874  0.00  0.00    +0.000 A 
ATOM     16  N   UNL     1       1.780   8.542  18.079  0.00  0.00    +0.000 NA
ATOM     17  C   UNL     1       2.403   5.896  18.384  0.00  0.00    +0.000 C 
ATOM     18  C   UNL     1       4.386   4.375  18.857  0.00  0.00    +0.000 C 
ENDROOT
BRANCH   2  19
ATOM     19  C   UNL     1       6.624   5.775  17.379  0.00  0.00    +0.000 A 
ATOM     20  C   UNL     1       7.444   5.312  18.408  0.00  0.00    +0.000 A 
ATOM     21  C   UNL     1       8.275   6.223  19.034  0.00  0.00    +0.000 A 
ATOM     22  N   UNL     1       8.342   7.532  18.701  0.00  0.00    +0.000 NA
ATOM     23  C   UNL     1       7.512   7.957  17.725  0.00  0.00    +0.000 A 
ATOM     24  C   UNL     1       6.623   7.133  17.062  0.00  0.00    +0.000 A 
ENDBRANCH   2  19
TORSDOF 1
ENDMDL
MODEL 3
REMARK VINA RESULT:      -6.4      6.465      9.796
REMARK  Name = 
REMARK  1 active torsions:
REMARK  status: ('A' for Active; 'I' for Inactive)
REMARK    1  A    between atoms: C_2  and  C_3
REMARK                            x       y       z     vdW  Elec       q    Type
REMARK                         _______ _______ _______ _____ _____    ______ ____
ROOT
ATOM      1  O   UNL     1      -0.278  10.351  23.555  0.00  0.00    +0.000 OA
ATOM      2  C   UNL     1      -0.866  11.016  22.703  0.00  0.00    +0.000 C 
ATOM      3  N   UNL     1      -0.809  10.716  21.340  0.00  0.00    +0.000 N 
ATOM      4  C   UNL     1      -0.251   9.428  20.930  0.00  0.00    +0.000 C 
ATOM      5  C   UNL     1       0.918   9.609  19.971  0.00  0.00    +0.000 C 
ATOM      6  C   UNL     1       0.518  10.485  18.784  0.00  0.00    +0.000 C 
ATOM      7  C   UNL     1      -0.051  11.842  19.242  0.00  0.00    +0.000 C 
ATOM      8  C   UNL     1      -0.577  12.644  18.032  0.00  0.00    +0.000 C 
ATOM      9  C   UNL     1      -0.314  14.101  18.394  0.00  0.00    +0.000 C 
ATOM     10  N   UNL     1       0.940  14.013  19.108  0.00  0.00    +0.000 N 
ATOM     11  C   UNL     1       1.650  15.110  19.538  0.00  0.00    +0.000 A 
ATOM     12  C   UNL     1       1.595  16.326  18.850  0.00  0.00    +0.000 A 
ATOM     13  C   UNL     1       2.376  17.405  19.269  0.00  0.00    +0.000 A 
ATOM     14  C   UNL     1       3.194  17.263  20.374  0.00  0.00    +0.000 A 
ATOM     15  C   UNL     1       3.199  16.035  21.010  0.00  0.00    +0.000 A 
ATOM     16  N   UNL     1       2.459  14.975  20.612  0.00  0.00    +0.000 NA
ATOM     17  C   UNL     1       1.044  12.760  19.854  0.00  0.00    +0.000 C 
ATOM     18  C   UNL     1      -1.192  11.613  20.249  0.00  0.00    +0.000 C 
ENDROOT
BRANCH   2  19
ATOM     19  C   UNL     1      -1.677  12.165  23.184  0.00  0.00    +0.000 A 
ATOM     20  C   UNL     1      -1.063  13.411  23.306  0.00  0.00    +0.000 A 
ATOM     21  C   UNL     1      -1.821  14.463  23.786  0.00  0.00    +0.000 A 
ATOM     22  N   UNL     1      -3.123  14.352  24.136  0.00  0.00    +0.000 NA
ATOM     23  C   UNL     1      -3.680  13.127  24.039  0.00  0.00    +0.000 A 
ATOM     24  C   UNL     1      -2.998  12.007  23.602  0.00  0.00    +0.000 A 
ENDBRANCH   2  19
TORSDOF 1
ENDMDL
MODEL 4
REMARK VINA RESULT:      -6.4      6.309      9.616
REMARK  Name = 
REMARK  1 active torsions:
REMARK  status: ('A' for Active; 'I' for Inactive)
REMARK    1  A    between atoms: C_2  and  C_3
REMARK                            x       y       z     vdW  Elec       q    Type
REMARK                         _______ _______ _______ _____ _____    ______ ____
ROOT
ATOM      1  O   UNL     1      -0.164  10.243  23.450  0.00  0.00    +0.000 OA
ATOM      2  C   UNL     1      -0.769  10.896  22.601  0.00  0.00    +0.000 C 
ATOM      3  N   UNL     1      -0.761  10.562  21.245  0.00  0.00    +0.000 N 
ATOM      4  C   UNL     1      -0.237   9.255  20.849  0.00  0.00    +0.000 C 
ATOM      5  C   UNL     1       0.904   9.394  19.848  0.00  0.00    +0.000 C 
ATOM      6  C   UNL     1       0.478  10.247  18.653  0.00  0.00    +0.000 C 
ATOM      7  C   UNL     1      -0.056  11.623  19.095  0.00  0.00    +0.000 C 
ATOM      8  C   UNL     1      -0.608  12.404  17.883  0.00  0.00    +0.000 C 
ATOM      9  C   UNL     1      -0.311  13.865  18.200  0.00  0.00    +0.000 C 
ATOM     10  N   UNL     1       0.964  13.775  18.875  0.00  0.00    +0.000 N 
ATOM     11  C   UNL     1       1.704  14.870  19.254  0.00  0.00    +0.000 A 
ATOM     12  C   UNL     1       1.645  16.069  18.538  0.00  0.00    +0.000 A 
ATOM     13  C   UNL     1       2.455  17.146  18.905  0.00  0.00    +0.000 A 
ATOM     14  C   UNL     1       3.307  17.018  19.985  0.00  0.00    +0.000 A 
ATOM     15  C   UNL     1       3.314  15.807  20.651  0.00  0.00    +0.000 A 
ATOM     16  N   UNL     1       2.545  14.749  20.305  0.00  0.00    +0.000 NA
ATOM     17  C   UNL     1       1.072  12.539  19.649  0.00  0.00    +0.000 C 
ATOM     18  C   UNL     1      -1.166  11.438  20.144  0.00  0.00    +0.000 C 
ENDROOT
BRANCH   2  19
ATOM     19  C   UNL     1      -1.547  12.069  23.079  0.00  0.00    +0.000 A 
ATOM     20  C   UNL     1      -2.878  11.881  23.449  0.00  0.00    +0.000 A 
ATOM     21  C   UNL     1      -3.599  12.987  23.860  0.00  0.00    +0.000 A 
ATOM     22  N   UNL     1      -3.084  14.235  23.930  0.00  0.00    +0.000 NA
ATOM     23  C   UNL     1      -1.804  14.392  23.533  0.00  0.00    +0.000 A 
ATOM     24  C   UNL     1      -1.011  13.356  23.075  0.00  0.00    +0.000 A 
ENDBRANCH   2  19
TORSDOF 1
ENDMDL
MODEL 5
REMARK VINA RESULT:      -6.2      7.642     12.350
REMARK  Name = 
REMARK  1 active torsions:
REMARK  status: ('A' for Active; 'I' for Inactive)
REMARK    1  A    between atoms: C_2  and  C_3
REMARK                            x       y       z     vdW  Elec       q    Type
REMARK                         _______ _______ _______ _____ _____    ______ ____
ROOT
ATOM      1  O   UNL     1      -6.665  13.997  18.898  0.00  0.00    +0.000 OA
ATOM      2  C   UNL     1      -6.543  13.425  19.980  0.00  0.00    +0.000 C 
ATOM      3  N   UNL     1      -6.159  14.090  21.146  0.00  0.00    +0.000 N 
ATOM      4  C   UNL     1      -6.151  15.553  21.147  0.00  0.00    +0.000 C 
ATOM      5  C   UNL     1      -4.777  16.101  21.513  0.00  0.00    +0.000 C 
ATOM      6  C   UNL     1      -4.288  15.506  22.834  0.00  0.00    +0.000 C 
ATOM      7  C   UNL     1      -4.291  13.965  22.802  0.00  0.00    +0.000 C 
ATOM      8  C   UNL     1      -3.930  13.395  24.190  0.00  0.00    +0.000 C 
ATOM      9  C   UNL     1      -3.173  12.106  23.890  0.00  0.00    +0.000 C 
ATOM     10  N   UNL     1      -2.438  12.458  22.697  0.00  0.00    +0.000 N 
ATOM     11  C   UNL     1      -1.505  11.637  22.107  0.00  0.00    +0.000 A 
ATOM     12  C   UNL     1      -0.752  10.734  22.863  0.00  0.00    +0.000 A 
ATOM     13  C   UNL     1       0.235   9.958  22.251  0.00  0.00    +0.000 A 
ATOM     14  C   UNL     1       0.453  10.085  20.892  0.00  0.00    +0.000 A 
ATOM     15  C   UNL     1      -0.328  10.994  20.204  0.00  0.00    +0.000 A 
ATOM     16  N   UNL     1      -1.281  11.762  20.781  0.00  0.00    +0.000 NA
ATOM     17  C   UNL     1      -3.189  13.397  21.864  0.00  0.00    +0.000 C 
ATOM     18  C   UNL     1      -5.679  13.457  22.376  0.00  0.00    +0.000 C 
ENDROOT
BRANCH   2  19
ATOM     19  C   UNL     1      -6.847  11.971  20.013  0.00  0.00    +0.000 A 
ATOM     20  C   UNL     1      -6.359  11.164  18.986  0.00  0.00    +0.000 A 
ATOM     21  C   UNL     1      -6.678   9.818  19.012  0.00  0.00    +0.000 A 
ATOM     22  N   UNL     1      -7.428   9.243  19.978  0.00  0.00    +0.000 NA
ATOM     23  C   UNL     1      -7.914  10.055  20.940  0.00  0.00    +0.000 A 
ATOM     24  C   UNL     1      -7.680  11.416  20.984  0.00  0.00    +0.000 A 
ENDBRANCH   2  19
TORSDOF 1
ENDMDL
MODEL 6
REMARK VINA RESULT:      -6.1      2.904      6.487
REMARK  Name = 
REMARK  1 active torsions:
REMARK  status: ('A' for Active; 'I' for Inactive)
REMARK    1  A    between atoms: C_2  and  C_3
REMARK                            x       y       z     vdW  Elec       q    Type
REMARK                         _______ _______ _______ _____ _____    ______ ____
ROOT
ATOM      1  O   UNL     1       1.264   4.211  18.844  0.00  0.00    +0.000 OA
ATOM      2  C   UNL     1       2.487   4.305  18.943  0.00  0.00    +0.000 C 
ATOM      3  N   UNL     1       3.155   5.531  18.903  0.00  0.00    +0.000 N 
ATOM      4  C   UNL     1       2.369   6.760  19.008  0.00  0.00    +0.000 C 
ATOM      5  C   UNL     1       2.599   7.672  17.810  0.00  0.00    +0.000 C 
ATOM      6  C   UNL     1       4.091   7.939  17.609  0.00  0.00    +0.000 C 
ATOM      7  C   UNL     1       4.894   6.630  17.485  0.00  0.00    +0.000 C 
ATOM      8  C   UNL     1       6.408   6.929  17.426  0.00  0.00    +0.000 C 
ATOM      9  C   UNL     1       6.978   5.841  16.522  0.00  0.00    +0.000 C 
ATOM     10  N   UNL     1       5.922   5.671  15.551  0.00  0.00    +0.000 N 
ATOM     11  C   UNL     1       6.029   4.863  14.443  0.00  0.00    +0.000 A 
ATOM     12  C   UNL     1       7.263   4.636  13.827  0.00  0.00    +0.000 A 
ATOM     13  C   UNL     1       7.336   3.865  12.665  0.00  0.00    +0.000 A 
ATOM     14  C   UNL     1       6.180   3.322  12.136  0.00  0.00    +0.000 A 
ATOM     15  C   UNL     1       4.994   3.584  12.796  0.00  0.00    +0.000 A 
ATOM     16  N   UNL     1       4.902   4.337  13.916  0.00  0.00    +0.000 NA
ATOM     17  C   UNL     1       4.606   5.890  16.149  0.00  0.00    +0.000 C 
ATOM     18  C   UNL     1       4.591   5.719  18.687  0.00  0.00    +0.000 C 
ENDROOT
BRANCH   2  19
ATOM     19  C   UNL     1       3.249   3.044  19.133  0.00  0.00    +0.000 A 
ATOM     20  C   UNL     1       3.927   2.848  20.335  0.00  0.00    +0.000 A 
ATOM     21  C   UNL     1       4.659   1.684  20.485  0.00  0.00    +0.000 A 
ATOM     22  N   UNL     1       4.746   0.725  19.536  0.00  0.00    +0.000 NA
ATOM     23  C   UNL     1       4.107   0.958  18.371  0.00  0.00    +0.000 A 
ATOM     24  C   UNL     1       3.379   2.103  18.112  0.00  0.00    +0.000 A 
ENDBRANCH   2  19
TORSDOF 1
ENDMDL
MODEL 7
REMARK VINA RESULT:      -6.1      7.273     12.016
REMARK  Name = 
REMARK  1 active torsions:
REMARK  status: ('A' for Active; 'I' for Inactive)
REMARK    1  A    between atoms: C_2  and  C_3
REMARK                            x       y       z     vdW  Elec       q    Type
REMARK                         _______ _______ _______ _____ _____    ______ ____
ROOT
ATOM      1  O   UNL     1      -6.583  13.768  18.621  0.00  0.00    +0.000 OA
ATOM      2  C   UNL     1      -6.370  13.236  19.710  0.00  0.00    +0.000 C 
ATOM      3  N   UNL     1      -5.831  13.929  20.796  0.00  0.00    +0.000 N 
ATOM      4  C   UNL     1      -5.758  15.388  20.728  0.00  0.00    +0.000 C 
ATOM      5  C   UNL     1      -4.330  15.883  20.919  0.00  0.00    +0.000 C 
ATOM      6  C   UNL     1      -3.727  15.319  22.206  0.00  0.00    +0.000 C 
ATOM      7  C   UNL     1      -3.801  13.781  22.246  0.00  0.00    +0.000 C 
ATOM      8  C   UNL     1      -3.317  13.251  23.613  0.00  0.00    +0.000 C 
ATOM      9  C   UNL     1      -2.655  11.915  23.294  0.00  0.00    +0.000 C 
ATOM     10  N   UNL     1      -2.039  12.181  22.014  0.00  0.00    +0.000 N 
ATOM     11  C   UNL     1      -1.214  11.292  21.367  0.00  0.00    +0.000 A 
ATOM     12  C   UNL     1      -0.423  10.385  22.079  0.00  0.00    +0.000 A 
ATOM     13  C   UNL     1       0.455   9.537  21.401  0.00  0.00    +0.000 A 
ATOM     14  C   UNL     1       0.529   9.596  20.023  0.00  0.00    +0.000 A 
ATOM     15  C   UNL     1      -0.281  10.514  19.380  0.00  0.00    +0.000 A 
ATOM     16  N   UNL     1      -1.130  11.351  20.019  0.00  0.00    +0.000 NA
ATOM     17  C   UNL     1      -2.834  13.120  21.224  0.00  0.00    +0.000 C 
ATOM     18  C   UNL     1      -5.249  13.324  21.995  0.00  0.00    +0.000 C 
ENDROOT
BRANCH   2  19
ATOM     19  C   UNL     1      -6.733  11.801  19.843  0.00  0.00    +0.000 A 
ATOM     20  C   UNL     1      -7.614  11.426  20.856  0.00  0.00    +0.000 A 
ATOM     21  C   UNL     1      -7.917  10.083  20.989  0.00  0.00    +0.000 A 
ATOM     22  N   UNL     1      -7.413   9.117  20.188  0.00  0.00    +0.000 NA
ATOM     23  C   UNL     1      -6.537   9.506  19.238  0.00  0.00    +0.000 A 
ATOM     24  C   UNL     1      -6.145  10.818  19.047  0.00  0.00    +0.000 A 
ENDBRANCH   2  19
TORSDOF 1
ENDMDL
MODEL 8
REMARK VINA RESULT:      -6.1      7.048     11.862
REMARK  Name = 
REMARK  1 active torsions:
REMARK  status: ('A' for Active; 'I' for Inactive)
REMARK    1  A    between atoms: C_2  and  C_3
REMARK                            x       y       z     vdW  Elec       q    Type
REMARK                         _______ _______ _______ _____ _____    ______ ____
ROOT
ATOM      1  O   UNL     1      -6.236  14.550  19.385  0.00  0.00    +0.000 OA
ATOM      2  C   UNL     1      -5.936  13.777  20.295  0.00  0.00    +0.000 C 
ATOM      3  N   UNL     1      -5.219  14.182  21.423  0.00  0.00    +0.000 N 
ATOM      4  C   UNL     1      -5.041  15.614  21.662  0.00  0.00    +0.000 C 
ATOM      5  C   UNL     1      -3.566  15.982  21.763  0.00  0.00    +0.000 C 
ATOM      6  C   UNL     1      -2.859  15.116  22.805  0.00  0.00    +0.000 C 
ATOM      7  C   UNL     1      -3.048  13.613  22.522  0.00  0.00    +0.000 C 
ATOM      8  C   UNL     1      -2.447  12.768  23.665  0.00  0.00    +0.000 C 
ATOM      9  C   UNL     1      -1.934  11.506  22.981  0.00  0.00    +0.000 C 
ATOM     10  N   UNL     1      -1.457  12.021  21.717  0.00  0.00    +0.000 N 
ATOM     11  C   UNL     1      -0.786  11.259  20.789  0.00  0.00    +0.000 A 
ATOM     12  C   UNL     1       0.011  10.178  21.176  0.00  0.00    +0.000 A 
ATOM     13  C   UNL     1       0.733   9.460  20.220  0.00  0.00    +0.000 A 
ATOM     14  C   UNL     1       0.646   9.824  18.890  0.00  0.00    +0.000 A 
ATOM     15  C   UNL     1      -0.161  10.901  18.575  0.00  0.00    +0.000 A 
ATOM     16  N   UNL     1      -0.860  11.614  19.487  0.00  0.00    +0.000 NA
ATOM     17  C   UNL     1      -2.265  13.151  21.261  0.00  0.00    +0.000 C 
ATOM     18  C   UNL     1      -4.547  13.296  22.375  0.00  0.00    +0.000 C 
ENDROOT
BRANCH   2  19
ATOM     19  C   UNL     1      -6.391  12.369  20.163  0.00  0.00    +0.000 A 
ATOM     20  C   UNL     1      -5.917  11.613  19.091  0.00  0.00    +0.000 A 
ATOM     21  C   UNL     1      -6.375  10.314  18.962  0.00  0.00    +0.000 A 
ATOM     22  N   UNL     1      -7.248   9.737  19.818  0.00  0.00    +0.000 NA
ATOM     23  C   UNL     1      -7.714  10.504  20.825  0.00  0.00    +0.000 A 
ATOM     24  C   UNL     1      -7.344  11.821  21.020  0.00  0.00    +0.000 A 
ENDBRANCH   2  19
TORSDOF 1
ENDMDL
MODEL 9
REMARK VINA RESULT:      -5.9      8.331     12.464
REMARK  Name = 
REMARK  1 active torsions:
REMARK  status: ('A' for Active; 'I' for Inactive)
REMARK    1  A    between atoms: C_2  and  C_3
REMARK                            x       y       z     vdW  Elec       q    Type
REMARK                         _______ _______ _______ _____ _____    ______ ____
ROOT
ATOM      1  O   UNL     1      -7.412  14.615  20.022  0.00  0.00    +0.000 OA
ATOM      2  C   UNL     1      -6.913  13.732  20.718  0.00  0.00    +0.000 C 
ATOM      3  N   UNL     1      -6.362  13.984  21.977  0.00  0.00    +0.000 N 
ATOM      4  C   UNL     1      -6.613  15.281  22.603  0.00  0.00    +0.000 C 
ATOM      5  C   UNL     1      -5.311  15.999  22.938  0.00  0.00    +0.000 C 
ATOM      6  C   UNL     1      -4.397  15.105  23.776  0.00  0.00    +0.000 C 
ATOM      7  C   UNL     1      -4.135  13.751  23.087  0.00  0.00    +0.000 C 
ATOM      8  C   UNL     1      -3.329  12.819  24.017  0.00  0.00    +0.000 C 
ATOM      9  C   UNL     1      -2.460  11.994  23.074  0.00  0.00    +0.000 C 
ATOM     10  N   UNL     1      -2.136  12.955  22.044  0.00  0.00    +0.000 N 
ATOM     11  C   UNL     1      -1.259  12.702  21.015  0.00  0.00    +0.000 A 
ATOM     12  C   UNL     1      -0.187  11.819  21.176  0.00  0.00    +0.000 A 
ATOM     13  C   UNL     1       0.727  11.629  20.137  0.00  0.00    +0.000 A 
ATOM     14  C   UNL     1       0.557  12.313  18.949  0.00  0.00    +0.000 A 
ATOM     15  C   UNL     1      -0.525  13.169  18.856  0.00  0.00    +0.000 A 
ATOM     16  N   UNL     1      -1.415  13.374  19.854  0.00  0.00    +0.000 NA
ATOM     17  C   UNL     1      -3.233  13.899  21.830  0.00  0.00    +0.000 C 
ATOM     18  C   UNL     1      -5.474  13.088  22.719  0.00  0.00    +0.000 C 
ENDROOT
BRANCH   2  19
ATOM     19  C   UNL     1      -6.934  12.349  20.174  0.00  0.00    +0.000 A 
ATOM     20  C   UNL     1      -7.554  11.348  20.921  0.00  0.00    +0.000 A 
ATOM     21  C   UNL     1      -7.538  10.060  20.417  0.00  0.00    +0.000 A 
ATOM     22  N   UNL     1      -6.962   9.720  19.242  0.00  0.00    +0.000 NA
ATOM     23  C   UNL     1      -6.342  10.704  18.558  0.00  0.00    +0.000 A 
ATOM     24  C   UNL     1      -6.274  12.014  18.992  0.00  0.00    +0.000 A 
ENDBRANCH   2  19
TORSDOF 1
ENDMDL
