MODEL 1
REMARK VINA RESULT:      -6.0      0.000      0.000
REMARK  Name = 
REMARK  9 active torsions:
REMARK  status: ('A' for Active; 'I' for Inactive)
REMARK    1  A    between atoms: C_1  and  O_2
REMARK    2  A    between atoms: O_2  and  C_3
REMARK    3  A    between atoms: C_8  and  C_9
REMARK    4  A    between atoms: N_14  and  C_15
REMARK    5  A    between atoms: C_15  and  C_16
REMARK    6  A    between atoms: C_20  and  C_21
REMARK    7  A    between atoms: C_23  and  C_24
REMARK    8  A    between atoms: C_24  and  C_25
REMARK    9  A    between atoms: C_25  and  O_26
REMARK                            x       y       z     vdW  Elec       q    Type
REMARK                         _______ _______ _______ _____ _____    ______ ____
ROOT
ATOM      1  C   UNL     1       1.336  10.385  18.984  0.00  0.00    +0.000 C 
ATOM      2  O   UNL     1       2.279  11.182  18.935  0.00  0.00    +0.000 OA
ATOM      3  N   UNL     1       0.016  10.845  18.979  0.00  0.00    +0.000 N 
ATOM      4  C   UNL     1      -0.214  12.288  18.974  0.00  0.00    +0.000 C 
ATOM      5  C   UNL     1      -1.332  12.677  17.987  0.00  0.00    +0.000 C 
ATOM      6  N   UNL     1      -2.612  11.929  18.131  0.00  0.00    +0.000 NA
ATOM      7  C   UNL     1      -2.350  10.464  18.206  0.00  0.00    +0.000 C 
ATOM      8  C   UNL     1      -1.199  10.055  19.163  0.00  0.00    +0.000 C 
ENDROOT
BRANCH   1  14
ATOM      9  C   UNL     1       1.811   8.095  20.032  0.00  0.00    +0.000 A 
ATOM     10  N   UNL     1       2.254   6.810  19.941  0.00  0.00    +0.000 NA
ATOM     11  C   UNL     1       2.710   6.385  18.745  0.00  0.00    +0.000 A 
ATOM     12  C   UNL     1       2.738   7.182  17.619  0.00  0.00    +0.000 A 
ATOM     13  C   UNL     1       2.229   8.476  17.722  0.00  0.00    +0.000 A 
ATOM     14  C   UNL     1       1.724   8.955  18.945  0.00  0.00    +0.000 A 
BRANCH   9  16
ATOM     15  C   UNL     1       0.151   8.200  21.679  0.00  0.00    +0.000 C 
ATOM     16  O   UNL     1       1.469   8.557  21.284  0.00  0.00    +0.000 OA
ENDBRANCH   9  16
ENDBRANCH   1  14
BRANCH   6  17
ATOM     17  C   UNL     1      -3.358  12.380  19.335  0.00  0.00    +0.000 C 
BRANCH  17  18
ATOM     18  C   UNL     1      -4.868  12.228  19.245  0.00  0.00    +0.000 A 
ATOM     19  C   UNL     1      -5.504  12.156  18.009  0.00  0.00    +0.000 A 
ATOM     20  C   UNL     1      -6.892  12.075  17.976  0.00  0.00    +0.000 A 
ATOM     21  C   UNL     1      -7.603  12.038  19.170  0.00  0.00    +0.000 A 
ATOM     22  C   UNL     1      -6.900  12.068  20.368  0.00  0.00    +0.000 A 
ATOM     23  C   UNL     1      -7.608  11.951  21.683  0.00  0.00    +0.000 C 
ATOM     24  N   UNL     1      -5.550  12.175  20.418  0.00  0.00    +0.000 NA
ENDBRANCH  17  18
ENDBRANCH   6  17
BRANCH   7  25
ATOM     25  C   UNL     1      -2.077   9.840  16.822  0.00  0.00    +0.000 C 
BRANCH  25  26
ATOM     26  C   UNL     1      -3.205  10.049  15.831  0.00  0.00    +0.000 C 
BRANCH  26  27
ATOM     27  O   UNL     1      -3.067  11.351  15.268  0.00  0.00    +0.000 OA
ATOM     28  H   UNL     1      -2.544  11.883  15.891  0.00  0.00    +0.000 HD
ENDBRANCH  26  27
ENDBRANCH  25  26
ENDBRANCH   7  25
TORSDOF 7
ENDMDL
MODEL 2
REMARK VINA RESULT:      -5.9      2.993      7.725
REMARK  Name = 
REMARK  9 active torsions:
REMARK  status: ('A' for Active; 'I' for Inactive)
REMARK    1  A    between atoms: C_1  and  O_2
REMARK    2  A    between atoms: O_2  and  C_3
REMARK    3  A    between atoms: C_8  and  C_9
REMARK    4  A    between atoms: N_14  and  C_15
REMARK    5  A    between atoms: C_15  and  C_16
REMARK    6  A    between atoms: C_20  and  C_21
REMARK    7  A    between atoms: C_23  and  C_24
REMARK    8  A    between atoms: C_24  and  C_25
REMARK    9  A    between atoms: C_25  and  O_26
REMARK                            x       y       z     vdW  Elec       q    Type
REMARK                         _______ _______ _______ _____ _____    ______ ____
ROOT
ATOM      1  C   UNL     1      -0.755  12.466  22.505  0.00  0.00    +0.000 C 
ATOM      2  O   UNL     1      -1.329  12.332  23.591  0.00  0.00    +0.000 OA
ATOM      3  N   UNL     1      -0.160  11.368  21.875  0.00  0.00    +0.000 N 
ATOM      4  C   UNL     1      -0.185  10.079  22.562  0.00  0.00    +0.000 C 
ATOM      5  C   UNL     1      -0.536   8.932  21.593  0.00  0.00    +0.000 C 
ATOM      6  N   UNL     1       0.280   8.863  20.349  0.00  0.00    +0.000 NA
ATOM      7  C   UNL     1       0.353  10.203  19.703  0.00  0.00    +0.000 C 
ATOM      8  C   UNL     1       0.662  11.378  20.668  0.00  0.00    +0.000 C 
ENDROOT
BRANCH   1  14
ATOM      9  C   UNL     1      -1.806  14.267  21.015  0.00  0.00    +0.000 A 
ATOM     10  N   UNL     1      -1.786  15.503  20.442  0.00  0.00    +0.000 NA
ATOM     11  C   UNL     1      -0.728  16.299  20.702  0.00  0.00    +0.000 A 
ATOM     12  C   UNL     1       0.317  15.925  21.522  0.00  0.00    +0.000 A 
ATOM     13  C   UNL     1       0.249  14.678  22.140  0.00  0.00    +0.000 A 
ATOM     14  C   UNL     1      -0.846  13.822  21.914  0.00  0.00    +0.000 A 
BRANCH   9  16
ATOM     15  C   UNL     1      -4.101  13.821  21.110  0.00  0.00    +0.000 C 
ATOM     16  O   UNL     1      -2.823  13.416  20.641  0.00  0.00    +0.000 OA
ENDBRANCH   9  16
ENDBRANCH   1  14
BRANCH   6  17
ATOM     17  C   UNL     1       1.647   8.357  20.639  0.00  0.00    +0.000 C 
BRANCH  17  18
ATOM     18  C   UNL     1       1.980   7.017  20.002  0.00  0.00    +0.000 A 
ATOM     19  C   UNL     1       2.627   6.954  18.770  0.00  0.00    +0.000 A 
ATOM     20  C   UNL     1       2.859   5.707  18.201  0.00  0.00    +0.000 A 
ATOM     21  C   UNL     1       2.469   4.561  18.884  0.00  0.00    +0.000 A 
ATOM     22  C   UNL     1       1.869   4.696  20.130  0.00  0.00    +0.000 A 
ATOM     23  C   UNL     1       1.501   3.495  20.946  0.00  0.00    +0.000 C 
ATOM     24  N   UNL     1       1.610   5.904  20.687  0.00  0.00    +0.000 NA
ENDBRANCH  17  18
ENDBRANCH   6  17
BRANCH   7  25
ATOM     25  C   UNL     1      -0.926  10.549  18.911  0.00  0.00    +0.000 C 
BRANCH  25  26
ATOM     26  C   UNL     1      -0.892  11.928  18.281  0.00  0.00    +0.000 C 
BRANCH  26  27
ATOM     27  O   UNL     1      -2.225  12.292  17.934  0.00  0.00    +0.000 OA
ATOM     28  H   UNL     1      -2.630  12.699  18.718  0.00  0.00    +0.000 HD
ENDBRANCH  26  27
ENDBRANCH  25  26
ENDBRANCH   7  25
TORSDOF 7
ENDMDL
MODEL 3
REMARK VINA RESULT:      -5.9      1.967      7.996
REMARK  Name = 
REMARK  9 active torsions:
REMARK  status: ('A' for Active; 'I' for Inactive)
REMARK    1  A    between atoms: C_1  and  O_2
REMARK    2  A    between atoms: O_2  and  C_3
REMARK    3  A    between atoms: C_8  and  C_9
REMARK    4  A    between atoms: N_14  and  C_15
REMARK    5  A    between atoms: C_15  and  C_16
REMARK    6  A    between atoms: C_20  and  C_21
REMARK    7  A    between atoms: C_23  and  C_24
REMARK    8  A    between atoms: C_24  and  C_25
REMARK    9  A    between atoms: C_25  and  O_26
REMARK                            x       y       z     vdW  Elec       q    Type
REMARK                         _______ _______ _______ _____ _____    ______ ____
ROOT
ATOM      1  C   UNL     1      -1.989  12.874  19.736  0.00  0.00    +0.000 C 
ATOM      2  O   UNL     1      -1.673  14.061  19.602  0.00  0.00    +0.000 OA
ATOM      3  N   UNL     1      -1.053  11.860  19.509  0.00  0.00    +0.000 N 
ATOM      4  C   UNL     1       0.282  12.239  19.055  0.00  0.00    +0.000 C 
ATOM      5  C   UNL     1       1.376  11.445  19.797  0.00  0.00    +0.000 C 
ATOM      6  N   UNL     1       1.211   9.965  19.802  0.00  0.00    +0.000 NA
ATOM      7  C   UNL     1      -0.179   9.601  20.198  0.00  0.00    +0.000 C 
ATOM      8  C   UNL     1      -1.294  10.419  19.495  0.00  0.00    +0.000 C 
ENDROOT
BRANCH   1  14
ATOM      9  C   UNL     1      -4.466  12.267  19.482  0.00  0.00    +0.000 A 
ATOM     10  N   UNL     1      -5.725  12.155  19.990  0.00  0.00    +0.000 NA
ATOM     11  C   UNL     1      -5.918  12.513  21.276  0.00  0.00    +0.000 A 
ATOM     12  C   UNL     1      -4.907  12.974  22.094  0.00  0.00    +0.000 A 
ATOM     13  C   UNL     1      -3.617  13.029  21.569  0.00  0.00    +0.000 A 
ATOM     14  C   UNL     1      -3.365  12.646  20.238  0.00  0.00    +0.000 A 
BRANCH   9  16
ATOM     15  C   UNL     1      -4.657  10.699  17.756  0.00  0.00    +0.000 C 
ATOM     16  O   UNL     1      -4.306  12.022  18.136  0.00  0.00    +0.000 OA
ENDBRANCH   9  16
ENDBRANCH   1  14
BRANCH   6  17
ATOM     17  C   UNL     1       1.532   9.390  18.470  0.00  0.00    +0.000 C 
BRANCH  17  18
ATOM     18  C   UNL     1       2.300   8.079  18.509  0.00  0.00    +0.000 A 
ATOM     19  C   UNL     1       3.282   7.799  17.562  0.00  0.00    +0.000 A 
ATOM     20  C   UNL     1       3.918   6.563  17.604  0.00  0.00    +0.000 A 
ATOM     21  C   UNL     1       3.582   5.656  18.601  0.00  0.00    +0.000 A 
ATOM     22  C   UNL     1       2.625   6.018  19.541  0.00  0.00    +0.000 A 
ATOM     23  C   UNL     1       2.281   5.112  20.683  0.00  0.00    +0.000 C 
ATOM     24  N   UNL     1       1.976   7.207  19.499  0.00  0.00    +0.000 NA
ENDBRANCH  17  18
ENDBRANCH   6  17
BRANCH   7  25
ATOM     25  C   UNL     1      -0.402   9.687  21.723  0.00  0.00    +0.000 C 
BRANCH  25  26
ATOM     26  C   UNL     1       0.801   9.248  22.535  0.00  0.00    +0.000 C 
BRANCH  26  27
ATOM     27  O   UNL     1       0.574   9.605  23.896  0.00  0.00    +0.000 OA
ATOM     28  H   UNL     1       1.019  10.455  24.052  0.00  0.00    +0.000 HD
ENDBRANCH  26  27
ENDBRANCH  25  26
ENDBRANCH   7  25
TORSDOF 7
ENDMDL
MODEL 4
REMARK VINA RESULT:      -5.9      2.167      7.897
REMARK  Name = 
REMARK  9 active torsions:
REMARK  status: ('A' for Active; 'I' for Inactive)
REMARK    1  A    between atoms: C_1  and  O_2
REMARK    2  A    between atoms: O_2  and  C_3
REMARK    3  A    between atoms: C_8  and  C_9
REMARK    4  A    between atoms: N_14  and  C_15
REMARK    5  A    between atoms: C_15  and  C_16
REMARK    6  A    between atoms: C_20  and  C_21
REMARK    7  A    between atoms: C_23  and  C_24
REMARK    8  A    between atoms: C_24  and  C_25
REMARK    9  A    between atoms: C_25  and  O_26
REMARK                            x       y       z     vdW  Elec       q    Type
REMARK                         _______ _______ _______ _____ _____    ______ ____
ROOT
ATOM      1  C   UNL     1      -1.705  12.923  19.662  0.00  0.00    +0.000 C 
ATOM      2  O   UNL     1      -1.349  14.074  19.390  0.00  0.00    +0.000 OA
ATOM      3  N   UNL     1      -0.854  11.840  19.424  0.00  0.00    +0.000 N 
ATOM      4  C   UNL     1       0.438  12.101  18.793  0.00  0.00    +0.000 C 
ATOM      5  C   UNL     1       1.569  11.307  19.476  0.00  0.00    +0.000 C 
ATOM      6  N   UNL     1       1.332   9.845  19.630  0.00  0.00    +0.000 NA
ATOM      7  C   UNL     1      -0.019   9.598  20.208  0.00  0.00    +0.000 C 
ATOM      8  C   UNL     1      -1.166  10.420  19.562  0.00  0.00    +0.000 C 
ENDROOT
BRANCH   1  14
ATOM      9  C   UNL     1      -3.248  12.703  21.697  0.00  0.00    +0.000 A 
ATOM     10  N   UNL     1      -4.482  12.526  22.245  0.00  0.00    +0.000 NA
ATOM     11  C   UNL     1      -5.526  12.373  21.405  0.00  0.00    +0.000 A 
ATOM     12  C   UNL     1      -5.403  12.397  20.031  0.00  0.00    +0.000 A 
ATOM     13  C   UNL     1      -4.139  12.633  19.493  0.00  0.00    +0.000 A 
ATOM     14  C   UNL     1      -3.024  12.819  20.331  0.00  0.00    +0.000 A 
BRANCH   9  16
ATOM     15  C   UNL     1      -2.418  13.471  23.746  0.00  0.00    +0.000 C 
ATOM     16  O   UNL     1      -2.173  12.729  22.559  0.00  0.00    +0.000 OA
ENDBRANCH   9  16
ENDBRANCH   1  14
BRANCH   6  17
ATOM     17  C   UNL     1       1.469   9.145  18.326  0.00  0.00    +0.000 C 
BRANCH  17  18
ATOM     18  C   UNL     1       2.415   7.954  18.337  0.00  0.00    +0.000 A 
ATOM     19  C   UNL     1       3.474   7.877  17.437  0.00  0.00    +0.000 A 
ATOM     20  C   UNL     1       4.278   6.742  17.446  0.00  0.00    +0.000 A 
ATOM     21  C   UNL     1       4.024   5.734  18.368  0.00  0.00    +0.000 A 
ATOM     22  C   UNL     1       2.978   5.897  19.268  0.00  0.00    +0.000 A 
ATOM     23  C   UNL     1       2.708   4.879  20.333  0.00  0.00    +0.000 C 
ATOM     24  N   UNL     1       2.168   6.983  19.254  0.00  0.00    +0.000 NA
ENDBRANCH  17  18
ENDBRANCH   6  17
BRANCH   7  25
ATOM     25  C   UNL     1      -0.060   9.822  21.734  0.00  0.00    +0.000 C 
BRANCH  25  26
ATOM     26  C   UNL     1       1.122   9.216  22.466  0.00  0.00    +0.000 C 
BRANCH  26  27
ATOM     27  O   UNL     1       1.522   8.040  21.768  0.00  0.00    +0.000 OA
ATOM     28  H   UNL     1       0.913   7.327  22.025  0.00  0.00    +0.000 HD
ENDBRANCH  26  27
ENDBRANCH  25  26
ENDBRANCH   7  25
TORSDOF 7
ENDMDL
MODEL 5
REMARK VINA RESULT:      -5.9      3.587      7.750
REMARK  Name = 
REMARK  9 active torsions:
REMARK  status: ('A' for Active; 'I' for Inactive)
REMARK    1  A    between atoms: C_1  and  O_2
REMARK    2  A    between atoms: O_2  and  C_3
REMARK    3  A    between atoms: C_8  and  C_9
REMARK    4  A    between atoms: N_14  and  C_15
REMARK    5  A    between atoms: C_15  and  C_16
REMARK    6  A    between atoms: C_20  and  C_21
REMARK    7  A    between atoms: C_23  and  C_24
REMARK    8  A    between atoms: C_24  and  C_25
REMARK    9  A    between atoms: C_25  and  O_26
REMARK                            x       y       z     vdW  Elec       q    Type
REMARK                         _______ _______ _______ _____ _____    ______ ____
ROOT
ATOM      1  C   UNL     1      -0.659  12.532  22.411  0.00  0.00    +0.000 C 
ATOM      2  O   UNL     1      -1.228  12.449  23.504  0.00  0.00    +0.000 OA
ATOM      3  N   UNL     1      -0.094  11.399  21.815  0.00  0.00    +0.000 N 
ATOM      4  C   UNL     1      -0.144  10.135  22.547  0.00  0.00    +0.000 C 
ATOM      5  C   UNL     1      -0.528   8.964  21.621  0.00  0.00    +0.000 C 
ATOM      6  N   UNL     1       0.277   8.832  20.375  0.00  0.00    +0.000 NA
ATOM      7  C   UNL     1       0.376  10.147  19.682  0.00  0.00    +0.000 C 
ATOM      8  C   UNL     1       0.720  11.348  20.604  0.00  0.00    +0.000 C 
ENDROOT
BRANCH   1  14
ATOM      9  C   UNL     1       0.289  14.820  21.753  0.00  0.00    +0.000 A 
ATOM     10  N   UNL     1       0.139  16.066  21.220  0.00  0.00    +0.000 NA
ATOM     11  C   UNL     1      -1.083  16.412  20.766  0.00  0.00    +0.000 A 
ATOM     12  C   UNL     1      -2.174  15.568  20.808  0.00  0.00    +0.000 A 
ATOM     13  C   UNL     1      -1.984  14.281  21.307  0.00  0.00    +0.000 A 
ATOM     14  C   UNL     1      -0.722  13.868  21.772  0.00  0.00    +0.000 A 
BRANCH   9  16
ATOM     15  C   UNL     1       2.613  15.049  21.613  0.00  0.00    +0.000 C 
ATOM     16  O   UNL     1       1.504  14.523  22.329  0.00  0.00    +0.000 OA
ENDBRANCH   9  16
ENDBRANCH   1  14
BRANCH   6  17
ATOM     17  C   UNL     1       1.634   8.305  20.674  0.00  0.00    +0.000 C 
BRANCH  17  18
ATOM     18  C   UNL     1       1.954   6.965  20.031  0.00  0.00    +0.000 A 
ATOM     19  C   UNL     1       2.577   6.901  18.787  0.00  0.00    +0.000 A 
ATOM     20  C   UNL     1       2.798   5.654  18.213  0.00  0.00    +0.000 A 
ATOM     21  C   UNL     1       2.419   4.509  18.904  0.00  0.00    +0.000 A 
ATOM     22  C   UNL     1       1.843   4.644  20.161  0.00  0.00    +0.000 A 
ATOM     23  C   UNL     1       1.488   3.443  20.982  0.00  0.00    +0.000 C 
ATOM     24  N   UNL     1       1.595   5.852  20.722  0.00  0.00    +0.000 NA
ENDBRANCH  17  18
ENDBRANCH   6  17
BRANCH   7  25
ATOM     25  C   UNL     1      -0.900  10.495  18.887  0.00  0.00    +0.000 C 
BRANCH  25  26
ATOM     26  C   UNL     1      -0.946  11.937  18.420  0.00  0.00    +0.000 C 
BRANCH  26  27
ATOM     27  O   UNL     1      -2.310  12.349  18.382  0.00  0.00    +0.000 OA
ATOM     28  H   UNL     1      -2.427  13.031  19.064  0.00  0.00    +0.000 HD
ENDBRANCH  26  27
ENDBRANCH  25  26
ENDBRANCH   7  25
TORSDOF 7
ENDMDL
MODEL 6
REMARK VINA RESULT:      -5.7      2.935      7.796
REMARK  Name = 
REMARK  9 active torsions:
REMARK  status: ('A' for Active; 'I' for Inactive)
REMARK    1  A    between atoms: C_1  and  O_2
REMARK    2  A    between atoms: O_2  and  C_3
REMARK    3  A    between atoms: C_8  and  C_9
REMARK    4  A    between atoms: N_14  and  C_15
REMARK    5  A    between atoms: C_15  and  C_16
REMARK    6  A    between atoms: C_20  and  C_21
REMARK    7  A    between atoms: C_23  and  C_24
REMARK    8  A    between atoms: C_24  and  C_25
REMARK    9  A    between atoms: C_25  and  O_26
REMARK                            x       y       z     vdW  Elec       q    Type
REMARK                         _______ _______ _______ _____ _____    ______ ____
ROOT
ATOM      1  C   UNL     1      -3.607  14.285  20.982  0.00  0.00    +0.000 C 
ATOM      2  O   UNL     1      -3.596  15.518  21.057  0.00  0.00    +0.000 OA
ATOM      3  N   UNL     1      -2.445  13.582  20.648  0.00  0.00    +0.000 N 
ATOM      4  C   UNL     1      -1.240  14.347  20.335  0.00  0.00    +0.000 C 
ATOM      5  C   UNL     1       0.006  13.729  20.999  0.00  0.00    +0.000 C 
ATOM      6  N   UNL     1       0.215  12.274  20.759  0.00  0.00    +0.000 NA
ATOM      7  C   UNL     1      -1.045  11.522  21.014  0.00  0.00    +0.000 C 
ATOM      8  C   UNL     1      -2.319  12.150  20.390  0.00  0.00    +0.000 C 
ENDROOT
BRANCH   1  14
ATOM      9  C   UNL     1      -5.226  13.162  22.621  0.00  0.00    +0.000 A 
ATOM     10  N   UNL     1      -6.392  12.509  22.888  0.00  0.00    +0.000 NA
ATOM     11  C   UNL     1      -7.219  12.251  21.855  0.00  0.00    +0.000 A 
ATOM     12  C   UNL     1      -6.945  12.623  20.555  0.00  0.00    +0.000 A 
ATOM     13  C   UNL     1      -5.773  13.337  20.313  0.00  0.00    +0.000 A 
ATOM     14  C   UNL     1      -4.890  13.647  21.364  0.00  0.00    +0.000 A 
BRANCH   9  16
ATOM     15  C   UNL     1      -4.488  12.329  24.680  0.00  0.00    +0.000 C 
ATOM     16  O   UNL     1      -4.332  13.305  23.659  0.00  0.00    +0.000 OA
ENDBRANCH   9  16
ENDBRANCH   1  14
BRANCH   6  17
ATOM     17  C   UNL     1       0.688  12.028  19.372  0.00  0.00    +0.000 C 
BRANCH  17  18
ATOM     18  C   UNL     1       1.232  10.631  19.122  0.00  0.00    +0.000 A 
ATOM     19  C   UNL     1       1.853  10.312  17.917  0.00  0.00    +0.000 A 
ATOM     20  C   UNL     1       2.283   9.006  17.711  0.00  0.00    +0.000 A 
ATOM     21  C   UNL     1       2.110   8.064  18.718  0.00  0.00    +0.000 A 
ATOM     22  C   UNL     1       1.522   8.461  19.913  0.00  0.00    +0.000 A 
ATOM     23  C   UNL     1       1.382   7.509  21.060  0.00  0.00    +0.000 C 
ATOM     24  N   UNL     1       1.073   9.723  20.119  0.00  0.00    +0.000 NA
ENDBRANCH  17  18
ENDBRANCH   6  17
BRANCH   7  25
ATOM     25  C   UNL     1      -1.304  11.293  22.519  0.00  0.00    +0.000 C 
BRANCH  25  26
ATOM     26  C   UNL     1      -0.738   9.985  23.036  0.00  0.00    +0.000 C 
BRANCH  26  27
ATOM     27  O   UNL     1       0.678  10.115  23.122  0.00  0.00    +0.000 OA
ATOM     28  H   UNL     1       0.890  10.406  24.025  0.00  0.00    +0.000 HD
ENDBRANCH  26  27
ENDBRANCH  25  26
ENDBRANCH   7  25
TORSDOF 7
ENDMDL
MODEL 7
REMARK VINA RESULT:      -5.7      2.298      8.059
REMARK  Name = 
REMARK  9 active torsions:
REMARK  status: ('A' for Active; 'I' for Inactive)
REMARK    1  A    between atoms: C_1  and  O_2
REMARK    2  A    between atoms: O_2  and  C_3
REMARK    3  A    between atoms: C_8  and  C_9
REMARK    4  A    between atoms: N_14  and  C_15
REMARK    5  A    between atoms: C_15  and  C_16
REMARK    6  A    between atoms: C_20  and  C_21
REMARK    7  A    between atoms: C_23  and  C_24
REMARK    8  A    between atoms: C_24  and  C_25
REMARK    9  A    between atoms: C_25  and  O_26
REMARK                            x       y       z     vdW  Elec       q    Type
REMARK                         _______ _______ _______ _____ _____    ______ ____
ROOT
ATOM      1  C   UNL     1      -1.988  13.085  19.874  0.00  0.00    +0.000 C 
ATOM      2  O   UNL     1      -1.656  14.261  19.696  0.00  0.00    +0.000 OA
ATOM      3  N   UNL     1      -1.081  12.046  19.641  0.00  0.00    +0.000 N 
ATOM      4  C   UNL     1       0.243  12.388  19.126  0.00  0.00    +0.000 C 
ATOM      5  C   UNL     1       1.350  11.593  19.847  0.00  0.00    +0.000 C 
ATOM      6  N   UNL     1       1.158  10.117  19.900  0.00  0.00    +0.000 NA
ATOM      7  C   UNL     1      -0.222   9.791  20.358  0.00  0.00    +0.000 C 
ATOM      8  C   UNL     1      -1.348  10.611  19.675  0.00  0.00    +0.000 C 
ENDROOT
BRANCH   1  14
ATOM      9  C   UNL     1      -3.679  12.806  21.780  0.00  0.00    +0.000 A 
ATOM     10  N   UNL     1      -4.940  12.549  22.229  0.00  0.00    +0.000 NA
ATOM     11  C   UNL     1      -5.892  12.286  21.310  0.00  0.00    +0.000 A 
ATOM     12  C   UNL     1      -5.652  12.276  19.952  0.00  0.00    +0.000 A 
ATOM     13  C   UNL     1      -4.368  12.595  19.513  0.00  0.00    +0.000 A 
ATOM     14  C   UNL     1      -3.348  12.896  20.434  0.00  0.00    +0.000 A 
BRANCH   9  16
ATOM     15  C   UNL     1      -3.188  13.208  24.032  0.00  0.00    +0.000 C 
ATOM     16  O   UNL     1      -2.689  12.946  22.727  0.00  0.00    +0.000 OA
ENDBRANCH   9  16
ENDBRANCH   1  14
BRANCH   6  17
ATOM     17  C   UNL     1       1.418   9.500  18.573  0.00  0.00    +0.000 C 
BRANCH  17  18
ATOM     18  C   UNL     1       2.229   8.215  18.614  0.00  0.00    +0.000 A 
ATOM     19  C   UNL     1       2.071   7.306  19.657  0.00  0.00    +0.000 A 
ATOM     20  C   UNL     1       2.876   6.172  19.682  0.00  0.00    +0.000 A 
ATOM     21  C   UNL     1       3.791   5.962  18.658  0.00  0.00    +0.000 A 
ATOM     22  C   UNL     1       3.865   6.888  17.625  0.00  0.00    +0.000 A 
ATOM     23  C   UNL     1       4.776   6.672  16.456  0.00  0.00    +0.000 C 
ATOM     24  N   UNL     1       3.108   8.012  17.599  0.00  0.00    +0.000 NA
ENDBRANCH  17  18
ENDBRANCH   6  17
BRANCH   7  25
ATOM     25  C   UNL     1      -0.384   9.923  21.888  0.00  0.00    +0.000 C 
BRANCH  25  26
ATOM     26  C   UNL     1       0.437   8.918  22.671  0.00  0.00    +0.000 C 
BRANCH  26  27
ATOM     27  O   UNL     1       1.804   9.317  22.610  0.00  0.00    +0.000 OA
ATOM     28  H   UNL     1       2.140   9.069  21.732  0.00  0.00    +0.000 HD
ENDBRANCH  26  27
ENDBRANCH  25  26
ENDBRANCH   7  25
TORSDOF 7
ENDMDL
MODEL 8
REMARK VINA RESULT:      -5.7      3.580      7.929
REMARK  Name = 
REMARK  9 active torsions:
REMARK  status: ('A' for Active; 'I' for Inactive)
REMARK    1  A    between atoms: C_1  and  O_2
REMARK    2  A    between atoms: O_2  and  C_3
REMARK    3  A    between atoms: C_8  and  C_9
REMARK    4  A    between atoms: N_14  and  C_15
REMARK    5  A    between atoms: C_15  and  C_16
REMARK    6  A    between atoms: C_20  and  C_21
REMARK    7  A    between atoms: C_23  and  C_24
REMARK    8  A    between atoms: C_24  and  C_25
REMARK    9  A    between atoms: C_25  and  O_26
REMARK                            x       y       z     vdW  Elec       q    Type
REMARK                         _______ _______ _______ _____ _____    ______ ____
ROOT
ATOM      1  C   UNL     1      -0.622  12.541  22.337  0.00  0.00    +0.000 C 
ATOM      2  O   UNL     1      -1.212  12.416  23.414  0.00  0.00    +0.000 OA
ATOM      3  N   UNL     1      -0.026  11.436  21.719  0.00  0.00    +0.000 N 
ATOM      4  C   UNL     1      -0.071  10.150  22.411  0.00  0.00    +0.000 C 
ATOM      5  C   UNL     1      -0.416   9.002  21.442  0.00  0.00    +0.000 C 
ATOM      6  N   UNL     1       0.417   8.921  20.210  0.00  0.00    +0.000 NA
ATOM      7  C   UNL     1       0.509  10.258  19.559  0.00  0.00    +0.000 C 
ATOM      8  C   UNL     1       0.814  11.435  20.524  0.00  0.00    +0.000 C 
ENDROOT
BRANCH   1  14
ATOM      9  C   UNL     1       0.311  14.855  21.748  0.00  0.00    +0.000 A 
ATOM     10  N   UNL     1       0.153  16.114  21.252  0.00  0.00    +0.000 NA
ATOM     11  C   UNL     1      -1.071  16.465  20.808  0.00  0.00    +0.000 A 
ATOM     12  C   UNL     1      -2.156  15.613  20.823  0.00  0.00    +0.000 A 
ATOM     13  C   UNL     1      -1.958  14.313  21.284  0.00  0.00    +0.000 A 
ATOM     14  C   UNL     1      -0.693  13.895  21.738  0.00  0.00    +0.000 A 
BRANCH   9  16
ATOM     15  C   UNL     1       2.543  15.500  22.026  0.00  0.00    +0.000 C 
ATOM     16  O   UNL     1       1.528  14.549  22.316  0.00  0.00    +0.000 OA
ENDBRANCH   9  16
ENDBRANCH   1  14
BRANCH   6  17
ATOM     17  C   UNL     1       1.776   8.407  20.521  0.00  0.00    +0.000 C 
BRANCH  17  18
ATOM     18  C   UNL     1       2.052   6.994  20.030  0.00  0.00    +0.000 A 
ATOM     19  C   UNL     1       1.499   5.893  20.679  0.00  0.00    +0.000 A 
ATOM     20  C   UNL     1       1.826   4.619  20.229  0.00  0.00    +0.000 A 
ATOM     21  C   UNL     1       2.666   4.477  19.132  0.00  0.00    +0.000 A 
ATOM     22  C   UNL     1       3.147   5.620  18.504  0.00  0.00    +0.000 A 
ATOM     23  C   UNL     1       3.991   5.528  17.271  0.00  0.00    +0.000 C 
ATOM     24  N   UNL     1       2.861   6.868  18.946  0.00  0.00    +0.000 NA
ENDBRANCH  17  18
ENDBRANCH   6  17
BRANCH   7  25
ATOM     25  C   UNL     1      -0.756  10.610  18.748  0.00  0.00    +0.000 C 
BRANCH  25  26
ATOM     26  C   UNL     1      -0.870  12.086  18.418  0.00  0.00    +0.000 C 
BRANCH  26  27
ATOM     27  O   UNL     1      -1.609  12.215  17.207  0.00  0.00    +0.000 OA
ATOM     28  H   UNL     1      -2.551  12.268  17.445  0.00  0.00    +0.000 HD
ENDBRANCH  26  27
ENDBRANCH  25  26
ENDBRANCH   7  25
TORSDOF 7
ENDMDL
MODEL 9
REMARK VINA RESULT:      -5.6      2.940      8.008
REMARK  Name = 
REMARK  9 active torsions:
REMARK  status: ('A' for Active; 'I' for Inactive)
REMARK    1  A    between atoms: C_1  and  O_2
REMARK    2  A    between atoms: O_2  and  C_3
REMARK    3  A    between atoms: C_8  and  C_9
REMARK    4  A    between atoms: N_14  and  C_15
REMARK    5  A    between atoms: C_15  and  C_16
REMARK    6  A    between atoms: C_20  and  C_21
REMARK    7  A    between atoms: C_23  and  C_24
REMARK    8  A    between atoms: C_24  and  C_25
REMARK    9  A    between atoms: C_25  and  O_26
REMARK                            x       y       z     vdW  Elec       q    Type
REMARK                         _______ _______ _______ _____ _____    ______ ____
ROOT
ATOM      1  C   UNL     1      -2.678  12.723  20.292  0.00  0.00    +0.000 C 
ATOM      2  O   UNL     1      -3.695  12.531  19.617  0.00  0.00    +0.000 OA
ATOM      3  N   UNL     1      -1.574  11.873  20.173  0.00  0.00    +0.000 N 
ATOM      4  C   UNL     1      -1.679  10.725  19.275  0.00  0.00    +0.000 C 
ATOM      5  C   UNL     1      -0.400  10.551  18.432  0.00  0.00    +0.000 C 
ATOM      6  N   UNL     1       0.880  10.523  19.194  0.00  0.00    +0.000 NA
ATOM      7  C   UNL     1       0.935  11.661  20.154  0.00  0.00    +0.000 C 
ATOM      8  C   UNL     1      -0.358  11.880  20.983  0.00  0.00    +0.000 C 
ENDROOT
BRANCH   1  14
ATOM      9  C   UNL     1      -3.437  14.135  22.292  0.00  0.00    +0.000 A 
ATOM     10  N   UNL     1      -3.483  15.316  22.970  0.00  0.00    +0.000 NA
ATOM     11  C   UNL     1      -2.850  16.376  22.429  0.00  0.00    +0.000 A 
ATOM     12  C   UNL     1      -2.156  16.317  21.238  0.00  0.00    +0.000 A 
ATOM     13  C   UNL     1      -2.076  15.085  20.589  0.00  0.00    +0.000 A 
ATOM     14  C   UNL     1      -2.704  13.947  21.127  0.00  0.00    +0.000 A 
BRANCH   9  16
ATOM     15  C   UNL     1      -3.598  12.442  23.900  0.00  0.00    +0.000 C 
ATOM     16  O   UNL     1      -4.193  13.094  22.786  0.00  0.00    +0.000 OA
ENDBRANCH   9  16
ENDBRANCH   1  14
BRANCH   6  17
ATOM     17  C   UNL     1       1.040   9.234  19.916  0.00  0.00    +0.000 C 
BRANCH  17  18
ATOM     18  C   UNL     1       1.963   8.233  19.238  0.00  0.00    +0.000 A 
ATOM     19  C   UNL     1       2.571   8.535  18.022  0.00  0.00    +0.000 A 
ATOM     20  C   UNL     1       3.362   7.566  17.412  0.00  0.00    +0.000 A 
ATOM     21  C   UNL     1       3.547   6.341  18.042  0.00  0.00    +0.000 A 
ATOM     22  C   UNL     1       2.946   6.124  19.276  0.00  0.00    +0.000 A 
ATOM     23  C   UNL     1       3.176   4.854  20.035  0.00  0.00    +0.000 C 
ATOM     24  N   UNL     1       2.151   7.046  19.871  0.00  0.00    +0.000 NA
ENDBRANCH  17  18
ENDBRANCH   6  17
BRANCH   7  25
ATOM     25  C   UNL     1       1.306  12.994  19.471  0.00  0.00    +0.000 C 
BRANCH  25  26
ATOM     26  C   UNL     1       2.606  12.933  18.694  0.00  0.00    +0.000 C 
BRANCH  26  27
ATOM     27  O   UNL     1       2.303  12.580  17.347  0.00  0.00    +0.000 OA
ATOM     28  H   UNL     1       2.264  11.610  17.302  0.00  0.00    +0.000 HD
ENDBRANCH  26  27
ENDBRANCH  25  26
ENDBRANCH   7  25
TORSDOF 7
ENDMDL
