MODEL 1
REMARK VINA RESULT:      -8.2      0.000      0.000
REMARK  Name = 
REMARK  7 active torsions:
REMARK  status: ('A' for Active; 'I' for Inactive)
REMARK    1  A    between atoms: C_1  and  O_2
REMARK    2  A    between atoms: O_2  and  C_3
REMARK    3  A    between atoms: C_6  and  C_7
REMARK    4  A    between atoms: C_7  and  C_9
REMARK    5  A    between atoms: C_9  and  C_10
REMARK    6  A    between atoms: C_9  and  C_17
REMARK    7  A    between atoms: C_10  and  N_11
REMARK                            x       y       z     vdW  Elec       q    Type
REMARK                         _______ _______ _______ _____ _____    ______ ____
ROOT
ATOM      1  C   UNL     1       3.873   5.605  18.472  0.00  0.00    +0.000 C 
ENDROOT
BRANCH   1   2
ATOM      2  C   UNL     1       2.730   4.673  18.990  0.00  0.00    +0.000 A 
ATOM      3  C   UNL     1       2.433   4.496  20.363  0.00  0.00    +0.000 A 
ATOM      4  C   UNL     1       1.445   3.602  20.791  0.00  0.00    +0.000 A 
ATOM      5  C   UNL     1       0.743   2.850  19.860  0.00  0.00    +0.000 A 
ATOM      6  C   UNL     1       0.994   3.014  18.496  0.00  0.00    +0.000 A 
ATOM      7  C   UNL     1       1.955   3.936  18.062  0.00  0.00    +0.000 A 
ENDBRANCH   1   2
BRANCH   1   8
ATOM      8  C   UNL     1       3.284   6.995  18.045  0.00  0.00    +0.000 C 
ATOM      9  O   UNL     1       3.729   7.414  16.986  0.00  0.00    +0.000 OA
BRANCH   8  13
ATOM     10  C   UNL     1       0.360   9.738  19.759  0.00  0.00    +0.000 A 
ATOM     11  C   UNL     1       0.712   9.794  18.402  0.00  0.00    +0.000 A 
ATOM     12  C   UNL     1       1.663   8.911  17.886  0.00  0.00    +0.000 A 
ATOM     13  C   UNL     1       2.272   7.918  18.684  0.00  0.00    +0.000 A 
ATOM     14  C   UNL     1       1.945   7.897  20.061  0.00  0.00    +0.000 A 
ATOM     15  C   UNL     1       1.013   8.810  20.584  0.00  0.00    +0.000 A 
BRANCH  10  17
ATOM     16  C   UNL     1      -1.005  11.774  19.865  0.00  0.00    +0.000 C 
ATOM     17  O   UNL     1      -0.613  10.526  20.313  0.00  0.00    +0.000 OA
ENDBRANCH  10  17
ENDBRANCH   8  13
ENDBRANCH   1   8
BRANCH   1  18
ATOM     18  C   UNL     1       5.203   5.493  19.359  0.00  0.00    +0.000 C 
BRANCH  18  19
ATOM     19  N   UNL     1       6.455   4.895  18.780  0.00  0.00    +0.000 NA
ATOM     20  C   UNL     1       7.648   5.788  18.945  0.00  0.00    +0.000 C 
ATOM     21  C   UNL     1       7.706   6.945  17.899  0.00  0.00    +0.000 C 
ATOM     22  O   UNL     1       7.623   6.443  16.579  0.00  0.00    +0.000 OA
ATOM     23  C   UNL     1       6.398   5.763  16.435  0.00  0.00    +0.000 C 
ATOM     24  C   UNL     1       6.387   4.521  17.350  0.00  0.00    +0.000 C 
ENDBRANCH  18  19
ENDBRANCH   1  18
TORSDOF 6
ENDMDL
MODEL 2
REMARK VINA RESULT:      -8.2      0.314      1.033
REMARK  Name = 
REMARK  7 active torsions:
REMARK  status: ('A' for Active; 'I' for Inactive)
REMARK    1  A    between atoms: C_1  and  O_2
REMARK    2  A    between atoms: O_2  and  C_3
REMARK    3  A    between atoms: C_6  and  C_7
REMARK    4  A    between atoms: C_7  and  C_9
REMARK    5  A    between atoms: C_9  and  C_10
REMARK    6  A    between atoms: C_9  and  C_17
REMARK    7  A    between atoms: C_10  and  N_11
REMARK                            x       y       z     vdW  Elec       q    Type
REMARK                         _______ _______ _______ _____ _____    ______ ____
ROOT
ATOM      1  C   UNL     1       3.962   5.461  18.452  0.00  0.00    +0.000 C 
ENDROOT
BRANCH   1   2
ATOM      2  C   UNL     1       2.833   4.497  18.944  0.00  0.00    +0.000 A 
ATOM      3  C   UNL     1       1.982   3.785  18.065  0.00  0.00    +0.000 A 
ATOM      4  C   UNL     1       0.939   2.982  18.544  0.00  0.00    +0.000 A 
ATOM      5  C   UNL     1       0.712   2.886  19.909  0.00  0.00    +0.000 A 
ATOM      6  C   UNL     1       1.545   3.558  20.806  0.00  0.00    +0.000 A 
ATOM      7  C   UNL     1       2.613   4.331  20.333  0.00  0.00    +0.000 A 
ENDBRANCH   1   2
BRANCH   1   8
ATOM      8  C   UNL     1       3.347   6.844  18.039  0.00  0.00    +0.000 C 
ATOM      9  O   UNL     1       3.744   7.255  16.958  0.00  0.00    +0.000 OA
BRANCH   8  13
ATOM     10  C   UNL     1       0.496   9.595  19.860  0.00  0.00    +0.000 A 
ATOM     11  C   UNL     1       0.854   9.697  18.507  0.00  0.00    +0.000 A 
ATOM     12  C   UNL     1       1.781   8.809  17.956  0.00  0.00    +0.000 A 
ATOM     13  C   UNL     1       2.360   7.768  18.714  0.00  0.00    +0.000 A 
ATOM     14  C   UNL     1       2.029   7.699  20.088  0.00  0.00    +0.000 A 
ATOM     15  C   UNL     1       1.121   8.616  20.646  0.00  0.00    +0.000 A 
BRANCH  10  17
ATOM     16  C   UNL     1      -0.263  11.662  20.941  0.00  0.00    +0.000 C 
ATOM     17  O   UNL     1      -0.456  10.386  20.444  0.00  0.00    +0.000 OA
ENDBRANCH  10  17
ENDBRANCH   8  13
ENDBRANCH   1   8
BRANCH   1  18
ATOM     18  C   UNL     1       5.285   5.363  19.350  0.00  0.00    +0.000 C 
BRANCH  18  19
ATOM     19  N   UNL     1       6.570   4.854  18.758  0.00  0.00    +0.000 NA
ATOM     20  C   UNL     1       7.713   5.801  18.963  0.00  0.00    +0.000 C 
ATOM     21  C   UNL     1       7.715   6.997  17.960  0.00  0.00    +0.000 C 
ATOM     22  O   UNL     1       7.665   6.540  16.622  0.00  0.00    +0.000 OA
ATOM     23  C   UNL     1       6.479   5.802  16.445  0.00  0.00    +0.000 C 
ATOM     24  C   UNL     1       6.529   4.529  17.315  0.00  0.00    +0.000 C 
ENDBRANCH  18  19
ENDBRANCH   1  18
TORSDOF 6
ENDMDL
MODEL 3
REMARK VINA RESULT:      -8.2      0.722      1.587
REMARK  Name = 
REMARK  7 active torsions:
REMARK  status: ('A' for Active; 'I' for Inactive)
REMARK    1  A    between atoms: C_1  and  O_2
REMARK    2  A    between atoms: O_2  and  C_3
REMARK    3  A    between atoms: C_6  and  C_7
REMARK    4  A    between atoms: C_7  and  C_9
REMARK    5  A    between atoms: C_9  and  C_10
REMARK    6  A    between atoms: C_9  and  C_17
REMARK    7  A    between atoms: C_10  and  N_11
REMARK                            x       y       z     vdW  Elec       q    Type
REMARK                         _______ _______ _______ _____ _____    ______ ____
ROOT
ATOM      1  C   UNL     1       3.845   5.590  18.511  0.00  0.00    +0.000 C 
ENDROOT
BRANCH   1   2
ATOM      2  C   UNL     1       2.764   4.562  18.981  0.00  0.00    +0.000 A 
ATOM      3  C   UNL     1       1.854   3.934  18.097  0.00  0.00    +0.000 A 
ATOM      4  C   UNL     1       0.857   3.069  18.564  0.00  0.00    +0.000 A 
ATOM      5  C   UNL     1       0.735   2.825  19.925  0.00  0.00    +0.000 A 
ATOM      6  C   UNL     1       1.629   3.411  20.823  0.00  0.00    +0.000 A 
ATOM      7  C   UNL     1       2.651   4.247  20.357  0.00  0.00    +0.000 A 
ENDBRANCH   1   2
BRANCH   1   8
ATOM      8  C   UNL     1       3.172   6.971  18.192  0.00  0.00    +0.000 C 
ATOM      9  O   UNL     1       3.461   7.417  17.091  0.00  0.00    +0.000 OA
BRANCH   8  13
ATOM     10  C   UNL     1       0.477   9.435  20.575  0.00  0.00    +0.000 A 
ATOM     11  C   UNL     1       1.091   8.292  21.108  0.00  0.00    +0.000 A 
ATOM     12  C   UNL     1       1.939   7.515  20.315  0.00  0.00    +0.000 A 
ATOM     13  C   UNL     1       2.237   7.860  18.979  0.00  0.00    +0.000 A 
ATOM     14  C   UNL     1       1.578   8.988  18.434  0.00  0.00    +0.000 A 
ATOM     15  C   UNL     1       0.700   9.748  19.226  0.00  0.00    +0.000 A 
BRANCH  10  17
ATOM     16  C   UNL     1      -0.464  10.249  22.690  0.00  0.00    +0.000 C 
ATOM     17  O   UNL     1      -0.307  10.277  21.316  0.00  0.00    +0.000 OA
ENDBRANCH  10  17
ENDBRANCH   8  13
ENDBRANCH   1   8
BRANCH   1  18
ATOM     18  C   UNL     1       5.198   5.490  19.364  0.00  0.00    +0.000 C 
BRANCH  18  19
ATOM     19  N   UNL     1       6.437   4.893  18.757  0.00  0.00    +0.000 NA
ATOM     20  C   UNL     1       7.650   5.747  18.970  0.00  0.00    +0.000 C 
ATOM     21  C   UNL     1       7.740   6.955  17.986  0.00  0.00    +0.000 C 
ATOM     22  O   UNL     1       7.649   6.524  16.642  0.00  0.00    +0.000 OA
ATOM     23  C   UNL     1       6.409   5.882  16.460  0.00  0.00    +0.000 C 
ATOM     24  C   UNL     1       6.364   4.595  17.309  0.00  0.00    +0.000 C 
ENDBRANCH  18  19
ENDBRANCH   1  18
TORSDOF 6
ENDMDL
MODEL 4
REMARK VINA RESULT:      -8.1      0.286      1.024
REMARK  Name = 
REMARK  7 active torsions:
REMARK  status: ('A' for Active; 'I' for Inactive)
REMARK    1  A    between atoms: C_1  and  O_2
REMARK    2  A    between atoms: O_2  and  C_3
REMARK    3  A    between atoms: C_6  and  C_7
REMARK    4  A    between atoms: C_7  and  C_9
REMARK    5  A    between atoms: C_9  and  C_10
REMARK    6  A    between atoms: C_9  and  C_17
REMARK    7  A    between atoms: C_10  and  N_11
REMARK                            x       y       z     vdW  Elec       q    Type
REMARK                         _______ _______ _______ _____ _____    ______ ____
ROOT
ATOM      1  C   UNL     1       3.977   5.503  18.449  0.00  0.00    +0.000 C 
ENDROOT
BRANCH   1   2
ATOM      2  C   UNL     1       2.832   4.578  18.977  0.00  0.00    +0.000 A 
ATOM      3  C   UNL     1       2.644   4.282  20.349  0.00  0.00    +0.000 A 
ATOM      4  C   UNL     1       1.648   3.396  20.778  0.00  0.00    +0.000 A 
ATOM      5  C   UNL     1       0.829   2.773  19.848  0.00  0.00    +0.000 A 
ATOM      6  C   UNL     1       0.972   3.058  18.488  0.00  0.00    +0.000 A 
ATOM      7  C   UNL     1       1.942   3.972  18.058  0.00  0.00    +0.000 A 
ENDBRANCH   1   2
BRANCH   1   8
ATOM      8  C   UNL     1       3.384   6.873  17.969  0.00  0.00    +0.000 C 
ATOM      9  O   UNL     1       3.790   7.228  16.871  0.00  0.00    +0.000 OA
BRANCH   8  13
ATOM     10  C   UNL     1       0.570   9.587  19.902  0.00  0.00    +0.000 A 
ATOM     11  C   UNL     1       1.186   8.543  20.607  0.00  0.00    +0.000 A 
ATOM     12  C   UNL     1       2.072   7.681  19.956  0.00  0.00    +0.000 A 
ATOM     13  C   UNL     1       2.408   7.843  18.595  0.00  0.00    +0.000 A 
ATOM     14  C   UNL     1       1.748   8.870  17.878  0.00  0.00    +0.000 A 
ATOM     15  C   UNL     1       0.832   9.714  18.529  0.00  0.00    +0.000 A 
BRANCH  10  17
ATOM     16  C   UNL     1      -0.134  11.882  20.405  0.00  0.00    +0.000 C 
ATOM     17  O   UNL     1      -0.252  10.507  20.493  0.00  0.00    +0.000 OA
ENDBRANCH  10  17
ENDBRANCH   8  13
ENDBRANCH   1   8
BRANCH   1  18
ATOM     18  C   UNL     1       5.293   5.428  19.360  0.00  0.00    +0.000 C 
BRANCH  18  19
ATOM     19  N   UNL     1       6.583   4.906  18.792  0.00  0.00    +0.000 NA
ATOM     20  C   UNL     1       7.710   5.883  18.931  0.00  0.00    +0.000 C 
ATOM     21  C   UNL     1       7.687   7.016  17.857  0.00  0.00    +0.000 C 
ATOM     22  O   UNL     1       7.637   6.478  16.550  0.00  0.00    +0.000 OA
ATOM     23  C   UNL     1       6.462   5.711  16.426  0.00  0.00    +0.000 C 
ATOM     24  C   UNL     1       6.539   4.493  17.371  0.00  0.00    +0.000 C 
ENDBRANCH  18  19
ENDBRANCH   1  18
TORSDOF 6
ENDMDL
MODEL 5
REMARK VINA RESULT:      -8.0      1.118      1.848
REMARK  Name = 
REMARK  7 active torsions:
REMARK  status: ('A' for Active; 'I' for Inactive)
REMARK    1  A    between atoms: C_1  and  O_2
REMARK    2  A    between atoms: O_2  and  C_3
REMARK    3  A    between atoms: C_6  and  C_7
REMARK    4  A    between atoms: C_7  and  C_9
REMARK    5  A    between atoms: C_9  and  C_10
REMARK    6  A    between atoms: C_9  and  C_17
REMARK    7  A    between atoms: C_10  and  N_11
REMARK                            x       y       z     vdW  Elec       q    Type
REMARK                         _______ _______ _______ _____ _____    ______ ____
ROOT
ATOM      1  C   UNL     1       3.559   5.994  18.190  0.00  0.00    +0.000 C 
ENDROOT
BRANCH   1   2
ATOM      2  C   UNL     1       2.601   4.961  18.868  0.00  0.00    +0.000 A 
ATOM      3  C   UNL     1       2.660   4.635  20.245  0.00  0.00    +0.000 A 
ATOM      4  C   UNL     1       1.828   3.656  20.803  0.00  0.00    +0.000 A 
ATOM      5  C   UNL     1       0.933   2.968  19.997  0.00  0.00    +0.000 A 
ATOM      6  C   UNL     1       0.834   3.278  18.639  0.00  0.00    +0.000 A 
ATOM      7  C   UNL     1       1.636   4.283  18.084  0.00  0.00    +0.000 A 
ENDBRANCH   1   2
BRANCH   1   8
ATOM      8  C   UNL     1       2.848   7.386  18.064  0.00  0.00    +0.000 C 
ATOM      9  O   UNL     1       3.036   7.940  16.990  0.00  0.00    +0.000 OA
BRANCH   8  13
ATOM     10  C   UNL     1       0.349   9.568  20.894  0.00  0.00    +0.000 A 
ATOM     11  C   UNL     1       1.070   8.428  21.278  0.00  0.00    +0.000 A 
ATOM     12  C   UNL     1       1.851   7.742  20.344  0.00  0.00    +0.000 A 
ATOM     13  C   UNL     1       1.974   8.180  19.009  0.00  0.00    +0.000 A 
ATOM     14  C   UNL     1       1.209   9.304  18.617  0.00  0.00    +0.000 A 
ATOM     15  C   UNL     1       0.398   9.971  19.551  0.00  0.00    +0.000 A 
BRANCH  10  17
ATOM     16  C   UNL     1      -0.601  10.037  23.107  0.00  0.00    +0.000 C 
ATOM     17  O   UNL     1      -0.378  10.325  21.773  0.00  0.00    +0.000 OA
ENDBRANCH  10  17
ENDBRANCH   8  13
ENDBRANCH   1   8
BRANCH   1  18
ATOM     18  C   UNL     1       5.068   5.864  18.713  0.00  0.00    +0.000 C 
BRANCH  18  19
ATOM     19  N   UNL     1       6.204   6.431  17.908  0.00  0.00    +0.000 NA
ATOM     20  C   UNL     1       6.106   6.087  16.453  0.00  0.00    +0.000 C 
ATOM     21  C   UNL     1       6.585   4.638  16.125  0.00  0.00    +0.000 C 
ATOM     22  O   UNL     1       7.892   4.410  16.616  0.00  0.00    +0.000 OA
ATOM     23  C   UNL     1       7.880   4.577  18.014  0.00  0.00    +0.000 C 
ATOM     24  C   UNL     1       7.562   6.048  18.355  0.00  0.00    +0.000 C 
ENDBRANCH  18  19
ENDBRANCH   1  18
TORSDOF 6
ENDMDL
MODEL 6
REMARK VINA RESULT:      -7.9      1.057      1.108
REMARK  Name = 
REMARK  7 active torsions:
REMARK  status: ('A' for Active; 'I' for Inactive)
REMARK    1  A    between atoms: C_1  and  O_2
REMARK    2  A    between atoms: O_2  and  C_3
REMARK    3  A    between atoms: C_6  and  C_7
REMARK    4  A    between atoms: C_7  and  C_9
REMARK    5  A    between atoms: C_9  and  C_10
REMARK    6  A    between atoms: C_9  and  C_17
REMARK    7  A    between atoms: C_10  and  N_11
REMARK                            x       y       z     vdW  Elec       q    Type
REMARK                         _______ _______ _______ _____ _____    ______ ____
ROOT
ATOM      1  C   UNL     1       4.506   5.321  18.138  0.00  0.00    +0.000 C 
ENDROOT
BRANCH   1   2
ATOM      2  C   UNL     1       3.468   4.174  18.362  0.00  0.00    +0.000 A 
ATOM      3  C   UNL     1       3.815   2.903  18.881  0.00  0.00    +0.000 A 
ATOM      4  C   UNL     1       2.869   1.878  19.005  0.00  0.00    +0.000 A 
ATOM      5  C   UNL     1       1.560   2.092  18.598  0.00  0.00    +0.000 A 
ATOM      6  C   UNL     1       1.178   3.340  18.102  0.00  0.00    +0.000 A 
ATOM      7  C   UNL     1       2.111   4.380  18.012  0.00  0.00    +0.000 A 
ENDBRANCH   1   2
BRANCH   1   8
ATOM      8  C   UNL     1       3.766   6.650  17.756  0.00  0.00    +0.000 C 
ATOM      9  O   UNL     1       4.045   7.066  16.640  0.00  0.00    +0.000 OA
BRANCH   8  13
ATOM     10  C   UNL     1       0.913   9.258  19.775  0.00  0.00    +0.000 A 
ATOM     11  C   UNL     1       1.330   9.505  18.459  0.00  0.00    +0.000 A 
ATOM     12  C   UNL     1       2.256   8.659  17.844  0.00  0.00    +0.000 A 
ATOM     13  C   UNL     1       2.776   7.520  18.496  0.00  0.00    +0.000 A 
ATOM     14  C   UNL     1       2.386   7.303  19.839  0.00  0.00    +0.000 A 
ATOM     15  C   UNL     1       1.479   8.175  20.465  0.00  0.00    +0.000 A 
BRANCH  10  17
ATOM     16  C   UNL     1       0.046  11.349  20.719  0.00  0.00    +0.000 C 
ATOM     17  O   UNL     1      -0.042  10.004  20.411  0.00  0.00    +0.000 OA
ENDBRANCH  10  17
ENDBRANCH   8  13
ENDBRANCH   1   8
BRANCH   1  18
ATOM     18  C   UNL     1       5.688   5.297  19.220  0.00  0.00    +0.000 C 
BRANCH  18  19
ATOM     19  N   UNL     1       7.118   5.149  18.782  0.00  0.00    +0.000 NA
ATOM     20  C   UNL     1       7.854   6.455  18.770  0.00  0.00    +0.000 C 
ATOM     21  C   UNL     1       7.549   7.327  17.512  0.00  0.00    +0.000 C 
ATOM     22  O   UNL     1       7.780   6.601  16.320  0.00  0.00    +0.000 OA
ATOM     23  C   UNL     1       6.931   5.477  16.309  0.00  0.00    +0.000 C 
ATOM     24  C   UNL     1       7.323   4.523  17.456  0.00  0.00    +0.000 C 
ENDBRANCH  18  19
ENDBRANCH   1  18
TORSDOF 6
ENDMDL
MODEL 7
REMARK VINA RESULT:      -7.9      1.046      1.770
REMARK  Name = 
REMARK  7 active torsions:
REMARK  status: ('A' for Active; 'I' for Inactive)
REMARK    1  A    between atoms: C_1  and  O_2
REMARK    2  A    between atoms: O_2  and  C_3
REMARK    3  A    between atoms: C_6  and  C_7
REMARK    4  A    between atoms: C_7  and  C_9
REMARK    5  A    between atoms: C_9  and  C_10
REMARK    6  A    between atoms: C_9  and  C_17
REMARK    7  A    between atoms: C_10  and  N_11
REMARK                            x       y       z     vdW  Elec       q    Type
REMARK                         _______ _______ _______ _____ _____    ______ ____
ROOT
ATOM      1  C   UNL     1       3.554   6.020  18.156  0.00  0.00    +0.000 C 
ENDROOT
BRANCH   1   2
ATOM      2  C   UNL     1       2.612   4.954  18.803  0.00  0.00    +0.000 A 
ATOM      3  C   UNL     1       1.636   4.235  18.073  0.00  0.00    +0.000 A 
ATOM      4  C   UNL     1       0.765   3.335  18.701  0.00  0.00    +0.000 A 
ATOM      5  C   UNL     1       0.838   3.146  20.073  0.00  0.00    +0.000 A 
ATOM      6  C   UNL     1       1.803   3.823  20.821  0.00  0.00    +0.000 A 
ATOM      7  C   UNL     1       2.701   4.694  20.193  0.00  0.00    +0.000 A 
ENDBRANCH   1   2
BRANCH   1   8
ATOM      8  C   UNL     1       2.830   7.410  18.090  0.00  0.00    +0.000 C 
ATOM      9  O   UNL     1       3.042   8.028  17.056  0.00  0.00    +0.000 OA
BRANCH   8  13
ATOM     10  C   UNL     1       0.183   9.614  20.764  0.00  0.00    +0.000 A 
ATOM     11  C   UNL     1       0.340   9.982  19.420  0.00  0.00    +0.000 A 
ATOM     12  C   UNL     1       1.207   9.264  18.592  0.00  0.00    +0.000 A 
ATOM     13  C   UNL     1       1.920   8.138  19.054  0.00  0.00    +0.000 A 
ATOM     14  C   UNL     1       1.792   7.800  20.423  0.00  0.00    +0.000 A 
ATOM     15  C   UNL     1       0.944   8.545  21.261  0.00  0.00    +0.000 A 
BRANCH  10  17
ATOM     16  C   UNL     1      -0.494  11.421  22.279  0.00  0.00    +0.000 C 
ATOM     17  O   UNL     1      -0.701  10.229  21.610  0.00  0.00    +0.000 OA
ENDBRANCH  10  17
ENDBRANCH   8  13
ENDBRANCH   1   8
BRANCH   1  18
ATOM     18  C   UNL     1       5.070   5.884  18.658  0.00  0.00    +0.000 C 
BRANCH  18  19
ATOM     19  N   UNL     1       6.198   6.436  17.832  0.00  0.00    +0.000 NA
ATOM     20  C   UNL     1       6.096   6.049  16.388  0.00  0.00    +0.000 C 
ATOM     21  C   UNL     1       6.584   4.595  16.098  0.00  0.00    +0.000 C 
ATOM     22  O   UNL     1       7.895   4.390  16.589  0.00  0.00    +0.000 OA
ATOM     23  C   UNL     1       7.888   4.598  17.982  0.00  0.00    +0.000 C 
ATOM     24  C   UNL     1       7.561   6.076  18.283  0.00  0.00    +0.000 C 
ENDBRANCH  18  19
ENDBRANCH   1  18
TORSDOF 6
ENDMDL
MODEL 8
REMARK VINA RESULT:      -7.8      1.341      1.773
REMARK  Name = 
REMARK  7 active torsions:
REMARK  status: ('A' for Active; 'I' for Inactive)
REMARK    1  A    between atoms: C_1  and  O_2
REMARK    2  A    between atoms: O_2  and  C_3
REMARK    3  A    between atoms: C_6  and  C_7
REMARK    4  A    between atoms: C_7  and  C_9
REMARK    5  A    between atoms: C_9  and  C_10
REMARK    6  A    between atoms: C_9  and  C_17
REMARK    7  A    between atoms: C_10  and  N_11
REMARK                            x       y       z     vdW  Elec       q    Type
REMARK                         _______ _______ _______ _____ _____    ______ ____
ROOT
ATOM      1  C   UNL     1       3.209   6.150  18.245  0.00  0.00    +0.000 C 
ENDROOT
BRANCH   1   2
ATOM      2  C   UNL     1       2.376   5.052  18.984  0.00  0.00    +0.000 A 
ATOM      3  C   UNL     1       2.470   4.811  20.376  0.00  0.00    +0.000 A 
ATOM      4  C   UNL     1       1.757   3.775  20.990  0.00  0.00    +0.000 A 
ATOM      5  C   UNL     1       0.949   2.944  20.228  0.00  0.00    +0.000 A 
ATOM      6  C   UNL     1       0.816   3.166  18.856  0.00  0.00    +0.000 A 
ATOM      7  C   UNL     1       1.497   4.225  18.243  0.00  0.00    +0.000 A 
ENDBRANCH   1   2
BRANCH   1   8
ATOM      8  C   UNL     1       2.445   7.520  18.279  0.00  0.00    +0.000 C 
ATOM      9  O   UNL     1       2.290   8.024  17.177  0.00  0.00    +0.000 OA
BRANCH   8  13
ATOM     10  C   UNL     1       0.752  10.002  21.440  0.00  0.00    +0.000 A 
ATOM     11  C   UNL     1       0.822  10.450  20.112  0.00  0.00    +0.000 A 
ATOM     12  C   UNL     1       1.383   9.636  19.125  0.00  0.00    +0.000 A 
ATOM     13  C   UNL     1       1.862   8.339  19.408  0.00  0.00    +0.000 A 
ATOM     14  C   UNL     1       1.830   7.912  20.757  0.00  0.00    +0.000 A 
ATOM     15  C   UNL     1       1.295   8.746  21.753  0.00  0.00    +0.000 A 
BRANCH  10  17
ATOM     16  C   UNL     1      -1.036  10.400  23.071  0.00  0.00    +0.000 C 
ATOM     17  O   UNL     1       0.152  10.718  22.441  0.00  0.00    +0.000 OA
ENDBRANCH  10  17
ENDBRANCH   8  13
ENDBRANCH   1   8
BRANCH   1  18
ATOM     18  C   UNL     1       4.775   6.052  18.570  0.00  0.00    +0.000 C 
BRANCH  18  19
ATOM     19  N   UNL     1       5.790   6.566  17.587  0.00  0.00    +0.000 NA
ATOM     20  C   UNL     1       5.611   5.985  16.218  0.00  0.00    +0.000 C 
ATOM     21  C   UNL     1       6.191   4.543  16.075  0.00  0.00    +0.000 C 
ATOM     22  O   UNL     1       7.547   4.498  16.475  0.00  0.00    +0.000 OA
ATOM     23  C   UNL     1       7.629   4.888  17.826  0.00  0.00    +0.000 C 
ATOM     24  C   UNL     1       7.207   6.366  17.963  0.00  0.00    +0.000 C 
ENDBRANCH  18  19
ENDBRANCH   1  18
TORSDOF 6
ENDMDL
MODEL 9
REMARK VINA RESULT:      -7.7      1.307      2.190
REMARK  Name = 
REMARK  7 active torsions:
REMARK  status: ('A' for Active; 'I' for Inactive)
REMARK    1  A    between atoms: C_1  and  O_2
REMARK    2  A    between atoms: O_2  and  C_3
REMARK    3  A    between atoms: C_6  and  C_7
REMARK    4  A    between atoms: C_7  and  C_9
REMARK    5  A    between atoms: C_9  and  C_10
REMARK    6  A    between atoms: C_9  and  C_17
REMARK    7  A    between atoms: C_10  and  N_11
REMARK                            x       y       z     vdW  Elec       q    Type
REMARK                         _______ _______ _______ _____ _____    ______ ____
ROOT
ATOM      1  C   UNL     1       3.337   5.926  18.337  0.00  0.00    +0.000 C 
ENDROOT
BRANCH   1   2
ATOM      2  C   UNL     1       2.516   4.856  19.128  0.00  0.00    +0.000 A 
ATOM      3  C   UNL     1       1.483   4.083  18.545  0.00  0.00    +0.000 A 
ATOM      4  C   UNL     1       0.726   3.182  19.303  0.00  0.00    +0.000 A 
ATOM      5  C   UNL     1       0.971   3.043  20.662  0.00  0.00    +0.000 A 
ATOM      6  C   UNL     1       1.997   3.774  21.265  0.00  0.00    +0.000 A 
ATOM      7  C   UNL     1       2.781   4.648  20.504  0.00  0.00    +0.000 A 
ENDBRANCH   1   2
BRANCH   1   8
ATOM      8  C   UNL     1       2.531   7.270  18.253  0.00  0.00    +0.000 C 
ATOM      9  O   UNL     1       2.369   7.676  17.112  0.00  0.00    +0.000 OA
BRANCH   8  13
ATOM     10  C   UNL     1       0.762   9.727  21.392  0.00  0.00    +0.000 A 
ATOM     11  C   UNL     1       1.294   8.458  21.665  0.00  0.00    +0.000 A 
ATOM     12  C   UNL     1       1.841   7.689  20.635  0.00  0.00    +0.000 A 
ATOM     13  C   UNL     1       1.914   8.161  19.307  0.00  0.00    +0.000 A 
ATOM     14  C   UNL     1       1.334   9.422  19.031  0.00  0.00    +0.000 A 
ATOM     15  C   UNL     1       0.754  10.179  20.064  0.00  0.00    +0.000 A 
BRANCH  10  17
ATOM     16  C   UNL     1      -0.907  10.395  23.061  0.00  0.00    +0.000 C 
ATOM     17  O   UNL     1       0.275  10.559  22.364  0.00  0.00    +0.000 OA
ENDBRANCH  10  17
ENDBRANCH   8  13
ENDBRANCH   1   8
BRANCH   1  18
ATOM     18  C   UNL     1       4.895   5.902  18.710  0.00  0.00    +0.000 C 
BRANCH  18  19
ATOM     19  N   UNL     1       5.913   6.470  17.761  0.00  0.00    +0.000 NA
ATOM     20  C   UNL     1       5.681   6.042  16.344  0.00  0.00    +0.000 C 
ATOM     21  C   UNL     1       6.192   4.599  16.040  0.00  0.00    +0.000 C 
ATOM     22  O   UNL     1       7.552   4.453  16.401  0.00  0.00    +0.000 OA
ATOM     23  C   UNL     1       7.677   4.697  17.782  0.00  0.00    +0.000 C 
ATOM     24  C   UNL     1       7.327   6.170  18.080  0.00  0.00    +0.000 C 
ENDBRANCH  18  19
ENDBRANCH   1  18
TORSDOF 6
ENDMDL
