MODEL 1
REMARK VINA RESULT:      -7.5      0.000      0.000
REMARK  Name = 
REMARK  6 active torsions:
REMARK  status: ('A' for Active; 'I' for Inactive)
REMARK    1  A    between atoms: C_1  and  C_2
REMARK    2  A    between atoms: C_2  and  C_3
REMARK    3  A    between atoms: C_3  and  C_4
REMARK    4  A    between atoms: N_6  and  C_7
REMARK    5  A    between atoms: C_16  and  O_17
REMARK    6  A    between atoms: O_17  and  C_18
REMARK                            x       y       z     vdW  Elec       q    Type
REMARK                         _______ _______ _______ _____ _____    ______ ____
ROOT
ATOM      1  C   UNL     1       5.013   4.688  17.114  0.00  0.00    +0.000 C 
ATOM      2  C   UNL     1       4.778   3.504  18.069  0.00  0.00    +0.000 C 
ATOM      3  C   UNL     1       3.822   3.711  19.214  0.00  0.00    +0.000 A 
ATOM      4  C   UNL     1       3.595   2.625  20.083  0.00  0.00    +0.000 A 
ATOM      5  C   UNL     1       2.729   2.744  21.165  0.00  0.00    +0.000 A 
ATOM      6  C   UNL     1       2.078   3.952  21.395  0.00  0.00    +0.000 A 
ATOM      7  C   UNL     1       2.289   5.050  20.549  0.00  0.00    +0.000 A 
ATOM      8  C   UNL     1       1.631   6.262  20.791  0.00  0.00    +0.000 A 
ATOM      9  C   UNL     1       1.838   7.368  19.967  0.00  0.00    +0.000 A 
ATOM     10  C   UNL     1       2.708   7.273  18.884  0.00  0.00    +0.000 A 
ATOM     11  C   UNL     1       3.376   6.056  18.617  0.00  0.00    +0.000 A 
ATOM     12  C   UNL     1       3.174   4.938  19.444  0.00  0.00    +0.000 A 
ATOM     13  C   UNL     1       4.307   6.008  17.435  0.00  0.00    +0.000 C 
ENDROOT
BRANCH   1  16
ATOM     14  C   UNL     1       5.706   4.396  14.740  0.00  0.00    +0.000 C 
ATOM     15  O   UNL     1       6.835   4.829  14.952  0.00  0.00    +0.000 OA
ATOM     16  N   UNL     1       4.742   4.312  15.718  0.00  0.00    +0.000 N 
ATOM     17  H   UNL     1       3.860   3.861  15.505  0.00  0.00    +0.000 HD
BRANCH  14  18
ATOM     18  C   UNL     1       5.232   3.961  13.368  0.00  0.00    +0.000 C 
BRANCH  18  20
ATOM     19  C   UNL     1       5.988   2.310  11.610  0.00  0.00    +0.000 C 
ATOM     20  C   UNL     1       6.400   3.444  12.531  0.00  0.00    +0.000 C 
ENDBRANCH  18  20
ENDBRANCH  14  18
ENDBRANCH   1  16
BRANCH  10  21
ATOM     21  O   UNL     1       2.987   8.296  18.013  0.00  0.00    +0.000 OA
ATOM     22  C   UNL     1       1.969   9.256  17.765  0.00  0.00    +0.000 C 
ENDBRANCH  10  21
TORSDOF 4
ENDMDL
MODEL 2
REMARK VINA RESULT:      -7.2      2.795      6.552
REMARK  Name = 
REMARK  6 active torsions:
REMARK  status: ('A' for Active; 'I' for Inactive)
REMARK    1  A    between atoms: C_1  and  C_2
REMARK    2  A    between atoms: C_2  and  C_3
REMARK    3  A    between atoms: C_3  and  C_4
REMARK    4  A    between atoms: N_6  and  C_7
REMARK    5  A    between atoms: C_16  and  O_17
REMARK    6  A    between atoms: O_17  and  C_18
REMARK                            x       y       z     vdW  Elec       q    Type
REMARK                         _______ _______ _______ _____ _____    ______ ____
ROOT
ATOM      1  C   UNL     1       2.815   7.647  18.329  0.00  0.00    +0.000 C 
ATOM      2  C   UNL     1       3.992   7.547  17.344  0.00  0.00    +0.000 C 
ATOM      3  C   UNL     1       4.435   6.170  16.922  0.00  0.00    +0.000 A 
ATOM      4  C   UNL     1       5.504   6.076  16.009  0.00  0.00    +0.000 A 
ATOM      5  C   UNL     1       5.969   4.837  15.580  0.00  0.00    +0.000 A 
ATOM      6  C   UNL     1       5.372   3.675  16.057  0.00  0.00    +0.000 A 
ATOM      7  C   UNL     1       4.310   3.740  16.970  0.00  0.00    +0.000 A 
ATOM      8  C   UNL     1       3.718   2.564  17.447  0.00  0.00    +0.000 A 
ATOM      9  C   UNL     1       2.668   2.609  18.363  0.00  0.00    +0.000 A 
ATOM     10  C   UNL     1       2.193   3.838  18.814  0.00  0.00    +0.000 A 
ATOM     11  C   UNL     1       2.771   5.037  18.339  0.00  0.00    +0.000 A 
ATOM     12  C   UNL     1       3.831   5.000  17.416  0.00  0.00    +0.000 A 
ATOM     13  C   UNL     1       2.222   6.339  18.859  0.00  0.00    +0.000 C 
ENDROOT
BRANCH   1  16
ATOM     14  C   UNL     1       1.013   9.345  18.597  0.00  0.00    +0.000 C 
ATOM     15  O   UNL     1       1.181   9.422  19.811  0.00  0.00    +0.000 OA
ATOM     16  N   UNL     1       1.738   8.495  17.795  0.00  0.00    +0.000 N 
ATOM     17  H   UNL     1       1.620   8.542  16.790  0.00  0.00    +0.000 HD
BRANCH  14  18
ATOM     18  C   UNL     1      -0.048  10.135  17.859  0.00  0.00    +0.000 C 
BRANCH  18  20
ATOM     19  C   UNL     1      -2.571   9.971  17.892  0.00  0.00    +0.000 C 
ATOM     20  C   UNL     1      -1.317  10.255  18.700  0.00  0.00    +0.000 C 
ENDBRANCH  18  20
ENDBRANCH  14  18
ENDBRANCH   1  16
BRANCH  10  21
ATOM     21  O   UNL     1       1.171   3.999  19.714  0.00  0.00    +0.000 OA
ATOM     22  C   UNL     1       1.259   3.307  20.952  0.00  0.00    +0.000 C 
ENDBRANCH  10  21
TORSDOF 4
ENDMDL
MODEL 3
REMARK VINA RESULT:      -6.8      3.025      4.429
REMARK  Name = 
REMARK  6 active torsions:
REMARK  status: ('A' for Active; 'I' for Inactive)
REMARK    1  A    between atoms: C_1  and  C_2
REMARK    2  A    between atoms: C_2  and  C_3
REMARK    3  A    between atoms: C_3  and  C_4
REMARK    4  A    between atoms: N_6  and  C_7
REMARK    5  A    between atoms: C_16  and  O_17
REMARK    6  A    between atoms: O_17  and  C_18
REMARK                            x       y       z     vdW  Elec       q    Type
REMARK                         _______ _______ _______ _____ _____    ______ ____
ROOT
ATOM      1  C   UNL     1       5.692   4.453  14.493  0.00  0.00    +0.000 C 
ATOM      2  C   UNL     1       6.705   5.456  15.072  0.00  0.00    +0.000 C 
ATOM      3  C   UNL     1       6.770   5.596  16.570  0.00  0.00    +0.000 A 
ATOM      4  C   UNL     1       7.705   6.504  17.104  0.00  0.00    +0.000 A 
ATOM      5  C   UNL     1       7.817   6.690  18.478  0.00  0.00    +0.000 A 
ATOM      6  C   UNL     1       6.995   5.970  19.339  0.00  0.00    +0.000 A 
ATOM      7  C   UNL     1       6.052   5.063  18.834  0.00  0.00    +0.000 A 
ATOM      8  C   UNL     1       5.227   4.345  19.709  0.00  0.00    +0.000 A 
ATOM      9  C   UNL     1       4.276   3.448  19.224  0.00  0.00    +0.000 A 
ATOM     10  C   UNL     1       4.140   3.254  17.852  0.00  0.00    +0.000 A 
ATOM     11  C   UNL     1       4.969   3.962  16.952  0.00  0.00    +0.000 A 
ATOM     12  C   UNL     1       5.928   4.870  17.432  0.00  0.00    +0.000 A 
ATOM     13  C   UNL     1       4.780   3.718  15.478  0.00  0.00    +0.000 C 
ENDROOT
BRANCH   1  16
ATOM     14  C   UNL     1       5.823   3.132  12.386  0.00  0.00    +0.000 C 
ATOM     15  O   UNL     1       4.757   3.575  11.969  0.00  0.00    +0.000 OA
ATOM     16  N   UNL     1       6.349   3.477  13.609  0.00  0.00    +0.000 N 
ATOM     17  H   UNL     1       7.276   3.152  13.859  0.00  0.00    +0.000 HD
BRANCH  14  18
ATOM     18  C   UNL     1       6.649   2.114  11.625  0.00  0.00    +0.000 C 
BRANCH  18  20
ATOM     19  C   UNL     1       6.214  -0.363  11.367  0.00  0.00    +0.000 C 
ATOM     20  C   UNL     1       5.753   1.040  11.012  0.00  0.00    +0.000 C 
ENDBRANCH  18  20
ENDBRANCH  14  18
ENDBRANCH   1  16
BRANCH  10  21
ATOM     21  O   UNL     1       3.239   2.401  17.268  0.00  0.00    +0.000 OA
ATOM     22  C   UNL     1       2.036   2.120  17.971  0.00  0.00    +0.000 C 
ENDBRANCH  10  21
TORSDOF 4
ENDMDL
MODEL 4
REMARK VINA RESULT:      -6.8      1.103      1.131
REMARK  Name = 
REMARK  6 active torsions:
REMARK  status: ('A' for Active; 'I' for Inactive)
REMARK    1  A    between atoms: C_1  and  C_2
REMARK    2  A    between atoms: C_2  and  C_3
REMARK    3  A    between atoms: C_3  and  C_4
REMARK    4  A    between atoms: N_6  and  C_7
REMARK    5  A    between atoms: C_16  and  O_17
REMARK    6  A    between atoms: O_17  and  C_18
REMARK                            x       y       z     vdW  Elec       q    Type
REMARK                         _______ _______ _______ _____ _____    ______ ____
ROOT
ATOM      1  C   UNL     1       5.329   4.401  16.660  0.00  0.00    +0.000 C 
ATOM      2  C   UNL     1       4.831   3.055  17.216  0.00  0.00    +0.000 C 
ATOM      3  C   UNL     1       3.670   3.083  18.176  0.00  0.00    +0.000 A 
ATOM      4  C   UNL     1       3.203   1.852  18.677  0.00  0.00    +0.000 A 
ATOM      5  C   UNL     1       2.140   1.802  19.571  0.00  0.00    +0.000 A 
ATOM      6  C   UNL     1       1.527   2.983  19.978  0.00  0.00    +0.000 A 
ATOM      7  C   UNL     1       1.974   4.222  19.500  0.00  0.00    +0.000 A 
ATOM      8  C   UNL     1       1.353   5.405  19.918  0.00  0.00    +0.000 A 
ATOM      9  C   UNL     1       1.792   6.647  19.461  0.00  0.00    +0.000 A 
ATOM     10  C   UNL     1       2.862   6.721  18.573  0.00  0.00    +0.000 A 
ATOM     11  C   UNL     1       3.498   5.538  18.131  0.00  0.00    +0.000 A 
ATOM     12  C   UNL     1       3.063   4.283  18.589  0.00  0.00    +0.000 A 
ATOM     13  C   UNL     1       4.651   5.674  17.173  0.00  0.00    +0.000 C 
ENDROOT
BRANCH   1  16
ATOM     14  C   UNL     1       6.460   4.719  14.464  0.00  0.00    +0.000 C 
ATOM     15  O   UNL     1       7.517   5.059  14.988  0.00  0.00    +0.000 OA
ATOM     16  N   UNL     1       5.334   4.405  15.189  0.00  0.00    +0.000 N 
ATOM     17  H   UNL     1       4.521   4.041  14.706  0.00  0.00    +0.000 HD
BRANCH  14  18
ATOM     18  C   UNL     1       6.264   4.663  12.963  0.00  0.00    +0.000 C 
BRANCH  18  20
ATOM     19  C   UNL     1       4.578   3.303  11.659  0.00  0.00    +0.000 C 
ATOM     20  C   UNL     1       5.823   3.267  12.526  0.00  0.00    +0.000 C 
ENDBRANCH  18  20
ENDBRANCH  14  18
ENDBRANCH   1  16
BRANCH  10  21
ATOM     21  O   UNL     1       3.376   7.886  18.064  0.00  0.00    +0.000 OA
ATOM     22  C   UNL     1       2.468   8.930  17.741  0.00  0.00    +0.000 C 
ENDBRANCH  10  21
TORSDOF 4
ENDMDL
MODEL 5
REMARK VINA RESULT:      -6.8      3.041      6.572
REMARK  Name = 
REMARK  6 active torsions:
REMARK  status: ('A' for Active; 'I' for Inactive)
REMARK    1  A    between atoms: C_1  and  C_2
REMARK    2  A    between atoms: C_2  and  C_3
REMARK    3  A    between atoms: C_3  and  C_4
REMARK    4  A    between atoms: N_6  and  C_7
REMARK    5  A    between atoms: C_16  and  O_17
REMARK    6  A    between atoms: O_17  and  C_18
REMARK                            x       y       z     vdW  Elec       q    Type
REMARK                         _______ _______ _______ _____ _____    ______ ____
ROOT
ATOM      1  C   UNL     1       2.245   7.531  18.072  0.00  0.00    +0.000 C 
ATOM      2  C   UNL     1       1.602   6.134  18.103  0.00  0.00    +0.000 C 
ATOM      3  C   UNL     1       2.490   4.950  17.823  0.00  0.00    +0.000 A 
ATOM      4  C   UNL     1       1.906   3.668  17.864  0.00  0.00    +0.000 A 
ATOM      5  C   UNL     1       2.663   2.530  17.610  0.00  0.00    +0.000 A 
ATOM      6  C   UNL     1       4.017   2.656  17.312  0.00  0.00    +0.000 A 
ATOM      7  C   UNL     1       4.622   3.920  17.260  0.00  0.00    +0.000 A 
ATOM      8  C   UNL     1       5.984   4.036  16.955  0.00  0.00    +0.000 A 
ATOM      9  C   UNL     1       6.599   5.286  16.889  0.00  0.00    +0.000 A 
ATOM     10  C   UNL     1       5.858   6.439  17.129  0.00  0.00    +0.000 A 
ATOM     11  C   UNL     1       4.484   6.343  17.446  0.00  0.00    +0.000 A 
ATOM     12  C   UNL     1       3.855   5.088  17.514  0.00  0.00    +0.000 A 
ATOM     13  C   UNL     1       3.726   7.620  17.695  0.00  0.00    +0.000 C 
ENDROOT
BRANCH   1  16
ATOM     14  C   UNL     1       1.105   9.286  19.422  0.00  0.00    +0.000 C 
ATOM     15  O   UNL     1       0.464   9.698  18.459  0.00  0.00    +0.000 OA
ATOM     16  N   UNL     1       2.014   8.257  19.330  0.00  0.00    +0.000 N 
ATOM     17  H   UNL     1       2.443   7.900  20.176  0.00  0.00    +0.000 HD
BRANCH  14  18
ATOM     18  C   UNL     1       1.009   9.903  20.802  0.00  0.00    +0.000 C 
BRANCH  18  20
ATOM     19  C   UNL     1      -0.050   9.602  23.078  0.00  0.00    +0.000 C 
ATOM     20  C   UNL     1       0.383   8.923  21.791  0.00  0.00    +0.000 C 
ENDBRANCH  18  20
ENDBRANCH  14  18
ENDBRANCH   1  16
BRANCH  10  21
ATOM     21  O   UNL     1       6.359   7.714  17.087  0.00  0.00    +0.000 OA
ATOM     22  C   UNL     1       7.679   7.928  17.569  0.00  0.00    +0.000 C 
ENDBRANCH  10  21
TORSDOF 4
ENDMDL
MODEL 6
REMARK VINA RESULT:      -6.7      3.235      7.317
REMARK  Name = 
REMARK  6 active torsions:
REMARK  status: ('A' for Active; 'I' for Inactive)
REMARK    1  A    between atoms: C_1  and  C_2
REMARK    2  A    between atoms: C_2  and  C_3
REMARK    3  A    between atoms: C_3  and  C_4
REMARK    4  A    between atoms: N_6  and  C_7
REMARK    5  A    between atoms: C_16  and  O_17
REMARK    6  A    between atoms: O_17  and  C_18
REMARK                            x       y       z     vdW  Elec       q    Type
REMARK                         _______ _______ _______ _____ _____    ______ ____
ROOT
ATOM      1  C   UNL     1       2.344   7.034  20.131  0.00  0.00    +0.000 C 
ATOM      2  C   UNL     1       3.323   7.288  18.972  0.00  0.00    +0.000 C 
ATOM      3  C   UNL     1       3.664   6.124  18.079  0.00  0.00    +0.000 A 
ATOM      4  C   UNL     1       4.549   6.356  17.008  0.00  0.00    +0.000 A 
ATOM      5  C   UNL     1       4.914   5.327  16.146  0.00  0.00    +0.000 A 
ATOM      6  C   UNL     1       4.397   4.050  16.342  0.00  0.00    +0.000 A 
ATOM      7  C   UNL     1       3.517   3.790  17.402  0.00  0.00    +0.000 A 
ATOM      8  C   UNL     1       3.005   2.501  17.592  0.00  0.00    +0.000 A 
ATOM      9  C   UNL     1       2.137   2.222  18.648  0.00  0.00    +0.000 A 
ATOM     10  C   UNL     1       1.768   3.235  19.529  0.00  0.00    +0.000 A 
ATOM     11  C   UNL     1       2.267   4.545  19.350  0.00  0.00    +0.000 A 
ATOM     12  C   UNL     1       3.143   4.834  18.289  0.00  0.00    +0.000 A 
ATOM     13  C   UNL     1       1.838   5.604  20.331  0.00  0.00    +0.000 C 
ENDROOT
BRANCH   1  16
ATOM     14  C   UNL     1       0.917   8.827  21.107  0.00  0.00    +0.000 C 
ATOM     15  O   UNL     1       1.565   8.861  22.149  0.00  0.00    +0.000 OA
ATOM     16  N   UNL     1       1.200   7.957  20.079  0.00  0.00    +0.000 N 
ATOM     17  H   UNL     1       0.689   8.039  19.208  0.00  0.00    +0.000 HD
BRANCH  14  18
ATOM     18  C   UNL     1      -0.299   9.697  20.862  0.00  0.00    +0.000 C 
BRANCH  18  20
ATOM     19  C   UNL     1      -1.093  10.831  22.978  0.00  0.00    +0.000 C 
ATOM     20  C   UNL     1      -0.246  10.957  21.724  0.00  0.00    +0.000 C 
ENDBRANCH  18  20
ENDBRANCH  14  18
ENDBRANCH   1  16
BRANCH  10  21
ATOM     21  O   UNL     1       0.926   3.072  20.599  0.00  0.00    +0.000 OA
ATOM     22  C   UNL     1       1.454   2.474  21.776  0.00  0.00    +0.000 C 
ENDBRANCH  10  21
TORSDOF 4
ENDMDL
MODEL 7
REMARK VINA RESULT:      -6.5      2.707      6.597
REMARK  Name = 
REMARK  6 active torsions:
REMARK  status: ('A' for Active; 'I' for Inactive)
REMARK    1  A    between atoms: C_1  and  C_2
REMARK    2  A    between atoms: C_2  and  C_3
REMARK    3  A    between atoms: C_3  and  C_4
REMARK    4  A    between atoms: N_6  and  C_7
REMARK    5  A    between atoms: C_16  and  O_17
REMARK    6  A    between atoms: O_17  and  C_18
REMARK                            x       y       z     vdW  Elec       q    Type
REMARK                         _______ _______ _______ _____ _____    ______ ____
ROOT
ATOM      1  C   UNL     1       2.622   7.517  18.937  0.00  0.00    +0.000 C 
ATOM      2  C   UNL     1       3.576   7.606  17.734  0.00  0.00    +0.000 C 
ATOM      3  C   UNL     1       4.101   6.315  17.162  0.00  0.00    +0.000 A 
ATOM      4  C   UNL     1       4.964   6.393  16.051  0.00  0.00    +0.000 A 
ATOM      5  C   UNL     1       5.491   5.242  15.474  0.00  0.00    +0.000 A 
ATOM      6  C   UNL     1       5.163   3.997  16.000  0.00  0.00    +0.000 A 
ATOM      7  C   UNL     1       4.310   3.891  17.108  0.00  0.00    +0.000 A 
ATOM      8  C   UNL     1       3.988   2.633  17.631  0.00  0.00    +0.000 A 
ATOM      9  C   UNL     1       3.151   2.509  18.739  0.00  0.00    +0.000 A 
ATOM     10  C   UNL     1       2.620   3.648  19.339  0.00  0.00    +0.000 A 
ATOM     11  C   UNL     1       2.925   4.927  18.820  0.00  0.00    +0.000 A 
ATOM     12  C   UNL     1       3.770   5.061  17.705  0.00  0.00    +0.000 A 
ATOM     13  C   UNL     1       2.327   6.127  19.506  0.00  0.00    +0.000 C 
ENDROOT
BRANCH   1  16
ATOM     14  C   UNL     1       1.319   9.451  18.062  0.00  0.00    +0.000 C 
ATOM     15  O   UNL     1       2.332  10.067  17.740  0.00  0.00    +0.000 OA
ATOM     16  N   UNL     1       1.356   8.218  18.673  0.00  0.00    +0.000 N 
ATOM     17  H   UNL     1       0.489   7.718  18.830  0.00  0.00    +0.000 HD
BRANCH  14  18
ATOM     18  C   UNL     1      -0.079  10.005  17.875  0.00  0.00    +0.000 C 
BRANCH  18  20
ATOM     19  C   UNL     1      -0.709  10.883  20.160  0.00  0.00    +0.000 C 
ATOM     20  C   UNL     1      -0.292  11.241  18.745  0.00  0.00    +0.000 C 
ENDBRANCH  18  20
ENDBRANCH  14  18
ENDBRANCH   1  16
BRANCH  10  21
ATOM     21  O   UNL     1       1.791   3.643  20.431  0.00  0.00    +0.000 OA
ATOM     22  C   UNL     1       2.219   2.939  21.589  0.00  0.00    +0.000 C 
ENDBRANCH  10  21
TORSDOF 4
ENDMDL
MODEL 8
REMARK VINA RESULT:      -6.4      2.883      4.689
REMARK  Name = 
REMARK  6 active torsions:
REMARK  status: ('A' for Active; 'I' for Inactive)
REMARK    1  A    between atoms: C_1  and  C_2
REMARK    2  A    between atoms: C_2  and  C_3
REMARK    3  A    between atoms: C_3  and  C_4
REMARK    4  A    between atoms: N_6  and  C_7
REMARK    5  A    between atoms: C_16  and  O_17
REMARK    6  A    between atoms: O_17  and  C_18
REMARK                            x       y       z     vdW  Elec       q    Type
REMARK                         _______ _______ _______ _____ _____    ______ ____
ROOT
ATOM      1  C   UNL     1       4.017   6.431  16.957  0.00  0.00    +0.000 C 
ATOM      2  C   UNL     1       3.402   7.536  17.833  0.00  0.00    +0.000 C 
ATOM      3  C   UNL     1       2.539   7.110  18.991  0.00  0.00    +0.000 A 
ATOM      4  C   UNL     1       1.985   8.119  19.803  0.00  0.00    +0.000 A 
ATOM      5  C   UNL     1       1.173   7.800  20.886  0.00  0.00    +0.000 A 
ATOM      6  C   UNL     1       0.903   6.466  21.174  0.00  0.00    +0.000 A 
ATOM      7  C   UNL     1       1.437   5.441  20.380  0.00  0.00    +0.000 A 
ATOM      8  C   UNL     1       1.157   4.102  20.676  0.00  0.00    +0.000 A 
ATOM      9  C   UNL     1       1.670   3.071  19.890  0.00  0.00    +0.000 A 
ATOM     10  C   UNL     1       2.477   3.368  18.795  0.00  0.00    +0.000 A 
ATOM     11  C   UNL     1       2.779   4.713  18.484  0.00  0.00    +0.000 A 
ATOM     12  C   UNL     1       2.264   5.759  19.269  0.00  0.00    +0.000 A 
ATOM     13  C   UNL     1       3.654   4.981  17.288  0.00  0.00    +0.000 C 
ENDROOT
BRANCH   1  16
ATOM     14  C   UNL     1       6.306   6.209  17.913  0.00  0.00    +0.000 C 
ATOM     15  O   UNL     1       5.883   5.803  18.992  0.00  0.00    +0.000 OA
ATOM     16  N   UNL     1       5.480   6.564  16.872  0.00  0.00    +0.000 N 
ATOM     17  H   UNL     1       5.888   6.803  15.976  0.00  0.00    +0.000 HD
BRANCH  14  18
ATOM     18  C   UNL     1       7.780   6.417  17.629  0.00  0.00    +0.000 C 
BRANCH  18  20
ATOM     19  C   UNL     1       8.038   8.924  17.836  0.00  0.00    +0.000 C 
ATOM     20  C   UNL     1       8.333   7.572  18.462  0.00  0.00    +0.000 C 
ENDBRANCH  18  20
ENDBRANCH  14  18
ENDBRANCH   1  16
BRANCH  10  21
ATOM     21  O   UNL     1       3.030   2.436  17.955  0.00  0.00    +0.000 OA
ATOM     22  C   UNL     1       3.742   1.353  18.539  0.00  0.00    +0.000 C 
ENDBRANCH  10  21
TORSDOF 4
ENDMDL
MODEL 9
REMARK VINA RESULT:      -6.4      1.907      2.492
REMARK  Name = 
REMARK  6 active torsions:
REMARK  status: ('A' for Active; 'I' for Inactive)
REMARK    1  A    between atoms: C_1  and  C_2
REMARK    2  A    between atoms: C_2  and  C_3
REMARK    3  A    between atoms: C_3  and  C_4
REMARK    4  A    between atoms: N_6  and  C_7
REMARK    5  A    between atoms: C_16  and  O_17
REMARK    6  A    between atoms: O_17  and  C_18
REMARK                            x       y       z     vdW  Elec       q    Type
REMARK                         _______ _______ _______ _____ _____    ______ ____
ROOT
ATOM      1  C   UNL     1       5.829   3.543  15.822  0.00  0.00    +0.000 C 
ATOM      2  C   UNL     1       4.683   2.696  16.402  0.00  0.00    +0.000 C 
ATOM      3  C   UNL     1       3.611   3.412  17.181  0.00  0.00    +0.000 A 
ATOM      4  C   UNL     1       2.553   2.641  17.702  0.00  0.00    +0.000 A 
ATOM      5  C   UNL     1       1.532   3.234  18.437  0.00  0.00    +0.000 A 
ATOM      6  C   UNL     1       1.553   4.606  18.662  0.00  0.00    +0.000 A 
ATOM      7  C   UNL     1       2.597   5.397  18.159  0.00  0.00    +0.000 A 
ATOM      8  C   UNL     1       2.611   6.777  18.394  0.00  0.00    +0.000 A 
ATOM      9  C   UNL     1       3.647   7.576  17.911  0.00  0.00    +0.000 A 
ATOM     10  C   UNL     1       4.684   7.002  17.182  0.00  0.00    +0.000 A 
ATOM     11  C   UNL     1       4.685   5.612  16.926  0.00  0.00    +0.000 A 
ATOM     12  C   UNL     1       3.646   4.799  17.411  0.00  0.00    +0.000 A 
ATOM     13  C   UNL     1       5.831   5.041  16.135  0.00  0.00    +0.000 C 
ENDROOT
BRANCH   1  16
ATOM     14  C   UNL     1       6.725   4.178  13.587  0.00  0.00    +0.000 C 
ATOM     15  O   UNL     1       7.304   5.166  14.031  0.00  0.00    +0.000 OA
ATOM     16  N   UNL     1       5.963   3.343  14.371  0.00  0.00    +0.000 N 
ATOM     17  H   UNL     1       5.587   2.493  13.967  0.00  0.00    +0.000 HD
BRANCH  14  18
ATOM     18  C   UNL     1       6.740   3.804  12.119  0.00  0.00    +0.000 C 
BRANCH  18  20
ATOM     19  C   UNL     1       4.382   3.281  11.373  0.00  0.00    +0.000 C 
ATOM     20  C   UNL     1       5.713   2.711  11.829  0.00  0.00    +0.000 C 
ENDBRANCH  18  20
ENDBRANCH  14  18
ENDBRANCH   1  16
BRANCH  10  21
ATOM     21  O   UNL     1       5.751   7.691  16.665  0.00  0.00    +0.000 OA
ATOM     22  C   UNL     1       6.936   7.768  17.445  0.00  0.00    +0.000 C 
ENDBRANCH  10  21
TORSDOF 4
ENDMDL
