MODEL 1
REMARK VINA RESULT:      -9.0      0.000      0.000
REMARK  Name = 
REMARK  3 active torsions:
REMARK  status: ('A' for Active; 'I' for Inactive)
REMARK    1  A    between atoms: N_3  and  C_4
REMARK    2  A    between atoms: C_16  and  C_18
REMARK    3  A    between atoms: N_20  and  C_21
REMARK                            x       y       z     vdW  Elec       q    Type
REMARK                         _______ _______ _______ _____ _____    ______ ____
ROOT
ATOM      1  O   UNL     1       7.454   9.745  17.450  0.00  0.00    +0.000 OA
ATOM      2  C   UNL     1       8.006   8.878  18.124  0.00  0.00    +0.000 C 
ATOM      3  N   UNL     1       9.145   9.108  18.865  0.00  0.00    +0.000 N 
ATOM      4  N   UNL     1       7.541   7.572  18.141  0.00  0.00    +0.000 N 
ATOM      5  C   UNL     1       7.994   6.485  19.024  0.00  0.00    +0.000 C 
ATOM      6  C   UNL     1       6.822   5.635  19.562  0.00  0.00    +0.000 C 
ATOM      7  N   UNL     1       5.855   5.274  18.513  0.00  0.00    +0.000 N 
ATOM      8  C   UNL     1       5.254   4.018  18.548  0.00  0.00    +0.000 C 
ATOM      9  O   UNL     1       5.570   3.192  19.413  0.00  0.00    +0.000 OA
ATOM     10  C   UNL     1       5.384   6.418  17.731  0.00  0.00    +0.000 C 
ATOM     11  C   UNL     1       6.566   7.176  17.120  0.00  0.00    +0.000 C 
ATOM     12  H   UNL     1       9.797   8.338  18.863  0.00  0.00    +0.000 HD
ENDROOT
BRANCH   3  13
ATOM     13  C   UNL     1       9.706  10.400  19.008  0.00  0.00    +0.000 A 
ATOM     14  C   UNL     1       9.676  11.005  20.266  0.00  0.00    +0.000 A 
ATOM     15  C   UNL     1      10.273  12.256  20.457  0.00  0.00    +0.000 A 
ATOM     16  C   UNL     1      10.855  12.931  19.380  0.00  0.00    +0.000 A 
ATOM     17 CL   UNL     1      11.569  14.473  19.690  0.00  0.00    +0.000 Cl
ATOM     18  C   UNL     1      10.840  12.350  18.108  0.00  0.00    +0.000 A 
ATOM     19 CL   UNL     1      11.491  13.150  16.721  0.00  0.00    +0.000 Cl
ATOM     20  C   UNL     1      10.277  11.082  17.927  0.00  0.00    +0.000 A 
ENDBRANCH   3  13
BRANCH   8  21
ATOM     21  C   UNL     1       4.152   3.669  17.501  0.00  0.00    +0.000 C 
ATOM     22  C   UNL     1       3.277   2.447  17.904  0.00  0.00    +0.000 C 
ATOM     23  N   UNL     1       2.083   2.706  18.736  0.00  0.00    +0.000 NA
ATOM     24  C   UNL     1       1.328   3.824  18.150  0.00  0.00    +0.000 C 
ATOM     25  C   UNL     1       2.176   5.089  17.944  0.00  0.00    +0.000 C 
ATOM     26  N   UNL     1       3.375   4.887  17.119  0.00  0.00    +0.000 NA
ATOM     27  H   UNL     1       3.986   5.696  17.261  0.00  0.00    +0.000 HD
BRANCH  23  28
ATOM     28  C   UNL     1       2.402   2.900  20.162  0.00  0.00    +0.000 C 
ATOM     29  C   UNL     1       1.652   3.930  20.965  0.00  0.00    +0.000 C 
ATOM     30  C   UNL     1       1.384   2.473  21.189  0.00  0.00    +0.000 C 
ENDBRANCH  23  28
ENDBRANCH   8  21
TORSDOF 3
ENDMDL
MODEL 2
REMARK VINA RESULT:      -8.7      0.580      1.355
REMARK  Name = 
REMARK  3 active torsions:
REMARK  status: ('A' for Active; 'I' for Inactive)
REMARK    1  A    between atoms: N_3  and  C_4
REMARK    2  A    between atoms: C_16  and  C_18
REMARK    3  A    between atoms: N_20  and  C_21
REMARK                            x       y       z     vdW  Elec       q    Type
REMARK                         _______ _______ _______ _____ _____    ______ ____
ROOT
ATOM      1  O   UNL     1       7.388   9.645  17.392  0.00  0.00    +0.000 OA
ATOM      2  C   UNL     1       7.945   8.794  18.084  0.00  0.00    +0.000 C 
ATOM      3  N   UNL     1       9.080   9.048  18.824  0.00  0.00    +0.000 N 
ATOM      4  N   UNL     1       7.491   7.485  18.124  0.00  0.00    +0.000 N 
ATOM      5  C   UNL     1       7.949   6.419  19.029  0.00  0.00    +0.000 C 
ATOM      6  C   UNL     1       6.783   5.570  19.580  0.00  0.00    +0.000 C 
ATOM      7  N   UNL     1       5.822   5.181  18.535  0.00  0.00    +0.000 N 
ATOM      8  C   UNL     1       5.232   3.922  18.592  0.00  0.00    +0.000 C 
ATOM      9  O   UNL     1       5.552   3.114  19.474  0.00  0.00    +0.000 OA
ATOM     10  C   UNL     1       5.344   6.307  17.730  0.00  0.00    +0.000 C 
ATOM     11  C   UNL     1       6.522   7.062  17.108  0.00  0.00    +0.000 C 
ATOM     12  H   UNL     1       9.738   8.283  18.838  0.00  0.00    +0.000 HD
ENDROOT
BRANCH   3  13
ATOM     13  C   UNL     1       9.630  10.347  18.943  0.00  0.00    +0.000 A 
ATOM     14  C   UNL     1      10.325  10.880  17.855  0.00  0.00    +0.000 A 
ATOM     15  C   UNL     1      10.831  12.182  17.917  0.00  0.00    +0.000 A 
ATOM     16  C   UNL     1      10.692  12.939  19.084  0.00  0.00    +0.000 A 
ATOM     17 CL   UNL     1      11.346  14.538  19.087  0.00  0.00    +0.000 Cl
ATOM     18  C   UNL     1      10.042  12.388  20.193  0.00  0.00    +0.000 A 
ATOM     19 CL   UNL     1       9.881  13.244  21.687  0.00  0.00    +0.000 Cl
ATOM     20  C   UNL     1       9.503  11.099  20.117  0.00  0.00    +0.000 A 
ENDBRANCH   3  13
BRANCH   8  21
ATOM     21  C   UNL     1       4.136   3.543  17.549  0.00  0.00    +0.000 C 
ATOM     22  C   UNL     1       3.236   2.355  17.995  0.00  0.00    +0.000 C 
ATOM     23  N   UNL     1       2.038   2.669  18.800  0.00  0.00    +0.000 NA
ATOM     24  C   UNL     1       1.308   3.773  18.157  0.00  0.00    +0.000 C 
ATOM     25  C   UNL     1       2.179   5.013  17.904  0.00  0.00    +0.000 C 
ATOM     26  N   UNL     1       3.383   4.755  17.103  0.00  0.00    +0.000 NA
ATOM     27  H   UNL     1       4.006   5.560  17.216  0.00  0.00    +0.000 HD
BRANCH  23  28
ATOM     28  C   UNL     1       2.344   2.922  20.221  0.00  0.00    +0.000 C 
ATOM     29  C   UNL     1       1.553   3.949  20.987  0.00  0.00    +0.000 C 
ATOM     30  C   UNL     1       1.338   2.492  21.258  0.00  0.00    +0.000 C 
ENDBRANCH  23  28
ENDBRANCH   8  21
TORSDOF 3
ENDMDL
MODEL 3
REMARK VINA RESULT:      -8.6      7.944      9.860
REMARK  Name = 
REMARK  3 active torsions:
REMARK  status: ('A' for Active; 'I' for Inactive)
REMARK    1  A    between atoms: N_3  and  C_4
REMARK    2  A    between atoms: C_16  and  C_18
REMARK    3  A    between atoms: N_20  and  C_21
REMARK                            x       y       z     vdW  Elec       q    Type
REMARK                         _______ _______ _______ _____ _____    ______ ____
ROOT
ATOM      1  O   UNL     1       2.274   8.819  17.327  0.00  0.00    +0.000 OA
ATOM      2  C   UNL     1       2.013   8.405  18.454  0.00  0.00    +0.000 C 
ATOM      3  N   UNL     1       2.442   7.184  18.929  0.00  0.00    +0.000 N 
ATOM      4  N   UNL     1       1.208   9.129  19.321  0.00  0.00    +0.000 N 
ATOM      5  C   UNL     1       0.957   8.839  20.742  0.00  0.00    +0.000 C 
ATOM      6  C   UNL     1       0.976  10.112  21.616  0.00  0.00    +0.000 C 
ATOM      7  N   UNL     1       0.208  11.219  21.022  0.00  0.00    +0.000 N 
ATOM      8  C   UNL     1      -0.520  12.063  21.856  0.00  0.00    +0.000 C 
ATOM      9  O   UNL     1      -0.573  11.854  23.075  0.00  0.00    +0.000 OA
ATOM     10  C   UNL     1       0.573  11.506  19.634  0.00  0.00    +0.000 C 
ATOM     11  C   UNL     1       0.438  10.248  18.771  0.00  0.00    +0.000 C 
ATOM     12  H   UNL     1       1.766   6.710  19.508  0.00  0.00    +0.000 HD
ENDROOT
BRANCH   3  13
ATOM     13  C   UNL     1       3.326   6.356  18.195  0.00  0.00    +0.000 A 
ATOM     14  C   UNL     1       2.892   5.081  17.825  0.00  0.00    +0.000 A 
ATOM     15  C   UNL     1       3.716   4.259  17.050  0.00  0.00    +0.000 A 
ATOM     16  C   UNL     1       4.997   4.685  16.686  0.00  0.00    +0.000 A 
ATOM     17 CL   UNL     1       5.959   3.614  15.732  0.00  0.00    +0.000 Cl
ATOM     18  C   UNL     1       5.452   5.941  17.099  0.00  0.00    +0.000 A 
ATOM     19 CL   UNL     1       7.043   6.511  16.734  0.00  0.00    +0.000 Cl
ATOM     20  C   UNL     1       4.613   6.777  17.843  0.00  0.00    +0.000 A 
ENDBRANCH   3  13
BRANCH   8  21
ATOM     21  C   UNL     1      -1.250  13.298  21.245  0.00  0.00    +0.000 C 
ATOM     22  C   UNL     1      -2.802  13.179  21.270  0.00  0.00    +0.000 C 
ATOM     23  N   UNL     1      -3.504  13.649  22.481  0.00  0.00    +0.000 NA
ATOM     24  C   UNL     1      -2.994  14.982  22.840  0.00  0.00    +0.000 C 
ATOM     25  C   UNL     1      -1.466  15.025  23.003  0.00  0.00    +0.000 C 
ATOM     26  N   UNL     1      -0.718  14.570  21.822  0.00  0.00    +0.000 NA
ATOM     27  H   UNL     1       0.245  14.392  22.119  0.00  0.00    +0.000 HD
BRANCH  23  28
ATOM     28  C   UNL     1      -3.450  12.684  23.594  0.00  0.00    +0.000 C 
ATOM     29  C   UNL     1      -3.792  13.130  24.991  0.00  0.00    +0.000 C 
ATOM     30  C   UNL     1      -4.745  12.256  24.236  0.00  0.00    +0.000 C 
ENDBRANCH  23  28
ENDBRANCH   8  21
TORSDOF 3
ENDMDL
MODEL 4
REMARK VINA RESULT:      -8.3      7.579      9.341
REMARK  Name = 
REMARK  3 active torsions:
REMARK  status: ('A' for Active; 'I' for Inactive)
REMARK    1  A    between atoms: N_3  and  C_4
REMARK    2  A    between atoms: C_16  and  C_18
REMARK    3  A    between atoms: N_20  and  C_21
REMARK                            x       y       z     vdW  Elec       q    Type
REMARK                         _______ _______ _______ _____ _____    ______ ____
ROOT
ATOM      1  O   UNL     1      -0.563   9.760  23.114  0.00  0.00    +0.000 OA
ATOM      2  C   UNL     1      -0.470  10.167  21.957  0.00  0.00    +0.000 C 
ATOM      3  N   UNL     1      -0.950  11.394  21.549  0.00  0.00    +0.000 N 
ATOM      4  N   UNL     1       0.084   9.384  20.957  0.00  0.00    +0.000 N 
ATOM      5  C   UNL     1       0.410   9.804  19.585  0.00  0.00    +0.000 C 
ATOM      6  C   UNL     1       1.772   9.254  19.107  0.00  0.00    +0.000 C 
ATOM      7  N   UNL     1       1.948   7.826  19.420  0.00  0.00    +0.000 N 
ATOM      8  C   UNL     1       2.613   7.010  18.510  0.00  0.00    +0.000 C 
ATOM      9  O   UNL     1       3.000   7.460  17.424  0.00  0.00    +0.000 OA
ATOM     10  C   UNL     1       1.689   7.498  20.823  0.00  0.00    +0.000 C 
ATOM     11  C   UNL     1       0.288   7.959  21.234  0.00  0.00    +0.000 C 
ATOM     12  H   UNL     1      -1.357  11.386  20.626  0.00  0.00    +0.000 HD
ENDROOT
BRANCH   3  13
ATOM     13  C   UNL     1      -1.482  12.339  22.458  0.00  0.00    +0.000 A 
ATOM     14  C   UNL     1      -0.720  13.468  22.768  0.00  0.00    +0.000 A 
ATOM     15  C   UNL     1      -1.238  14.451  23.618  0.00  0.00    +0.000 A 
ATOM     16  C   UNL     1      -2.497  14.286  24.203  0.00  0.00    +0.000 A 
ATOM     17 CL   UNL     1      -3.069  15.540  25.244  0.00  0.00    +0.000 Cl
ATOM     18  C   UNL     1      -3.239  13.132  23.934  0.00  0.00    +0.000 A 
ATOM     19 CL   UNL     1      -4.778  12.834  24.665  0.00  0.00    +0.000 Cl
ATOM     20  C   UNL     1      -2.736  12.167  23.055  0.00  0.00    +0.000 A 
ENDBRANCH   3  13
BRANCH   8  21
ATOM     21  C   UNL     1       2.894   5.521  18.881  0.00  0.00    +0.000 C 
ATOM     22  C   UNL     1       3.169   4.614  17.647  0.00  0.00    +0.000 C 
ATOM     23  N   UNL     1       4.562   4.519  17.165  0.00  0.00    +0.000 NA
ATOM     24  C   UNL     1       5.447   4.265  18.312  0.00  0.00    +0.000 C 
ATOM     25  C   UNL     1       5.293   5.297  19.440  0.00  0.00    +0.000 C 
ATOM     26  N   UNL     1       3.925   5.427  19.959  0.00  0.00    +0.000 NA
ATOM     27  H   UNL     1       3.883   6.296  20.499  0.00  0.00    +0.000 HD
BRANCH  23  28
ATOM     28  C   UNL     1       4.975   5.680  16.355  0.00  0.00    +0.000 C 
ATOM     29  C   UNL     1       6.438   5.942  16.109  0.00  0.00    +0.000 C 
ATOM     30  C   UNL     1       5.577   5.429  14.996  0.00  0.00    +0.000 C 
ENDBRANCH  23  28
ENDBRANCH   8  21
TORSDOF 3
ENDMDL
MODEL 5
REMARK VINA RESULT:      -8.3      8.322     10.235
REMARK  Name = 
REMARK  3 active torsions:
REMARK  status: ('A' for Active; 'I' for Inactive)
REMARK    1  A    between atoms: N_3  and  C_4
REMARK    2  A    between atoms: C_16  and  C_18
REMARK    3  A    between atoms: N_20  and  C_21
REMARK                            x       y       z     vdW  Elec       q    Type
REMARK                         _______ _______ _______ _____ _____    ______ ____
ROOT
ATOM      1  O   UNL     1       2.144   8.893  17.326  0.00  0.00    +0.000 OA
ATOM      2  C   UNL     1       1.854   8.490  18.451  0.00  0.00    +0.000 C 
ATOM      3  N   UNL     1       2.209   7.244  18.921  0.00  0.00    +0.000 N 
ATOM      4  N   UNL     1       1.089   9.256  19.317  0.00  0.00    +0.000 N 
ATOM      5  C   UNL     1       0.816   8.976  20.735  0.00  0.00    +0.000 C 
ATOM      6  C   UNL     1       0.905  10.242  21.615  0.00  0.00    +0.000 C 
ATOM      7  N   UNL     1       0.207  11.394  21.023  0.00  0.00    +0.000 N 
ATOM      8  C   UNL     1      -0.475  12.276  21.858  0.00  0.00    +0.000 C 
ATOM      9  O   UNL     1      -0.545  12.065  23.075  0.00  0.00    +0.000 OA
ATOM     10  C   UNL     1       0.593  11.665  19.637  0.00  0.00    +0.000 C 
ATOM     11  C   UNL     1       0.388  10.421  18.768  0.00  0.00    +0.000 C 
ATOM     12  H   UNL     1       1.503   6.808  19.496  0.00  0.00    +0.000 HD
ENDROOT
BRANCH   3  13
ATOM     13  C   UNL     1       3.045   6.368  18.188  0.00  0.00    +0.000 A 
ATOM     14  C   UNL     1       4.101   6.914  17.453  0.00  0.00    +0.000 A 
ATOM     15  C   UNL     1       4.982   6.075  16.764  0.00  0.00    +0.000 A 
ATOM     16  C   UNL     1       4.782   4.691  16.762  0.00  0.00    +0.000 A 
ATOM     17 CL   UNL     1       5.909   3.718  15.886  0.00  0.00    +0.000 Cl
ATOM     18  C   UNL     1       3.696   4.147  17.454  0.00  0.00    +0.000 A 
ATOM     19 CL   UNL     1       3.355   2.452  17.450  0.00  0.00    +0.000 Cl
ATOM     20  C   UNL     1       2.837   4.984  18.174  0.00  0.00    +0.000 A 
ENDBRANCH   3  13
BRANCH   8  21
ATOM     21  C   UNL     1      -1.128  13.555  21.249  0.00  0.00    +0.000 C 
ATOM     22  C   UNL     1      -2.684  13.515  21.241  0.00  0.00    +0.000 C 
ATOM     23  N   UNL     1      -3.386  14.006  22.444  0.00  0.00    +0.000 NA
ATOM     24  C   UNL     1      -2.816  15.306  22.832  0.00  0.00    +0.000 C 
ATOM     25  C   UNL     1      -1.291  15.268  23.025  0.00  0.00    +0.000 C 
ATOM     26  N   UNL     1      -0.544  14.791  21.854  0.00  0.00    +0.000 NA
ATOM     27  H   UNL     1       0.403  14.560  22.167  0.00  0.00    +0.000 HD
BRANCH  23  28
ATOM     28  C   UNL     1      -3.404  13.025  23.545  0.00  0.00    +0.000 C 
ATOM     29  C   UNL     1      -3.790  13.463  24.934  0.00  0.00    +0.000 C 
ATOM     30  C   UNL     1      -4.736  12.626  24.128  0.00  0.00    +0.000 C 
ENDBRANCH  23  28
ENDBRANCH   8  21
TORSDOF 3
ENDMDL
MODEL 6
REMARK VINA RESULT:      -8.1      7.406      9.135
REMARK  Name = 
REMARK  3 active torsions:
REMARK  status: ('A' for Active; 'I' for Inactive)
REMARK    1  A    between atoms: N_3  and  C_4
REMARK    2  A    between atoms: C_16  and  C_18
REMARK    3  A    between atoms: N_20  and  C_21
REMARK                            x       y       z     vdW  Elec       q    Type
REMARK                         _______ _______ _______ _____ _____    ______ ____
ROOT
ATOM      1  O   UNL     1      -0.690  10.021  23.079  0.00  0.00    +0.000 OA
ATOM      2  C   UNL     1      -0.540  10.428  21.929  0.00  0.00    +0.000 C 
ATOM      3  N   UNL     1      -0.951  11.676  21.510  0.00  0.00    +0.000 N 
ATOM      4  N   UNL     1       0.014   9.625  20.944  0.00  0.00    +0.000 N 
ATOM      5  C   UNL     1       0.406  10.036  19.587  0.00  0.00    +0.000 C 
ATOM      6  C   UNL     1       1.758   9.429  19.153  0.00  0.00    +0.000 C 
ATOM      7  N   UNL     1       1.862   7.994  19.464  0.00  0.00    +0.000 N 
ATOM      8  C   UNL     1       2.522   7.153  18.573  0.00  0.00    +0.000 C 
ATOM      9  O   UNL     1       2.966   7.591  17.504  0.00  0.00    +0.000 OA
ATOM     10  C   UNL     1       1.540   7.672  20.856  0.00  0.00    +0.000 C 
ATOM     11  C   UNL     1       0.147   8.191  21.221  0.00  0.00    +0.000 C 
ATOM     12  H   UNL     1      -1.326  11.689  20.574  0.00  0.00    +0.000 HD
ENDROOT
BRANCH   3  13
ATOM     13  C   UNL     1      -1.473  12.640  22.406  0.00  0.00    +0.000 A 
ATOM     14  C   UNL     1      -2.760  12.450  22.914  0.00  0.00    +0.000 A 
ATOM     15  C   UNL     1      -3.285  13.352  23.846  0.00  0.00    +0.000 A 
ATOM     16  C   UNL     1      -2.548  14.475  24.235  0.00  0.00    +0.000 A 
ATOM     17 CL   UNL     1      -3.262  15.545  25.387  0.00  0.00    +0.000 Cl
ATOM     18  C   UNL     1      -1.280  14.693  23.688  0.00  0.00    +0.000 A 
ATOM     19 CL   UNL     1      -0.335  16.087  24.079  0.00  0.00    +0.000 Cl
ATOM     20  C   UNL     1      -0.741  13.771  22.784  0.00  0.00    +0.000 A 
ENDBRANCH   3  13
BRANCH   8  21
ATOM     21  C   UNL     1       2.726   5.652  18.946  0.00  0.00    +0.000 C 
ATOM     22  C   UNL     1       2.958   4.731  17.713  0.00  0.00    +0.000 C 
ATOM     23  N   UNL     1       4.346   4.565  17.235  0.00  0.00    +0.000 NA
ATOM     24  C   UNL     1       5.213   4.267  18.386  0.00  0.00    +0.000 C 
ATOM     25  C   UNL     1       5.109   5.306  19.513  0.00  0.00    +0.000 C 
ATOM     26  N   UNL     1       3.747   5.507  20.028  0.00  0.00    +0.000 NA
ATOM     27  H   UNL     1       3.748   6.377  20.567  0.00  0.00    +0.000 HD
BRANCH  23  28
ATOM     28  C   UNL     1       4.820   5.703  16.426  0.00  0.00    +0.000 C 
ATOM     29  C   UNL     1       6.298   5.936  16.254  0.00  0.00    +0.000 C 
ATOM     30  C   UNL     1       5.488   5.415  15.106  0.00  0.00    +0.000 C 
ENDBRANCH  23  28
ENDBRANCH   8  21
TORSDOF 3
ENDMDL
MODEL 7
REMARK VINA RESULT:      -8.1      8.792     10.867
REMARK  Name = 
REMARK  3 active torsions:
REMARK  status: ('A' for Active; 'I' for Inactive)
REMARK    1  A    between atoms: N_3  and  C_4
REMARK    2  A    between atoms: C_16  and  C_18
REMARK    3  A    between atoms: N_20  and  C_21
REMARK                            x       y       z     vdW  Elec       q    Type
REMARK                         _______ _______ _______ _____ _____    ______ ____
ROOT
ATOM      1  O   UNL     1       2.048   7.385  20.724  0.00  0.00    +0.000 OA
ATOM      2  C   UNL     1       1.766   8.245  19.892  0.00  0.00    +0.000 C 
ATOM      3  N   UNL     1       2.165   8.180  18.574  0.00  0.00    +0.000 N 
ATOM      4  N   UNL     1       1.062   9.386  20.243  0.00  0.00    +0.000 N 
ATOM      5  C   UNL     1       0.514  10.401  19.329  0.00  0.00    +0.000 C 
ATOM      6  C   UNL     1      -0.904  10.859  19.736  0.00  0.00    +0.000 C 
ATOM      7  N   UNL     1      -1.018  11.137  21.177  0.00  0.00    +0.000 N 
ATOM      8  C   UNL     1      -1.817  12.195  21.601  0.00  0.00    +0.000 C 
ATOM      9  O   UNL     1      -2.378  12.931  20.780  0.00  0.00    +0.000 OA
ATOM     10  C   UNL     1      -0.532  10.047  22.024  0.00  0.00    +0.000 C 
ATOM     11  C   UNL     1       0.914   9.692  21.669  0.00  0.00    +0.000 C 
ATOM     12  H   UNL     1       2.417   9.073  18.179  0.00  0.00    +0.000 HD
ENDROOT
BRANCH   3  13
ATOM     13  C   UNL     1       2.832   7.050  18.041  0.00  0.00    +0.000 A 
ATOM     14  C   UNL     1       4.060   7.241  17.403  0.00  0.00    +0.000 A 
ATOM     15  C   UNL     1       4.774   6.141  16.916  0.00  0.00    +0.000 A 
ATOM     16  C   UNL     1       4.240   4.852  17.017  0.00  0.00    +0.000 A 
ATOM     17 CL   UNL     1       5.178   3.544  16.390  0.00  0.00    +0.000 Cl
ATOM     18  C   UNL     1       2.988   4.666  17.610  0.00  0.00    +0.000 A 
ATOM     19 CL   UNL     1       2.242   3.110  17.720  0.00  0.00    +0.000 Cl
ATOM     20  C   UNL     1       2.292   5.762  18.130  0.00  0.00    +0.000 A 
ENDBRANCH   3  13
BRANCH   8  21
ATOM     21  C   UNL     1      -2.025  12.431  23.130  0.00  0.00    +0.000 C 
ATOM     22  C   UNL     1      -1.544  13.829  23.614  0.00  0.00    +0.000 C 
ATOM     23  N   UNL     1      -2.508  14.946  23.542  0.00  0.00    +0.000 NA
ATOM     24  C   UNL     1      -3.787  14.510  24.125  0.00  0.00    +0.000 C 
ATOM     25  C   UNL     1      -4.340  13.226  23.488  0.00  0.00    +0.000 C 
ATOM     26  N   UNL     1      -3.420  12.081  23.537  0.00  0.00    +0.000 NA
ATOM     27  H   UNL     1      -3.766  11.381  22.875  0.00  0.00    +0.000 HD
BRANCH  23  28
ATOM     28  C   UNL     1      -2.646  15.506  22.185  0.00  0.00    +0.000 C 
ATOM     29  C   UNL     1      -3.667  16.580  21.917  0.00  0.00    +0.000 C 
ATOM     30  C   UNL     1      -2.211  16.930  21.950  0.00  0.00    +0.000 C 
ENDBRANCH  23  28
ENDBRANCH   8  21
TORSDOF 3
ENDMDL
MODEL 8
REMARK VINA RESULT:      -8.0      8.438     10.354
REMARK  Name = 
REMARK  3 active torsions:
REMARK  status: ('A' for Active; 'I' for Inactive)
REMARK    1  A    between atoms: N_3  and  C_4
REMARK    2  A    between atoms: C_16  and  C_18
REMARK    3  A    between atoms: N_20  and  C_21
REMARK                            x       y       z     vdW  Elec       q    Type
REMARK                         _______ _______ _______ _____ _____    ______ ____
ROOT
ATOM      1  O   UNL     1       2.458   9.341  17.692  0.00  0.00    +0.000 OA
ATOM      2  C   UNL     1       1.857   8.856  18.649  0.00  0.00    +0.000 C 
ATOM      3  N   UNL     1       1.885   7.512  18.956  0.00  0.00    +0.000 N 
ATOM      4  N   UNL     1       1.052   9.634  19.466  0.00  0.00    +0.000 N 
ATOM      5  C   UNL     1       0.420   9.226  20.730  0.00  0.00    +0.000 C 
ATOM      6  C   UNL     1       0.514  10.319  21.818  0.00  0.00    +0.000 C 
ATOM      7  N   UNL     1       0.168  11.656  21.309  0.00  0.00    +0.000 N 
ATOM      8  C   UNL     1      -0.531  12.534  22.131  0.00  0.00    +0.000 C 
ATOM      9  O   UNL     1      -0.911  12.180  23.255  0.00  0.00    +0.000 OA
ATOM     10  C   UNL     1       0.899  12.028  20.096  0.00  0.00    +0.000 C 
ATOM     11  C   UNL     1       0.696  10.978  19.001  0.00  0.00    +0.000 C 
ATOM     12  H   UNL     1       1.006   7.152  19.294  0.00  0.00    +0.000 HD
ENDROOT
BRANCH   3  13
ATOM     13  C   UNL     1       2.711   6.595  18.262  0.00  0.00    +0.000 A 
ATOM     14  C   UNL     1       3.886   7.069  17.674  0.00  0.00    +0.000 A 
ATOM     15  C   UNL     1       4.755   6.181  17.031  0.00  0.00    +0.000 A 
ATOM     16  C   UNL     1       4.429   4.826  16.927  0.00  0.00    +0.000 A 
ATOM     17 CL   UNL     1       5.549   3.791  16.116  0.00  0.00    +0.000 Cl
ATOM     18  C   UNL     1       3.228   4.359  17.470  0.00  0.00    +0.000 A 
ATOM     19 CL   UNL     1       2.733   2.708  17.331  0.00  0.00    +0.000 Cl
ATOM     20  C   UNL     1       2.378   5.241  18.146  0.00  0.00    +0.000 A 
ENDBRANCH   3  13
BRANCH   8  21
ATOM     21  C   UNL     1      -0.809  13.988  21.637  0.00  0.00    +0.000 C 
ATOM     22  C   UNL     1      -1.969  14.082  20.604  0.00  0.00    +0.000 C 
ATOM     23  N   UNL     1      -3.341  14.242  21.130  0.00  0.00    +0.000 NA
ATOM     24  C   UNL     1      -3.342  15.311  22.141  0.00  0.00    +0.000 C 
ATOM     25  C   UNL     1      -2.314  15.089  23.262  0.00  0.00    +0.000 C 
ATOM     26  N   UNL     1      -0.931  14.929  22.792  0.00  0.00    +0.000 NA
ATOM     27  H   UNL     1      -0.388  14.535  23.566  0.00  0.00    +0.000 HD
BRANCH  23  28
ATOM     28  C   UNL     1      -3.926  12.978  21.615  0.00  0.00    +0.000 C 
ATOM     29  C   UNL     1      -5.268  12.987  22.300  0.00  0.00    +0.000 C 
ATOM     30  C   UNL     1      -5.145  12.436  20.912  0.00  0.00    +0.000 C 
ENDBRANCH  23  28
ENDBRANCH   8  21
TORSDOF 3
ENDMDL
MODEL 9
REMARK VINA RESULT:      -7.9      8.026     10.789
REMARK  Name = 
REMARK  3 active torsions:
REMARK  status: ('A' for Active; 'I' for Inactive)
REMARK    1  A    between atoms: N_3  and  C_4
REMARK    2  A    between atoms: C_16  and  C_18
REMARK    3  A    between atoms: N_20  and  C_21
REMARK                            x       y       z     vdW  Elec       q    Type
REMARK                         _______ _______ _______ _____ _____    ______ ____
ROOT
ATOM      1  O   UNL     1       1.527   7.145  21.045  0.00  0.00    +0.000 OA
ATOM      2  C   UNL     1       1.731   7.721  19.978  0.00  0.00    +0.000 C 
ATOM      3  N   UNL     1       2.370   7.128  18.910  0.00  0.00    +0.000 N 
ATOM      4  N   UNL     1       1.373   9.047  19.795  0.00  0.00    +0.000 N 
ATOM      5  C   UNL     1       1.401   9.802  18.531  0.00  0.00    +0.000 C 
ATOM      6  C   UNL     1       0.154  10.695  18.349  0.00  0.00    +0.000 C 
ATOM      7  N   UNL     1      -0.182  11.454  19.565  0.00  0.00    +0.000 N 
ATOM      8  C   UNL     1      -0.670  12.752  19.440  0.00  0.00    +0.000 C 
ATOM      9  O   UNL     1      -0.765  13.286  18.328  0.00  0.00    +0.000 OA
ATOM     10  C   UNL     1      -0.276  10.624  20.767  0.00  0.00    +0.000 C 
ATOM     11  C   UNL     1       1.019   9.835  20.979  0.00  0.00    +0.000 C 
ATOM     12  H   UNL     1       2.979   7.752  18.402  0.00  0.00    +0.000 HD
ENDROOT
BRANCH   3  13
ATOM     13  C   UNL     1       2.738   5.761  18.913  0.00  0.00    +0.000 A 
ATOM     14  C   UNL     1       4.092   5.435  19.007  0.00  0.00    +0.000 A 
ATOM     15  C   UNL     1       4.487   4.094  19.071  0.00  0.00    +0.000 A 
ATOM     16  C   UNL     1       3.535   3.074  18.987  0.00  0.00    +0.000 A 
ATOM     17 CL   UNL     1       4.098   1.443  19.070  0.00  0.00    +0.000 Cl
ATOM     18  C   UNL     1       2.183   3.398  18.841  0.00  0.00    +0.000 A 
ATOM     19 CL   UNL     1       0.957   2.190  18.676  0.00  0.00    +0.000 Cl
ATOM     20  C   UNL     1       1.786   4.740  18.815  0.00  0.00    +0.000 A 
ENDBRANCH   3  13
BRANCH   8  21
ATOM     21  C   UNL     1      -1.126  13.523  20.717  0.00  0.00    +0.000 C 
ATOM     22  C   UNL     1       0.055  13.973  21.626  0.00  0.00    +0.000 C 
ATOM     23  N   UNL     1       0.681  15.279  21.338  0.00  0.00    +0.000 NA
ATOM     24  C   UNL     1      -0.377  16.289  21.175  0.00  0.00    +0.000 C 
ATOM     25  C   UNL     1      -1.428  15.905  20.122  0.00  0.00    +0.000 C 
ATOM     26  N   UNL     1      -2.086  14.614  20.366  0.00  0.00    +0.000 NA
ATOM     27  H   UNL     1      -2.555  14.340  19.498  0.00  0.00    +0.000 HD
BRANCH  23  28
ATOM     28  C   UNL     1       1.622  15.233  20.204  0.00  0.00    +0.000 C 
ATOM     29  C   UNL     1       2.269  16.501  19.712  0.00  0.00    +0.000 C 
ATOM     30  C   UNL     1       3.082  15.498  20.472  0.00  0.00    +0.000 C 
ENDBRANCH  23  28
ENDBRANCH   8  21
TORSDOF 3
ENDMDL
