MODEL 1
REMARK VINA RESULT:      -8.6      0.000      0.000
REMARK  Name = 
REMARK  9 active torsions:
REMARK  status: ('A' for Active; 'I' for Inactive)
REMARK    1  A    between atoms: C_1  and  C_2
REMARK    2  A    between atoms: C_4  and  C_5
REMARK    3  A    between atoms: C_6  and  N_7
REMARK    4  A    between atoms: C_8  and  C_10
REMARK    5  A    between atoms: C_10  and  N_11
REMARK    6  A    between atoms: N_11  and  C_12
REMARK    7  A    between atoms: C_13  and  C_15
REMARK    8  A    between atoms: N_19  and  C_20
REMARK    9  A    between atoms: C_31  and  C_32
REMARK                            x       y       z     vdW  Elec       q    Type
REMARK                         _______ _______ _______ _____ _____    ______ ____
ROOT
ATOM      1  N   UNL     1       0.899  12.103  18.384  0.00  0.00    +0.000 N 
ATOM      2  C   UNL     1       2.260  12.610  18.336  0.00  0.00    +0.000 C 
ATOM      3  C   UNL     1       0.544  10.772  18.257  0.00  0.00    +0.000 C 
ATOM      4  O   UNL     1      -0.638  10.483  18.040  0.00  0.00    +0.000 OA
ENDROOT
BRANCH   3   5
ATOM      5  C   UNL     1       1.573   9.673  18.536  0.00  0.00    +0.000 C 
ATOM      6  C   UNL     1       1.156   8.895  19.798  0.00  0.00    +0.000 C 
ATOM      7  C   UNL     1       2.005   7.660  19.732  0.00  0.00    +0.000 C 
ATOM      8  O   UNL     1       2.279   6.962  20.695  0.00  0.00    +0.000 OA
ATOM      9  N   UNL     1       2.404   7.512  18.401  0.00  0.00    +0.000 N 
ATOM     10  C   UNL     1       1.793   8.525  17.556  0.00  0.00    +0.000 C 
BRANCH   9  11
ATOM     11  C   UNL     1       3.292   6.483  17.993  0.00  0.00    +0.000 A 
ATOM     12  C   UNL     1       4.511   6.881  17.409  0.00  0.00    +0.000 A 
ATOM     13  C   UNL     1       5.396   5.948  16.876  0.00  0.00    +0.000 A 
ATOM     14  C   UNL     1       5.072   4.599  16.898  0.00  0.00    +0.000 A 
ATOM     15  C   UNL     1       3.852   4.164  17.444  0.00  0.00    +0.000 A 
ATOM     16  C   UNL     1       3.527   2.801  17.381  0.00  0.00    +0.000 A 
ATOM     17  C   UNL     1       2.297   2.334  17.834  0.00  0.00    +0.000 A 
ATOM     18  C   UNL     1       1.374   3.233  18.350  0.00  0.00    +0.000 A 
ATOM     19  C   UNL     1       1.687   4.592  18.426  0.00  0.00    +0.000 A 
ATOM     20  C   UNL     1       2.940   5.104  18.000  0.00  0.00    +0.000 A 
ENDBRANCH   9  11
ENDBRANCH   3   5
BRANCH   1  21
ATOM     21  C   UNL     1      -0.190  13.096  18.477  0.00  0.00    +0.000 C 
BRANCH  21  23
ATOM     22  N   UNL     1      -1.802  12.397  20.170  0.00  0.00    +0.000 N 
ATOM     23  C   UNL     1      -0.811  13.323  19.866  0.00  0.00    +0.000 C 
ATOM     24  O   UNL     1      -0.471  14.271  20.570  0.00  0.00    +0.000 OA
ATOM     25  H   UNL     1      -2.302  12.075  19.340  0.00  0.00    +0.000 HD
BRANCH  22  31
ATOM     26  C   UNL     1      -4.866  12.495  25.036  0.00  0.00    +0.000 C 
ATOM     27  C   UNL     1      -4.066  12.472  23.768  0.00  0.00    +0.000 A 
ATOM     28  C   UNL     1      -4.590  12.969  22.570  0.00  0.00    +0.000 A 
ATOM     29  C   UNL     1      -3.841  12.938  21.378  0.00  0.00    +0.000 A 
ATOM     30  C   UNL     1      -4.451  13.525  20.135  0.00  0.00    +0.000 C 
ATOM     31  C   UNL     1      -2.530  12.414  21.388  0.00  0.00    +0.000 A 
ATOM     32  C   UNL     1      -2.014  11.860  22.578  0.00  0.00    +0.000 A 
ATOM     33  C   UNL     1      -0.695  11.141  22.661  0.00  0.00    +0.000 C 
ATOM     34  C   UNL     1      -2.782  11.925  23.759  0.00  0.00    +0.000 A 
ENDBRANCH  22  31
ENDBRANCH  21  23
ENDBRANCH   1  21
TORSDOF 5
ENDMDL
MODEL 2
REMARK VINA RESULT:      -8.5      1.874      3.554
REMARK  Name = 
REMARK  9 active torsions:
REMARK  status: ('A' for Active; 'I' for Inactive)
REMARK    1  A    between atoms: C_1  and  C_2
REMARK    2  A    between atoms: C_4  and  C_5
REMARK    3  A    between atoms: C_6  and  N_7
REMARK    4  A    between atoms: C_8  and  C_10
REMARK    5  A    between atoms: C_10  and  N_11
REMARK    6  A    between atoms: N_11  and  C_12
REMARK    7  A    between atoms: C_13  and  C_15
REMARK    8  A    between atoms: N_19  and  C_20
REMARK    9  A    between atoms: C_31  and  C_32
REMARK                            x       y       z     vdW  Elec       q    Type
REMARK                         _______ _______ _______ _____ _____    ______ ____
ROOT
ATOM      1  N   UNL     1       1.243  10.853  19.278  0.00  0.00    +0.000 N 
ATOM      2  C   UNL     1       2.031  10.981  18.064  0.00  0.00    +0.000 C 
ATOM      3  C   UNL     1       0.967   9.660  19.922  0.00  0.00    +0.000 C 
ATOM      4  O   UNL     1       0.075   9.631  20.777  0.00  0.00    +0.000 OA
ENDROOT
BRANCH   3   5
ATOM      5  C   UNL     1       1.858   8.437  19.688  0.00  0.00    +0.000 C 
ATOM      6  C   UNL     1       1.525   7.358  20.735  0.00  0.00    +0.000 C 
ATOM      7  C   UNL     1       2.169   6.126  20.170  0.00  0.00    +0.000 C 
ATOM      8  O   UNL     1       2.479   5.148  20.831  0.00  0.00    +0.000 OA
ATOM      9  N   UNL     1       2.342   6.350  18.801  0.00  0.00    +0.000 N 
ATOM     10  C   UNL     1       1.765   7.622  18.402  0.00  0.00    +0.000 C 
BRANCH   9  11
ATOM     11  C   UNL     1       3.004   5.413  17.965  0.00  0.00    +0.000 A 
ATOM     12  C   UNL     1       2.364   4.175  17.756  0.00  0.00    +0.000 A 
ATOM     13  C   UNL     1       2.985   3.151  17.045  0.00  0.00    +0.000 A 
ATOM     14  C   UNL     1       4.266   3.338  16.545  0.00  0.00    +0.000 A 
ATOM     15  C   UNL     1       4.950   4.546  16.758  0.00  0.00    +0.000 A 
ATOM     16  C   UNL     1       6.271   4.670  16.302  0.00  0.00    +0.000 A 
ATOM     17  C   UNL     1       7.016   5.815  16.561  0.00  0.00    +0.000 A 
ATOM     18  C   UNL     1       6.446   6.851  17.288  0.00  0.00    +0.000 A 
ATOM     19  C   UNL     1       5.130   6.746  17.742  0.00  0.00    +0.000 A 
ATOM     20  C   UNL     1       4.327   5.606  17.476  0.00  0.00    +0.000 A 
ENDBRANCH   9  11
ENDBRANCH   3   5
BRANCH   1  21
ATOM     21  C   UNL     1       0.611  12.078  19.807  0.00  0.00    +0.000 C 
BRANCH  21  23
ATOM     22  N   UNL     1      -1.764  11.652  19.442  0.00  0.00    +0.000 N 
ATOM     23  C   UNL     1      -0.713  12.516  19.157  0.00  0.00    +0.000 C 
ATOM     24  O   UNL     1      -0.769  13.503  18.427  0.00  0.00    +0.000 OA
ATOM     25  H   UNL     1      -1.452  10.688  19.565  0.00  0.00    +0.000 HD
BRANCH  22  31
ATOM     26  C   UNL     1      -7.113  12.498  17.508  0.00  0.00    +0.000 C 
ATOM     27  C   UNL     1      -5.719  12.275  18.013  0.00  0.00    +0.000 A 
ATOM     28  C   UNL     1      -5.328  12.712  19.283  0.00  0.00    +0.000 A 
ATOM     29  C   UNL     1      -4.016  12.510  19.753  0.00  0.00    +0.000 A 
ATOM     30  C   UNL     1      -3.676  12.971  21.144  0.00  0.00    +0.000 C 
ATOM     31  C   UNL     1      -3.078  11.839  18.939  0.00  0.00    +0.000 A 
ATOM     32  C   UNL     1      -3.446  11.445  17.636  0.00  0.00    +0.000 A 
ATOM     33  C   UNL     1      -2.483  10.864  16.637  0.00  0.00    +0.000 C 
ATOM     34  C   UNL     1      -4.773  11.643  17.204  0.00  0.00    +0.000 A 
ENDBRANCH  22  31
ENDBRANCH  21  23
ENDBRANCH   1  21
TORSDOF 5
ENDMDL
MODEL 3
REMARK VINA RESULT:      -8.5      1.847      3.514
REMARK  Name = 
REMARK  9 active torsions:
REMARK  status: ('A' for Active; 'I' for Inactive)
REMARK    1  A    between atoms: C_1  and  C_2
REMARK    2  A    between atoms: C_4  and  C_5
REMARK    3  A    between atoms: C_6  and  N_7
REMARK    4  A    between atoms: C_8  and  C_10
REMARK    5  A    between atoms: C_10  and  N_11
REMARK    6  A    between atoms: N_11  and  C_12
REMARK    7  A    between atoms: C_13  and  C_15
REMARK    8  A    between atoms: N_19  and  C_20
REMARK    9  A    between atoms: C_31  and  C_32
REMARK                            x       y       z     vdW  Elec       q    Type
REMARK                         _______ _______ _______ _____ _____    ______ ____
ROOT
ATOM      1  N   UNL     1       1.278  10.890  19.354  0.00  0.00    +0.000 N 
ATOM      2  C   UNL     1       2.095  11.037  18.162  0.00  0.00    +0.000 C 
ATOM      3  C   UNL     1       0.967   9.686  19.959  0.00  0.00    +0.000 C 
ATOM      4  O   UNL     1       0.055   9.650  20.793  0.00  0.00    +0.000 OA
ENDROOT
BRANCH   3   5
ATOM      5  C   UNL     1       1.841   8.453  19.712  0.00  0.00    +0.000 C 
ATOM      6  C   UNL     1       1.514   7.378  20.764  0.00  0.00    +0.000 C 
ATOM      7  C   UNL     1       2.136   6.140  20.190  0.00  0.00    +0.000 C 
ATOM      8  O   UNL     1       2.447   5.159  20.846  0.00  0.00    +0.000 OA
ATOM      9  N   UNL     1       2.290   6.361  18.818  0.00  0.00    +0.000 N 
ATOM     10  C   UNL     1       1.720   7.640  18.427  0.00  0.00    +0.000 C 
BRANCH   9  11
ATOM     11  C   UNL     1       2.929   5.418  17.972  0.00  0.00    +0.000 A 
ATOM     12  C   UNL     1       2.273   4.187  17.772  0.00  0.00    +0.000 A 
ATOM     13  C   UNL     1       2.871   3.157  17.052  0.00  0.00    +0.000 A 
ATOM     14  C   UNL     1       4.147   3.329  16.533  0.00  0.00    +0.000 A 
ATOM     15  C   UNL     1       4.847   4.530  16.736  0.00  0.00    +0.000 A 
ATOM     16  C   UNL     1       6.162   4.639  16.260  0.00  0.00    +0.000 A 
ATOM     17  C   UNL     1       6.924   5.777  16.508  0.00  0.00    +0.000 A 
ATOM     18  C   UNL     1       6.376   6.818  17.244  0.00  0.00    +0.000 A 
ATOM     19  C   UNL     1       5.066   6.727  17.718  0.00  0.00    +0.000 A 
ATOM     20  C   UNL     1       4.247   5.596  17.463  0.00  0.00    +0.000 A 
ENDBRANCH   9  11
ENDBRANCH   3   5
BRANCH   1  21
ATOM     21  C   UNL     1       0.655  12.112  19.902  0.00  0.00    +0.000 C 
BRANCH  21  23
ATOM     22  N   UNL     1      -1.721  11.691  19.541  0.00  0.00    +0.000 N 
ATOM     23  C   UNL     1      -0.673  12.562  19.269  0.00  0.00    +0.000 C 
ATOM     24  O   UNL     1      -0.735  13.564  18.561  0.00  0.00    +0.000 OA
ATOM     25  H   UNL     1      -1.407  10.724  19.641  0.00  0.00    +0.000 HD
BRANCH  22  31
ATOM     26  C   UNL     1      -7.035  12.393  17.456  0.00  0.00    +0.000 C 
ATOM     27  C   UNL     1      -5.648  12.212  17.999  0.00  0.00    +0.000 A 
ATOM     28  C   UNL     1      -4.668  11.528  17.272  0.00  0.00    +0.000 A 
ATOM     29  C   UNL     1      -3.369  11.351  17.787  0.00  0.00    +0.000 A 
ATOM     30  C   UNL     1      -2.353  10.641  16.935  0.00  0.00    +0.000 C 
ATOM     31  C   UNL     1      -3.038  11.887  19.050  0.00  0.00    +0.000 A 
ATOM     32  C   UNL     1      -4.035  12.529  19.814  0.00  0.00    +0.000 A 
ATOM     33  C   UNL     1      -3.830  12.997  21.229  0.00  0.00    +0.000 C 
ATOM     34  C   UNL     1      -5.320  12.708  19.261  0.00  0.00    +0.000 A 
ENDBRANCH  22  31
ENDBRANCH  21  23
ENDBRANCH   1  21
TORSDOF 5
ENDMDL
MODEL 4
REMARK VINA RESULT:      -8.5      0.134      1.520
REMARK  Name = 
REMARK  9 active torsions:
REMARK  status: ('A' for Active; 'I' for Inactive)
REMARK    1  A    between atoms: C_1  and  C_2
REMARK    2  A    between atoms: C_4  and  C_5
REMARK    3  A    between atoms: C_6  and  N_7
REMARK    4  A    between atoms: C_8  and  C_10
REMARK    5  A    between atoms: C_10  and  N_11
REMARK    6  A    between atoms: N_11  and  C_12
REMARK    7  A    between atoms: C_13  and  C_15
REMARK    8  A    between atoms: N_19  and  C_20
REMARK    9  A    between atoms: C_31  and  C_32
REMARK                            x       y       z     vdW  Elec       q    Type
REMARK                         _______ _______ _______ _____ _____    ______ ____
ROOT
ATOM      1  N   UNL     1       0.856  12.133  18.383  0.00  0.00    +0.000 N 
ATOM      2  C   UNL     1       2.211  12.656  18.396  0.00  0.00    +0.000 C 
ATOM      3  C   UNL     1       0.522  10.799  18.239  0.00  0.00    +0.000 C 
ATOM      4  O   UNL     1      -0.646  10.497  17.969  0.00  0.00    +0.000 OA
ENDROOT
BRANCH   3   5
ATOM      5  C   UNL     1       1.549   9.711  18.563  0.00  0.00    +0.000 C 
ATOM      6  C   UNL     1       1.115   8.965  19.838  0.00  0.00    +0.000 C 
ATOM      7  C   UNL     1       1.969   7.731  19.818  0.00  0.00    +0.000 C 
ATOM      8  O   UNL     1       2.229   7.060  20.803  0.00  0.00    +0.000 OA
ATOM      9  N   UNL     1       2.389   7.550  18.497  0.00  0.00    +0.000 N 
ATOM     10  C   UNL     1       1.789   8.538  17.617  0.00  0.00    +0.000 C 
BRANCH   9  11
ATOM     11  C   UNL     1       3.286   6.514  18.130  0.00  0.00    +0.000 A 
ATOM     12  C   UNL     1       4.546   6.901  17.631  0.00  0.00    +0.000 A 
ATOM     13  C   UNL     1       5.449   5.963  17.140  0.00  0.00    +0.000 A 
ATOM     14  C   UNL     1       5.105   4.619  17.121  0.00  0.00    +0.000 A 
ATOM     15  C   UNL     1       3.847   4.194  17.582  0.00  0.00    +0.000 A 
ATOM     16  C   UNL     1       3.507   2.837  17.478  0.00  0.00    +0.000 A 
ATOM     17  C   UNL     1       2.245   2.383  17.845  0.00  0.00    +0.000 A 
ATOM     18  C   UNL     1       1.304   3.288  18.316  0.00  0.00    +0.000 A 
ATOM     19  C   UNL     1       1.630   4.640  18.432  0.00  0.00    +0.000 A 
ATOM     20  C   UNL     1       2.915   5.140  18.095  0.00  0.00    +0.000 A 
ENDBRANCH   9  11
ENDBRANCH   3   5
BRANCH   1  21
ATOM     21  C   UNL     1      -0.247  13.114  18.427  0.00  0.00    +0.000 C 
BRANCH  21  23
ATOM     22  N   UNL     1      -1.832  12.391  20.137  0.00  0.00    +0.000 N 
ATOM     23  C   UNL     1      -0.901  13.366  19.797  0.00  0.00    +0.000 C 
ATOM     24  O   UNL     1      -0.635  14.369  20.456  0.00  0.00    +0.000 OA
ATOM     25  H   UNL     1      -2.297  11.996  19.319  0.00  0.00    +0.000 HD
BRANCH  22  31
ATOM     26  C   UNL     1      -4.736  12.475  25.100  0.00  0.00    +0.000 C 
ATOM     27  C   UNL     1      -3.980  12.451  23.805  0.00  0.00    +0.000 A 
ATOM     28  C   UNL     1      -2.688  11.922  23.729  0.00  0.00    +0.000 A 
ATOM     29  C   UNL     1      -1.975  11.908  22.515  0.00  0.00    +0.000 A 
ATOM     30  C   UNL     1      -0.605  11.288  22.497  0.00  0.00    +0.000 C 
ATOM     31  C   UNL     1      -2.576  12.419  21.345  0.00  0.00    +0.000 A 
ATOM     32  C   UNL     1      -3.857  13.005  21.422  0.00  0.00    +0.000 A 
ATOM     33  C   UNL     1      -4.522  13.713  20.274  0.00  0.00    +0.000 C 
ATOM     34  C   UNL     1      -4.552  12.985  22.649  0.00  0.00    +0.000 A 
ENDBRANCH  22  31
ENDBRANCH  21  23
ENDBRANCH   1  21
TORSDOF 5
ENDMDL
MODEL 5
REMARK VINA RESULT:      -8.2      1.353      1.812
REMARK  Name = 
REMARK  9 active torsions:
REMARK  status: ('A' for Active; 'I' for Inactive)
REMARK    1  A    between atoms: C_1  and  C_2
REMARK    2  A    between atoms: C_4  and  C_5
REMARK    3  A    between atoms: C_6  and  N_7
REMARK    4  A    between atoms: C_8  and  C_10
REMARK    5  A    between atoms: C_10  and  N_11
REMARK    6  A    between atoms: N_11  and  C_12
REMARK    7  A    between atoms: C_13  and  C_15
REMARK    8  A    between atoms: N_19  and  C_20
REMARK    9  A    between atoms: C_31  and  C_32
REMARK                            x       y       z     vdW  Elec       q    Type
REMARK                         _______ _______ _______ _____ _____    ______ ____
ROOT
ATOM      1  N   UNL     1       0.522  12.193  18.945  0.00  0.00    +0.000 N 
ATOM      2  C   UNL     1       1.815  12.765  19.282  0.00  0.00    +0.000 C 
ATOM      3  C   UNL     1       0.324  10.913  18.463  0.00  0.00    +0.000 C 
ATOM      4  O   UNL     1      -0.767  10.623  17.957  0.00  0.00    +0.000 OA
ENDROOT
BRANCH   3   5
ATOM      5  C   UNL     1       1.382   9.831  18.695  0.00  0.00    +0.000 C 
ATOM      6  C   UNL     1       0.995   8.997  19.930  0.00  0.00    +0.000 C 
ATOM      7  C   UNL     1       1.875   7.788  19.813  0.00  0.00    +0.000 C 
ATOM      8  O   UNL     1       2.174   7.063  20.748  0.00  0.00    +0.000 OA
ATOM      9  N   UNL     1       2.268   7.699  18.475  0.00  0.00    +0.000 N 
ATOM     10  C   UNL     1       1.625   8.726  17.672  0.00  0.00    +0.000 C 
BRANCH   9  11
ATOM     11  C   UNL     1       3.179   6.709  18.024  0.00  0.00    +0.000 A 
ATOM     12  C   UNL     1       4.386   7.159  17.453  0.00  0.00    +0.000 A 
ATOM     13  C   UNL     1       5.292   6.271  16.880  0.00  0.00    +0.000 A 
ATOM     14  C   UNL     1       5.000   4.914  16.850  0.00  0.00    +0.000 A 
ATOM     15  C   UNL     1       3.794   4.428  17.381  0.00  0.00    +0.000 A 
ATOM     16  C   UNL     1       3.501   3.061  17.265  0.00  0.00    +0.000 A 
ATOM     17  C   UNL     1       2.285   2.546  17.702  0.00  0.00    +0.000 A 
ATOM     18  C   UNL     1       1.342   3.401  18.256  0.00  0.00    +0.000 A 
ATOM     19  C   UNL     1       1.622   4.763  18.385  0.00  0.00    +0.000 A 
ATOM     20  C   UNL     1       2.860   5.322  17.977  0.00  0.00    +0.000 A 
ENDBRANCH   9  11
ENDBRANCH   3   5
BRANCH   1  21
ATOM     21  C   UNL     1      -0.653  13.082  19.033  0.00  0.00    +0.000 C 
BRANCH  21  23
ATOM     22  N   UNL     1      -3.019  13.220  19.618  0.00  0.00    +0.000 N 
ATOM     23  C   UNL     1      -1.805  12.628  19.947  0.00  0.00    +0.000 C 
ATOM     24  O   UNL     1      -1.609  11.863  20.888  0.00  0.00    +0.000 OA
ATOM     25  H   UNL     1      -2.901  14.156  19.229  0.00  0.00    +0.000 HD
BRANCH  22  31
ATOM     26  C   UNL     1      -7.915  12.098  22.417  0.00  0.00    +0.000 C 
ATOM     27  C   UNL     1      -6.639  12.392  21.686  0.00  0.00    +0.000 A 
ATOM     28  C   UNL     1      -6.355  11.797  20.453  0.00  0.00    +0.000 A 
ATOM     29  C   UNL     1      -5.153  12.067  19.771  0.00  0.00    +0.000 A 
ATOM     30  C   UNL     1      -4.930  11.422  18.431  0.00  0.00    +0.000 C 
ATOM     31  C   UNL     1      -4.221  12.969  20.329  0.00  0.00    +0.000 A 
ATOM     32  C   UNL     1      -4.473  13.532  21.597  0.00  0.00    +0.000 A 
ATOM     33  C   UNL     1      -3.482  14.380  22.346  0.00  0.00    +0.000 C 
ATOM     34  C   UNL     1      -5.696  13.257  22.243  0.00  0.00    +0.000 A 
ENDBRANCH  22  31
ENDBRANCH  21  23
ENDBRANCH   1  21
TORSDOF 5
ENDMDL
MODEL 6
REMARK VINA RESULT:      -7.8      0.756      2.110
REMARK  Name = 
REMARK  9 active torsions:
REMARK  status: ('A' for Active; 'I' for Inactive)
REMARK    1  A    between atoms: C_1  and  C_2
REMARK    2  A    between atoms: C_4  and  C_5
REMARK    3  A    between atoms: C_6  and  N_7
REMARK    4  A    between atoms: C_8  and  C_10
REMARK    5  A    between atoms: C_10  and  N_11
REMARK    6  A    between atoms: N_11  and  C_12
REMARK    7  A    between atoms: C_13  and  C_15
REMARK    8  A    between atoms: N_19  and  C_20
REMARK    9  A    between atoms: C_31  and  C_32
REMARK                            x       y       z     vdW  Elec       q    Type
REMARK                         _______ _______ _______ _____ _____    ______ ____
ROOT
ATOM      1  N   UNL     1       1.388  11.794  18.477  0.00  0.00    +0.000 N 
ATOM      2  C   UNL     1       2.767  12.105  18.140  0.00  0.00    +0.000 C 
ATOM      3  C   UNL     1       0.843  10.523  18.491  0.00  0.00    +0.000 C 
ATOM      4  O   UNL     1      -0.387  10.397  18.522  0.00  0.00    +0.000 OA
ENDROOT
BRANCH   3   5
ATOM      5  C   UNL     1       1.752   9.298  18.622  0.00  0.00    +0.000 C 
ATOM      6  C   UNL     1       1.419   8.556  19.930  0.00  0.00    +0.000 C 
ATOM      7  C   UNL     1       2.086   7.225  19.744  0.00  0.00    +0.000 C 
ATOM      8  O   UNL     1       2.399   6.480  20.659  0.00  0.00    +0.000 OA
ATOM      9  N   UNL     1       2.274   7.053  18.370  0.00  0.00    +0.000 N 
ATOM     10  C   UNL     1       1.686   8.150  17.620  0.00  0.00    +0.000 C 
BRANCH   9  11
ATOM     11  C   UNL     1       2.958   5.928  17.841  0.00  0.00    +0.000 A 
ATOM     12  C   UNL     1       2.269   4.699  17.840  0.00  0.00    +0.000 A 
ATOM     13  C   UNL     1       2.894   3.519  17.447  0.00  0.00    +0.000 A 
ATOM     14  C   UNL     1       4.229   3.540  17.065  0.00  0.00    +0.000 A 
ATOM     15  C   UNL     1       4.959   4.740  17.080  0.00  0.00    +0.000 A 
ATOM     16  C   UNL     1       6.324   4.709  16.758  0.00  0.00    +0.000 A 
ATOM     17  C   UNL     1       7.108   5.855  16.839  0.00  0.00    +0.000 A 
ATOM     18  C   UNL     1       6.532   7.049  17.251  0.00  0.00    +0.000 A 
ATOM     19  C   UNL     1       5.172   7.097  17.567  0.00  0.00    +0.000 A 
ATOM     20  C   UNL     1       4.333   5.957  17.472  0.00  0.00    +0.000 A 
ENDBRANCH   9  11
ENDBRANCH   3   5
BRANCH   1  21
ATOM     21  C   UNL     1       0.481  12.931  18.727  0.00  0.00    +0.000 C 
BRANCH  21  23
ATOM     22  N   UNL     1      -1.373  12.442  20.238  0.00  0.00    +0.000 N 
ATOM     23  C   UNL     1      -0.124  13.045  20.137  0.00  0.00    +0.000 C 
ATOM     24  O   UNL     1       0.451  13.662  21.030  0.00  0.00    +0.000 OA
ATOM     25  H   UNL     1      -1.895  12.481  19.361  0.00  0.00    +0.000 HD
BRANCH  22  31
ATOM     26  C   UNL     1      -4.562  12.460  25.023  0.00  0.00    +0.000 C 
ATOM     27  C   UNL     1      -3.729  12.457  23.776  0.00  0.00    +0.000 A 
ATOM     28  C   UNL     1      -4.107  13.193  22.648  0.00  0.00    +0.000 A 
ATOM     29  C   UNL     1      -3.329  13.183  21.475  0.00  0.00    +0.000 A 
ATOM     30  C   UNL     1      -3.775  14.028  20.313  0.00  0.00    +0.000 C 
ATOM     31  C   UNL     1      -2.134  12.432  21.435  0.00  0.00    +0.000 A 
ATOM     32  C   UNL     1      -1.773  11.643  22.547  0.00  0.00    +0.000 A 
ATOM     33  C   UNL     1      -0.607  10.692  22.553  0.00  0.00    +0.000 C 
ATOM     34  C   UNL     1      -2.563  11.692  23.714  0.00  0.00    +0.000 A 
ENDBRANCH  22  31
ENDBRANCH  21  23
ENDBRANCH   1  21
TORSDOF 5
ENDMDL
MODEL 7
REMARK VINA RESULT:      -7.8      0.843      2.578
REMARK  Name = 
REMARK  9 active torsions:
REMARK  status: ('A' for Active; 'I' for Inactive)
REMARK    1  A    between atoms: C_1  and  C_2
REMARK    2  A    between atoms: C_4  and  C_5
REMARK    3  A    between atoms: C_6  and  N_7
REMARK    4  A    between atoms: C_8  and  C_10
REMARK    5  A    between atoms: C_10  and  N_11
REMARK    6  A    between atoms: N_11  and  C_12
REMARK    7  A    between atoms: C_13  and  C_15
REMARK    8  A    between atoms: N_19  and  C_20
REMARK    9  A    between atoms: C_31  and  C_32
REMARK                            x       y       z     vdW  Elec       q    Type
REMARK                         _______ _______ _______ _____ _____    ______ ____
ROOT
ATOM      1  N   UNL     1       1.506  11.931  18.439  0.00  0.00    +0.000 N 
ATOM      2  C   UNL     1       2.892  12.201  18.095  0.00  0.00    +0.000 C 
ATOM      3  C   UNL     1       0.926  10.675  18.463  0.00  0.00    +0.000 C 
ATOM      4  O   UNL     1      -0.307  10.583  18.500  0.00  0.00    +0.000 OA
ENDROOT
BRANCH   3   5
ATOM      5  C   UNL     1       1.801   9.426  18.597  0.00  0.00    +0.000 C 
ATOM      6  C   UNL     1       1.446   8.694  19.904  0.00  0.00    +0.000 C 
ATOM      7  C   UNL     1       2.077   7.346  19.721  0.00  0.00    +0.000 C 
ATOM      8  O   UNL     1       2.369   6.594  20.637  0.00  0.00    +0.000 OA
ATOM      9  N   UNL     1       2.264   7.168  18.348  0.00  0.00    +0.000 N 
ATOM     10  C   UNL     1       1.706   8.280  17.595  0.00  0.00    +0.000 C 
BRANCH   9  11
ATOM     11  C   UNL     1       2.918   6.024  17.820  0.00  0.00    +0.000 A 
ATOM     12  C   UNL     1       2.200   4.812  17.829  0.00  0.00    +0.000 A 
ATOM     13  C   UNL     1       2.795   3.616  17.438  0.00  0.00    +0.000 A 
ATOM     14  C   UNL     1       4.127   3.604  17.049  0.00  0.00    +0.000 A 
ATOM     15  C   UNL     1       4.887   4.786  17.056  0.00  0.00    +0.000 A 
ATOM     16  C   UNL     1       6.249   4.720  16.727  0.00  0.00    +0.000 A 
ATOM     17  C   UNL     1       7.061   5.848  16.799  0.00  0.00    +0.000 A 
ATOM     18  C   UNL     1       6.514   7.057  17.208  0.00  0.00    +0.000 A 
ATOM     19  C   UNL     1       5.158   7.139  17.531  0.00  0.00    +0.000 A 
ATOM     20  C   UNL     1       4.292   6.019  17.444  0.00  0.00    +0.000 A 
ENDBRANCH   9  11
ENDBRANCH   3   5
BRANCH   1  21
ATOM     21  C   UNL     1       0.632  13.094  18.687  0.00  0.00    +0.000 C 
BRANCH  21  23
ATOM     22  N   UNL     1      -1.277  12.681  20.152  0.00  0.00    +0.000 N 
ATOM     23  C   UNL     1       0.007  13.211  20.088  0.00  0.00    +0.000 C 
ATOM     24  O   UNL     1       0.599  13.774  21.006  0.00  0.00    +0.000 OA
ATOM     25  H   UNL     1      -1.778  12.770  19.267  0.00  0.00    +0.000 HD
BRANCH  22  31
ATOM     26  C   UNL     1      -4.365  12.634  25.003  0.00  0.00    +0.000 C 
ATOM     27  C   UNL     1      -3.561  12.645  23.737  0.00  0.00    +0.000 A 
ATOM     28  C   UNL     1      -2.527  11.727  23.525  0.00  0.00    +0.000 A 
ATOM     29  C   UNL     1      -1.767  11.743  22.340  0.00  0.00    +0.000 A 
ATOM     30  C   UNL     1      -0.696  10.703  22.162  0.00  0.00    +0.000 C 
ATOM     31  C   UNL     1      -2.061  12.690  21.334  0.00  0.00    +0.000 A 
ATOM     32  C   UNL     1      -3.064  13.655  21.561  0.00  0.00    +0.000 A 
ATOM     33  C   UNL     1      -3.352  14.796  20.625  0.00  0.00    +0.000 C 
ATOM     34  C   UNL     1      -3.820  13.597  22.750  0.00  0.00    +0.000 A 
ENDBRANCH  22  31
ENDBRANCH  21  23
ENDBRANCH   1  21
TORSDOF 5
ENDMDL
MODEL 8
REMARK VINA RESULT:      -7.7      1.282      1.672
REMARK  Name = 
REMARK  9 active torsions:
REMARK  status: ('A' for Active; 'I' for Inactive)
REMARK    1  A    between atoms: C_1  and  C_2
REMARK    2  A    between atoms: C_4  and  C_5
REMARK    3  A    between atoms: C_6  and  N_7
REMARK    4  A    between atoms: C_8  and  C_10
REMARK    5  A    between atoms: C_10  and  N_11
REMARK    6  A    between atoms: N_11  and  C_12
REMARK    7  A    between atoms: C_13  and  C_15
REMARK    8  A    between atoms: N_19  and  C_20
REMARK    9  A    between atoms: C_31  and  C_32
REMARK                            x       y       z     vdW  Elec       q    Type
REMARK                         _______ _______ _______ _____ _____    ______ ____
ROOT
ATOM      1  N   UNL     1       0.895  12.243  18.627  0.00  0.00    +0.000 N 
ATOM      2  C   UNL     1       2.260  12.744  18.638  0.00  0.00    +0.000 C 
ATOM      3  C   UNL     1       0.536  10.926  18.406  0.00  0.00    +0.000 C 
ATOM      4  O   UNL     1      -0.644  10.660  18.149  0.00  0.00    +0.000 OA
ENDROOT
BRANCH   3   5
ATOM      5  C   UNL     1       1.553   9.804  18.630  0.00  0.00    +0.000 C 
ATOM      6  C   UNL     1       1.151   8.995  19.877  0.00  0.00    +0.000 C 
ATOM      7  C   UNL     1       1.979   7.750  19.756  0.00  0.00    +0.000 C 
ATOM      8  O   UNL     1       2.262   7.020  20.692  0.00  0.00    +0.000 OA
ATOM      9  N   UNL     1       2.347   7.637  18.413  0.00  0.00    +0.000 N 
ATOM     10  C   UNL     1       1.735   8.683  17.612  0.00  0.00    +0.000 C 
BRANCH   9  11
ATOM     11  C   UNL     1       3.211   6.607  17.956  0.00  0.00    +0.000 A 
ATOM     12  C   UNL     1       4.401   7.004  17.314  0.00  0.00    +0.000 A 
ATOM     13  C   UNL     1       5.255   6.072  16.732  0.00  0.00    +0.000 A 
ATOM     14  C   UNL     1       4.927   4.723  16.763  0.00  0.00    +0.000 A 
ATOM     15  C   UNL     1       3.735   4.289  17.367  0.00  0.00    +0.000 A 
ATOM     16  C   UNL     1       3.403   2.927  17.313  0.00  0.00    +0.000 A 
ATOM     17  C   UNL     1       2.195   2.462  17.824  0.00  0.00    +0.000 A 
ATOM     18  C   UNL     1       1.302   3.360  18.391  0.00  0.00    +0.000 A 
ATOM     19  C   UNL     1       1.623   4.718  18.458  0.00  0.00    +0.000 A 
ATOM     20  C   UNL     1       2.854   5.229  17.974  0.00  0.00    +0.000 A 
ENDBRANCH   9  11
ENDBRANCH   3   5
BRANCH   1  21
ATOM     21  C   UNL     1      -0.189  13.235  18.766  0.00  0.00    +0.000 C 
BRANCH  21  23
ATOM     22  N   UNL     1      -2.340  13.752  19.797  0.00  0.00    +0.000 N 
ATOM     23  C   UNL     1      -1.143  13.064  19.961  0.00  0.00    +0.000 C 
ATOM     24  O   UNL     1      -0.811  12.423  20.955  0.00  0.00    +0.000 OA
ATOM     25  H   UNL     1      -2.227  14.601  19.242  0.00  0.00    +0.000 HD
BRANCH  22  31
ATOM     26  C   UNL     1      -6.463  13.895  23.804  0.00  0.00    +0.000 C 
ATOM     27  C   UNL     1      -5.386  13.856  22.760  0.00  0.00    +0.000 A 
ATOM     28  C   UNL     1      -4.273  14.699  22.834  0.00  0.00    +0.000 A 
ATOM     29  C   UNL     1      -3.267  14.667  21.849  0.00  0.00    +0.000 A 
ATOM     30  C   UNL     1      -2.078  15.574  22.012  0.00  0.00    +0.000 C 
ATOM     31  C   UNL     1      -3.369  13.759  20.774  0.00  0.00    +0.000 A 
ATOM     32  C   UNL     1      -4.515  12.944  20.661  0.00  0.00    +0.000 A 
ATOM     33  C   UNL     1      -4.795  12.056  19.479  0.00  0.00    +0.000 C 
ATOM     34  C   UNL     1      -5.494  12.985  21.675  0.00  0.00    +0.000 A 
ENDBRANCH  22  31
ENDBRANCH  21  23
ENDBRANCH   1  21
TORSDOF 5
ENDMDL
MODEL 9
REMARK VINA RESULT:      -7.6      2.090      3.099
REMARK  Name = 
REMARK  9 active torsions:
REMARK  status: ('A' for Active; 'I' for Inactive)
REMARK    1  A    between atoms: C_1  and  C_2
REMARK    2  A    between atoms: C_4  and  C_5
REMARK    3  A    between atoms: C_6  and  N_7
REMARK    4  A    between atoms: C_8  and  C_10
REMARK    5  A    between atoms: C_10  and  N_11
REMARK    6  A    between atoms: N_11  and  C_12
REMARK    7  A    between atoms: C_13  and  C_15
REMARK    8  A    between atoms: N_19  and  C_20
REMARK    9  A    between atoms: C_31  and  C_32
REMARK                            x       y       z     vdW  Elec       q    Type
REMARK                         _______ _______ _______ _____ _____    ______ ____
ROOT
ATOM      1  N   UNL     1       1.343  11.499  18.655  0.00  0.00    +0.000 N 
ATOM      2  C   UNL     1       2.602  11.787  17.989  0.00  0.00    +0.000 C 
ATOM      3  C   UNL     1       0.841  10.232  18.887  0.00  0.00    +0.000 C 
ATOM      4  O   UNL     1      -0.346  10.105  19.208  0.00  0.00    +0.000 OA
ENDROOT
BRANCH   3   5
ATOM      5  C   UNL     1       1.780   9.023  18.897  0.00  0.00    +0.000 C 
ATOM      6  C   UNL     1       1.503   8.174  20.151  0.00  0.00    +0.000 C 
ATOM      7  C   UNL     1       2.194   6.878  19.844  0.00  0.00    +0.000 C 
ATOM      8  O   UNL     1       2.552   6.073  20.689  0.00  0.00    +0.000 OA
ATOM      9  N   UNL     1       2.345   6.818  18.456  0.00  0.00    +0.000 N 
ATOM     10  C   UNL     1       1.710   7.954  17.811  0.00  0.00    +0.000 C 
BRANCH   9  11
ATOM     11  C   UNL     1       3.038   5.754  17.822  0.00  0.00    +0.000 A 
ATOM     12  C   UNL     1       2.370   4.516  17.729  0.00  0.00    +0.000 A 
ATOM     13  C   UNL     1       3.007   3.386  17.227  0.00  0.00    +0.000 A 
ATOM     14  C   UNL     1       4.333   3.464  16.824  0.00  0.00    +0.000 A 
ATOM     15  C   UNL     1       5.044   4.671  16.929  0.00  0.00    +0.000 A 
ATOM     16  C   UNL     1       6.403   4.692  16.581  0.00  0.00    +0.000 A 
ATOM     17  C   UNL     1       7.169   5.842  16.745  0.00  0.00    +0.000 A 
ATOM     18  C   UNL     1       6.580   6.986  17.266  0.00  0.00    +0.000 A 
ATOM     19  C   UNL     1       5.227   6.982  17.610  0.00  0.00    +0.000 A 
ATOM     20  C   UNL     1       4.405   5.839  17.433  0.00  0.00    +0.000 A 
ENDBRANCH   9  11
ENDBRANCH   3   5
BRANCH   1  21
ATOM     21  C   UNL     1       0.494  12.650  19.021  0.00  0.00    +0.000 C 
BRANCH  21  23
ATOM     22  N   UNL     1      -0.577  13.887  20.831  0.00  0.00    +0.000 N 
ATOM     23  C   UNL     1       0.509  13.087  20.496  0.00  0.00    +0.000 C 
ATOM     24  O   UNL     1       1.435  12.780  21.243  0.00  0.00    +0.000 OA
ATOM     25  H   UNL     1      -0.899  14.454  20.046  0.00  0.00    +0.000 HD
BRANCH  22  31
ATOM     26  C   UNL     1      -1.326  16.192  26.047  0.00  0.00    +0.000 C 
ATOM     27  C   UNL     1      -1.129  15.590  24.687  0.00  0.00    +0.000 A 
ATOM     28  C   UNL     1      -0.474  16.292  23.670  0.00  0.00    +0.000 A 
ATOM     29  C   UNL     1      -0.297  15.729  22.392  0.00  0.00    +0.000 A 
ATOM     30  C   UNL     1       0.451  16.525  21.358  0.00  0.00    +0.000 C 
ATOM     31  C   UNL     1      -0.771  14.426  22.130  0.00  0.00    +0.000 A 
ATOM     32  C   UNL     1      -1.481  13.732  23.131  0.00  0.00    +0.000 A 
ATOM     33  C   UNL     1      -2.158  12.407  22.909  0.00  0.00    +0.000 C 
ATOM     34  C   UNL     1      -1.623  14.315  24.407  0.00  0.00    +0.000 A 
ENDBRANCH  22  31
ENDBRANCH  21  23
ENDBRANCH   1  21
TORSDOF 5
ENDMDL
