MODEL 1
REMARK VINA RESULT:      -9.1      0.000      0.000
REMARK  Name = 
REMARK  11 active torsions:
REMARK  status: ('A' for Active; 'I' for Inactive)
REMARK    1  A    between atoms: C_1  and  C_2
REMARK    2  A    between atoms: C_3  and  C_4
REMARK    3  A    between atoms: C_4  and  C_5
REMARK    4  A    between atoms: C_5  and  C_6
REMARK    5  A    between atoms: C_6  and  N_7
REMARK    6  A    between atoms: C_8  and  C_10
REMARK    7  A    between atoms: C_10  and  C_11
REMARK    8  A    between atoms: C_11  and  C_12
REMARK    9  A    between atoms: C_24  and  O_25
REMARK   10  A    between atoms: O_25  and  C_26
REMARK   11  A    between atoms: N_33  and  C_34
REMARK                            x       y       z     vdW  Elec       q    Type
REMARK                         _______ _______ _______ _____ _____    ______ ____
ROOT
ATOM      1  C   UNL     1       1.835   8.241  17.825  0.00  0.00    +0.000 C 
ENDROOT
BRANCH   1   2
ATOM      2  C   UNL     1       2.826   7.349  18.590  0.00  0.00    +0.000 C 
BRANCH   2   5
ATOM      3  C   UNL     1       5.465   6.853  16.729  0.00  0.00    +0.000 C 
ATOM      4  C   UNL     1       4.432   5.867  17.150  0.00  0.00    +0.000 A 
ATOM      5  C   UNL     1       3.258   6.051  17.884  0.00  0.00    +0.000 A 
ATOM      6  C   UNL     1       2.605   4.765  17.867  0.00  0.00    +0.000 A 
ATOM      7  C   UNL     1       1.394   4.294  18.373  0.00  0.00    +0.000 A 
ATOM      8  C   UNL     1       1.349   2.949  18.730  0.00  0.00    +0.000 A 
ATOM      9  C   UNL     1       2.140   2.001  18.116  0.00  0.00    +0.000 A 
ATOM     10  C   UNL     1       3.207   2.435  17.338  0.00  0.00    +0.000 A 
ATOM     11  C   UNL     1       3.476   3.821  17.317  0.00  0.00    +0.000 A 
ATOM     12  N   UNL     1       4.536   4.528  16.813  0.00  0.00    +0.000 N 
ATOM     13  C   UNL     1       5.613   3.933  16.048  0.00  0.00    +0.000 C 
BRANCH   8  14
ATOM     14  O   UNL     1       0.720   2.572  19.888  0.00  0.00    +0.000 OA
BRANCH  14  15
ATOM     15  C   UNL     1       1.484   3.045  21.010  0.00  0.00    +0.000 C 
ATOM     16  F   UNL     1       1.080   2.520  22.190  0.00  0.00    +0.000 F 
ATOM     17  F   UNL     1       2.791   2.754  20.848  0.00  0.00    +0.000 F 
ATOM     18  F   UNL     1       1.339   4.388  21.109  0.00  0.00    +0.000 F 
ENDBRANCH  14  15
ENDBRANCH   8  14
ENDBRANCH   2   5
ENDBRANCH   1   2
BRANCH   1  19
ATOM     19  C   UNL     1       1.990   9.756  17.975  0.00  0.00    +0.000 C 
BRANCH  19  20
ATOM     20  N   UNL     1       0.681  10.400  17.811  0.00  0.00    +0.000 N 
ATOM     21  C   UNL     1      -0.254  10.461  18.810  0.00  0.00    +0.000 C 
ATOM     22  O   UNL     1      -0.074   9.944  19.910  0.00  0.00    +0.000 OA
ATOM     23  H   UNL     1       0.512  10.894  16.945  0.00  0.00    +0.000 HD
BRANCH  21  24
ATOM     24  C   UNL     1      -1.568  11.193  18.525  0.00  0.00    +0.000 C 
BRANCH  24  25
ATOM     25  C   UNL     1      -2.802  10.391  18.125  0.00  0.00    +0.000 C 
BRANCH  25  26
ATOM     26  C   UNL     1      -4.048  11.185  17.836  0.00  0.00    +0.000 A 
ATOM     27  C   UNL     1      -4.696  11.340  16.633  0.00  0.00    +0.000 A 
ATOM     28  N   UNL     1      -5.840  12.065  16.843  0.00  0.00    +0.000 N 
ATOM     29  C   UNL     1      -5.892  12.512  18.145  0.00  0.00    +0.000 A 
ATOM     30  C   UNL     1      -6.760  13.424  18.750  0.00  0.00    +0.000 A 
ATOM     31  C   UNL     1      -6.368  13.966  19.978  0.00  0.00    +0.000 A 
ATOM     32  C   UNL     1      -5.234  13.497  20.635  0.00  0.00    +0.000 A 
ATOM     33 CL   UNL     1      -4.714  14.259  22.084  0.00  0.00    +0.000 Cl
ATOM     34  C   UNL     1      -4.459  12.470  20.085  0.00  0.00    +0.000 A 
ATOM     35  C   UNL     1      -4.751  12.022  18.787  0.00  0.00    +0.000 A 
ATOM     36  H   UNL     1      -6.426  12.438  16.109  0.00  0.00    +0.000 HD
ENDBRANCH  25  26
ENDBRANCH  24  25
ENDBRANCH  21  24
ENDBRANCH  19  20
ENDBRANCH   1  19
TORSDOF 9
ENDMDL
MODEL 2
REMARK VINA RESULT:      -9.1      0.991      1.312
REMARK  Name = 
REMARK  11 active torsions:
REMARK  status: ('A' for Active; 'I' for Inactive)
REMARK    1  A    between atoms: C_1  and  C_2
REMARK    2  A    between atoms: C_3  and  C_4
REMARK    3  A    between atoms: C_4  and  C_5
REMARK    4  A    between atoms: C_5  and  C_6
REMARK    5  A    between atoms: C_6  and  N_7
REMARK    6  A    between atoms: C_8  and  C_10
REMARK    7  A    between atoms: C_10  and  C_11
REMARK    8  A    between atoms: C_11  and  C_12
REMARK    9  A    between atoms: C_24  and  O_25
REMARK   10  A    between atoms: O_25  and  C_26
REMARK   11  A    between atoms: N_33  and  C_34
REMARK                            x       y       z     vdW  Elec       q    Type
REMARK                         _______ _______ _______ _____ _____    ______ ____
ROOT
ATOM      1  C   UNL     1       2.171   7.382  19.921  0.00  0.00    +0.000 C 
ENDROOT
BRANCH   1   2
ATOM      2  C   UNL     1       2.569   7.428  18.438  0.00  0.00    +0.000 C 
BRANCH   2   5
ATOM      3  C   UNL     1       5.414   7.091  16.869  0.00  0.00    +0.000 C 
ATOM      4  C   UNL     1       4.439   6.033  17.251  0.00  0.00    +0.000 A 
ATOM      5  C   UNL     1       3.186   6.142  17.858  0.00  0.00    +0.000 A 
ATOM      6  C   UNL     1       2.658   4.800  17.860  0.00  0.00    +0.000 A 
ATOM      7  C   UNL     1       1.450   4.241  18.279  0.00  0.00    +0.000 A 
ATOM      8  C   UNL     1       1.493   2.919  18.714  0.00  0.00    +0.000 A 
ATOM      9  C   UNL     1       2.424   2.021  18.237  0.00  0.00    +0.000 A 
ATOM     10  C   UNL     1       3.519   2.515  17.538  0.00  0.00    +0.000 A 
ATOM     11  C   UNL     1       3.661   3.916  17.455  0.00  0.00    +0.000 A 
ATOM     12  N   UNL     1       4.698   4.695  17.010  0.00  0.00    +0.000 N 
ATOM     13  C   UNL     1       5.896   4.167  16.389  0.00  0.00    +0.000 C 
BRANCH   8  14
ATOM     14  O   UNL     1       0.788   2.546  19.828  0.00  0.00    +0.000 OA
BRANCH  14  15
ATOM     15  C   UNL     1       1.437   3.084  20.993  0.00  0.00    +0.000 C 
ATOM     16  F   UNL     1       2.777   2.892  20.995  0.00  0.00    +0.000 F 
ATOM     17  F   UNL     1       1.204   4.408  21.095  0.00  0.00    +0.000 F 
ATOM     18  F   UNL     1       0.952   2.464  22.095  0.00  0.00    +0.000 F 
ENDBRANCH  14  15
ENDBRANCH   8  14
ENDBRANCH   2   5
ENDBRANCH   1   2
BRANCH   1  19
ATOM     19  C   UNL     1       1.437   8.598  20.492  0.00  0.00    +0.000 C 
BRANCH  19  20
ATOM     20  N   UNL     1       0.416   9.046  19.538  0.00  0.00    +0.000 N 
ATOM     21  C   UNL     1       0.064  10.360  19.379  0.00  0.00    +0.000 C 
ATOM     22  O   UNL     1       0.556  11.259  20.058  0.00  0.00    +0.000 OA
ATOM     23  H   UNL     1       0.029   8.352  18.913  0.00  0.00    +0.000 HD
BRANCH  21  24
ATOM     24  C   UNL     1      -0.990  10.702  18.323  0.00  0.00    +0.000 C 
BRANCH  24  25
ATOM     25  C   UNL     1      -2.007  11.802  18.607  0.00  0.00    +0.000 C 
BRANCH  25  26
ATOM     26  C   UNL     1      -3.371  11.623  17.994  0.00  0.00    +0.000 A 
ATOM     27  C   UNL     1      -3.681  11.288  16.696  0.00  0.00    +0.000 A 
ATOM     28  N   UNL     1      -5.040  11.140  16.596  0.00  0.00    +0.000 N 
ATOM     29  C   UNL     1      -5.649  11.505  17.777  0.00  0.00    +0.000 A 
ATOM     30  C   UNL     1      -7.003  11.690  18.072  0.00  0.00    +0.000 A 
ATOM     31  C   UNL     1      -7.316  12.405  19.232  0.00  0.00    +0.000 A 
ATOM     32  C   UNL     1      -6.319  12.780  20.129  0.00  0.00    +0.000 A 
ATOM     33 CL   UNL     1      -6.718  13.755  21.485  0.00  0.00    +0.000 Cl
ATOM     34  C   UNL     1      -4.980  12.449  19.893  0.00  0.00    +0.000 A 
ATOM     35  C   UNL     1      -4.632  11.867  18.664  0.00  0.00    +0.000 A 
ATOM     36  H   UNL     1      -5.543  11.032  15.727  0.00  0.00    +0.000 HD
ENDBRANCH  25  26
ENDBRANCH  24  25
ENDBRANCH  21  24
ENDBRANCH  19  20
ENDBRANCH   1  19
TORSDOF 9
ENDMDL
MODEL 3
REMARK VINA RESULT:      -9.1      2.036      2.743
REMARK  Name = 
REMARK  11 active torsions:
REMARK  status: ('A' for Active; 'I' for Inactive)
REMARK    1  A    between atoms: C_1  and  C_2
REMARK    2  A    between atoms: C_3  and  C_4
REMARK    3  A    between atoms: C_4  and  C_5
REMARK    4  A    between atoms: C_5  and  C_6
REMARK    5  A    between atoms: C_6  and  N_7
REMARK    6  A    between atoms: C_8  and  C_10
REMARK    7  A    between atoms: C_10  and  C_11
REMARK    8  A    between atoms: C_11  and  C_12
REMARK    9  A    between atoms: C_24  and  O_25
REMARK   10  A    between atoms: O_25  and  C_26
REMARK   11  A    between atoms: N_33  and  C_34
REMARK                            x       y       z     vdW  Elec       q    Type
REMARK                         _______ _______ _______ _____ _____    ______ ____
ROOT
ATOM      1  C   UNL     1       2.358   7.410  19.939  0.00  0.00    +0.000 C 
ENDROOT
BRANCH   1   2
ATOM      2  C   UNL     1       2.584   7.404  18.419  0.00  0.00    +0.000 C 
BRANCH   2   5
ATOM      3  C   UNL     1       5.439   7.085  16.863  0.00  0.00    +0.000 C 
ATOM      4  C   UNL     1       4.461   6.023  17.227  0.00  0.00    +0.000 A 
ATOM      5  C   UNL     1       3.205   6.125  17.828  0.00  0.00    +0.000 A 
ATOM      6  C   UNL     1       2.676   4.783  17.811  0.00  0.00    +0.000 A 
ATOM      7  C   UNL     1       1.465   4.220  18.215  0.00  0.00    +0.000 A 
ATOM      8  C   UNL     1       1.505   2.893  18.634  0.00  0.00    +0.000 A 
ATOM      9  C   UNL     1       2.438   2.000  18.153  0.00  0.00    +0.000 A 
ATOM     10  C   UNL     1       3.538   2.501  17.466  0.00  0.00    +0.000 A 
ATOM     11  C   UNL     1       3.681   3.904  17.401  0.00  0.00    +0.000 A 
ATOM     12  N   UNL     1       4.721   4.688  16.971  0.00  0.00    +0.000 N 
ATOM     13  C   UNL     1       5.922   4.167  16.352  0.00  0.00    +0.000 C 
BRANCH   8  14
ATOM     14  O   UNL     1       0.793   2.507  19.740  0.00  0.00    +0.000 OA
BRANCH  14  15
ATOM     15  C   UNL     1       1.346   3.151  20.900  0.00  0.00    +0.000 C 
ATOM     16  F   UNL     1       0.968   2.573  22.063  0.00  0.00    +0.000 F 
ATOM     17  F   UNL     1       2.694   3.144  20.848  0.00  0.00    +0.000 F 
ATOM     18  F   UNL     1       0.913   4.434  20.942  0.00  0.00    +0.000 F 
ENDBRANCH  14  15
ENDBRANCH   8  14
ENDBRANCH   2   5
ENDBRANCH   1   2
BRANCH   1  19
ATOM     19  C   UNL     1       1.193   8.247  20.475  0.00  0.00    +0.000 C 
BRANCH  19  20
ATOM     20  N   UNL     1       1.020   9.439  19.636  0.00  0.00    +0.000 N 
ATOM     21  C   UNL     1       1.024  10.714  20.137  0.00  0.00    +0.000 C 
ATOM     22  O   UNL     1       1.136  10.947  21.338  0.00  0.00    +0.000 OA
ATOM     23  H   UNL     1       0.988   9.301  18.635  0.00  0.00    +0.000 HD
BRANCH  21  24
ATOM     24  C   UNL     1       0.871  11.876  19.153  0.00  0.00    +0.000 C 
BRANCH  24  25
ATOM     25  C   UNL     1      -0.013  13.062  19.524  0.00  0.00    +0.000 C 
BRANCH  25  26
ATOM     26  C   UNL     1      -1.480  12.771  19.698  0.00  0.00    +0.000 A 
ATOM     27  C   UNL     1      -2.252  12.940  20.824  0.00  0.00    +0.000 A 
ATOM     28  N   UNL     1      -3.553  12.641  20.511  0.00  0.00    +0.000 N 
ATOM     29  C   UNL     1      -3.635  12.145  19.228  0.00  0.00    +0.000 A 
ATOM     30  C   UNL     1      -4.707  11.548  18.561  0.00  0.00    +0.000 A 
ATOM     31  C   UNL     1      -4.418  10.814  17.406  0.00  0.00    +0.000 A 
ATOM     32  C   UNL     1      -3.135  10.812  16.866  0.00  0.00    +0.000 A 
ATOM     33 CL   UNL     1      -2.782   9.813  15.515  0.00  0.00    +0.000 Cl
ATOM     34  C   UNL     1      -2.103  11.546  17.464  0.00  0.00    +0.000 A 
ATOM     35  C   UNL     1      -2.340  12.162  18.703  0.00  0.00    +0.000 A 
ATOM     36  H   UNL     1      -4.299  12.549  21.186  0.00  0.00    +0.000 HD
ENDBRANCH  25  26
ENDBRANCH  24  25
ENDBRANCH  21  24
ENDBRANCH  19  20
ENDBRANCH   1  19
TORSDOF 9
ENDMDL
MODEL 4
REMARK VINA RESULT:      -8.9      4.507      6.613
REMARK  Name = 
REMARK  11 active torsions:
REMARK  status: ('A' for Active; 'I' for Inactive)
REMARK    1  A    between atoms: C_1  and  C_2
REMARK    2  A    between atoms: C_3  and  C_4
REMARK    3  A    between atoms: C_4  and  C_5
REMARK    4  A    between atoms: C_5  and  C_6
REMARK    5  A    between atoms: C_6  and  N_7
REMARK    6  A    between atoms: C_8  and  C_10
REMARK    7  A    between atoms: C_10  and  C_11
REMARK    8  A    between atoms: C_11  and  C_12
REMARK    9  A    between atoms: C_24  and  O_25
REMARK   10  A    between atoms: O_25  and  C_26
REMARK   11  A    between atoms: N_33  and  C_34
REMARK                            x       y       z     vdW  Elec       q    Type
REMARK                         _______ _______ _______ _____ _____    ______ ____
ROOT
ATOM      1  C   UNL     1       2.056   2.401  17.429  0.00  0.00    +0.000 C 
ENDROOT
BRANCH   1   2
ATOM      2  C   UNL     1       3.517   2.077  17.781  0.00  0.00    +0.000 C 
BRANCH   2   5
ATOM      3  C   UNL     1       4.703   3.857  20.250  0.00  0.00    +0.000 C 
ATOM      4  C   UNL     1       5.041   3.943  18.803  0.00  0.00    +0.000 A 
ATOM      5  C   UNL     1       4.510   3.252  17.712  0.00  0.00    +0.000 A 
ATOM      6  C   UNL     1       5.136   3.846  16.557  0.00  0.00    +0.000 A 
ATOM      7  C   UNL     1       5.011   3.642  15.182  0.00  0.00    +0.000 A 
ATOM      8  C   UNL     1       6.141   3.898  14.410  0.00  0.00    +0.000 A 
ATOM      9  C   UNL     1       7.090   4.825  14.784  0.00  0.00    +0.000 A 
ATOM     10  C   UNL     1       7.073   5.295  16.092  0.00  0.00    +0.000 A 
ATOM     11  C   UNL     1       6.148   4.710  16.983  0.00  0.00    +0.000 A 
ATOM     12  N   UNL     1       6.011   4.817  18.342  0.00  0.00    +0.000 N 
ATOM     13  C   UNL     1       6.795   5.716  19.165  0.00  0.00    +0.000 C 
BRANCH   8  14
ATOM     14  O   UNL     1       6.479   3.041  13.395  0.00  0.00    +0.000 OA
BRANCH  14  15
ATOM     15  C   UNL     1       5.739   3.398  12.216  0.00  0.00    +0.000 C 
ATOM     16  F   UNL     1       4.541   3.966  12.488  0.00  0.00    +0.000 F 
ATOM     17  F   UNL     1       6.447   4.258  11.455  0.00  0.00    +0.000 F 
ATOM     18  F   UNL     1       5.486   2.278  11.497  0.00  0.00    +0.000 F 
ENDBRANCH  14  15
ENDBRANCH   8  14
ENDBRANCH   2   5
ENDBRANCH   1   2
BRANCH   1  19
ATOM     19  C   UNL     1       1.107   2.721  18.586  0.00  0.00    +0.000 C 
BRANCH  19  20
ATOM     20  N   UNL     1       1.280   4.122  18.987  0.00  0.00    +0.000 N 
ATOM     21  C   UNL     1       1.394   4.519  20.293  0.00  0.00    +0.000 C 
ATOM     22  O   UNL     1       1.320   3.726  21.229  0.00  0.00    +0.000 OA
ATOM     23  H   UNL     1       1.409   4.803  18.251  0.00  0.00    +0.000 HD
BRANCH  21  24
ATOM     24  C   UNL     1       1.607   6.007  20.579  0.00  0.00    +0.000 C 
BRANCH  24  25
ATOM     25  C   UNL     1       2.544   6.816  19.688  0.00  0.00    +0.000 C 
BRANCH  25  26
ATOM     26  C   UNL     1       1.983   8.089  19.112  0.00  0.00    +0.000 A 
ATOM     27  C   UNL     1       2.327   8.712  17.935  0.00  0.00    +0.000 A 
ATOM     28  N   UNL     1       1.501   9.791  17.754  0.00  0.00    +0.000 N 
ATOM     29  C   UNL     1       0.701   9.972  18.862  0.00  0.00    +0.000 A 
ATOM     30  C   UNL     1      -0.145  11.032  19.197  0.00  0.00    +0.000 A 
ATOM     31  C   UNL     1      -0.553  11.132  20.531  0.00  0.00    +0.000 A 
ATOM     32  C   UNL     1      -0.249  10.128  21.446  0.00  0.00    +0.000 A 
ATOM     33 CL   UNL     1      -0.663  10.331  23.101  0.00  0.00    +0.000 Cl
ATOM     34  C   UNL     1       0.470   8.993  21.054  0.00  0.00    +0.000 A 
ATOM     35  C   UNL     1       1.016   8.950  19.761  0.00  0.00    +0.000 A 
ATOM     36  H   UNL     1       1.627  10.498  17.044  0.00  0.00    +0.000 HD
ENDBRANCH  25  26
ENDBRANCH  24  25
ENDBRANCH  21  24
ENDBRANCH  19  20
ENDBRANCH   1  19
TORSDOF 9
ENDMDL
MODEL 5
REMARK VINA RESULT:      -8.9      1.969      2.566
REMARK  Name = 
REMARK  11 active torsions:
REMARK  status: ('A' for Active; 'I' for Inactive)
REMARK    1  A    between atoms: C_1  and  C_2
REMARK    2  A    between atoms: C_3  and  C_4
REMARK    3  A    between atoms: C_4  and  C_5
REMARK    4  A    between atoms: C_5  and  C_6
REMARK    5  A    between atoms: C_6  and  N_7
REMARK    6  A    between atoms: C_8  and  C_10
REMARK    7  A    between atoms: C_10  and  C_11
REMARK    8  A    between atoms: C_11  and  C_12
REMARK    9  A    between atoms: C_24  and  O_25
REMARK   10  A    between atoms: O_25  and  C_26
REMARK   11  A    between atoms: N_33  and  C_34
REMARK                            x       y       z     vdW  Elec       q    Type
REMARK                         _______ _______ _______ _____ _____    ______ ____
ROOT
ATOM      1  C   UNL     1       2.431   8.572  17.546  0.00  0.00    +0.000 C 
ENDROOT
BRANCH   1   2
ATOM      2  C   UNL     1       2.639   7.392  18.509  0.00  0.00    +0.000 C 
BRANCH   2   5
ATOM      3  C   UNL     1       5.485   7.033  16.945  0.00  0.00    +0.000 C 
ATOM      4  C   UNL     1       4.482   5.988  17.292  0.00  0.00    +0.000 A 
ATOM      5  C   UNL     1       3.229   6.109  17.895  0.00  0.00    +0.000 A 
ATOM      6  C   UNL     1       2.669   4.781  17.855  0.00  0.00    +0.000 A 
ATOM      7  C   UNL     1       1.445   4.239  18.251  0.00  0.00    +0.000 A 
ATOM      8  C   UNL     1       1.454   2.904  18.646  0.00  0.00    +0.000 A 
ATOM      9  C   UNL     1       2.366   1.999  18.148  0.00  0.00    +0.000 A 
ATOM     10  C   UNL     1       3.477   2.486  17.470  0.00  0.00    +0.000 A 
ATOM     11  C   UNL     1       3.653   3.886  17.429  0.00  0.00    +0.000 A 
ATOM     12  N   UNL     1       4.710   4.652  17.012  0.00  0.00    +0.000 N 
ATOM     13  C   UNL     1       5.899   4.113  16.382  0.00  0.00    +0.000 C 
BRANCH   8  14
ATOM     14  O   UNL     1       0.734   2.516  19.745  0.00  0.00    +0.000 OA
BRANCH  14  15
ATOM     15  C   UNL     1       1.347   3.066  20.924  0.00  0.00    +0.000 C 
ATOM     16  F   UNL     1       0.926   2.479  22.069  0.00  0.00    +0.000 F 
ATOM     17  F   UNL     1       2.689   2.943  20.860  0.00  0.00    +0.000 F 
ATOM     18  F   UNL     1       1.028   4.378  21.017  0.00  0.00    +0.000 F 
ENDBRANCH  14  15
ENDBRANCH   8  14
ENDBRANCH   2   5
ENDBRANCH   1   2
BRANCH   1  19
ATOM     19  C   UNL     1       1.905   9.881  18.140  0.00  0.00    +0.000 C 
BRANCH  19  20
ATOM     20  N   UNL     1       0.503  10.068  17.747  0.00  0.00    +0.000 N 
ATOM     21  C   UNL     1      -0.538  10.012  18.635  0.00  0.00    +0.000 C 
ATOM     22  O   UNL     1      -0.372   9.762  19.827  0.00  0.00    +0.000 OA
ATOM     23  H   UNL     1       0.322  10.339  16.789  0.00  0.00    +0.000 HD
BRANCH  21  24
ATOM     24  C   UNL     1      -1.953  10.260  18.105  0.00  0.00    +0.000 C 
BRANCH  24  25
ATOM     25  C   UNL     1      -2.562  11.654  18.217  0.00  0.00    +0.000 C 
BRANCH  25  26
ATOM     26  C   UNL     1      -1.763  12.671  18.987  0.00  0.00    +0.000 A 
ATOM     27  C   UNL     1      -0.629  13.340  18.587  0.00  0.00    +0.000 A 
ATOM     28  N   UNL     1      -0.288  14.242  19.562  0.00  0.00    +0.000 N 
ATOM     29  C   UNL     1      -1.100  14.087  20.664  0.00  0.00    +0.000 A 
ATOM     30  C   UNL     1      -1.002  14.648  21.940  0.00  0.00    +0.000 A 
ATOM     31  C   UNL     1      -1.739  14.046  22.964  0.00  0.00    +0.000 A 
ATOM     32  C   UNL     1      -2.647  13.028  22.686  0.00  0.00    +0.000 A 
ATOM     33 CL   UNL     1      -3.453  12.230  23.976  0.00  0.00    +0.000 Cl
ATOM     34  C   UNL     1      -2.846  12.582  21.374  0.00  0.00    +0.000 A 
ATOM     35  C   UNL     1      -2.007  13.069  20.359  0.00  0.00    +0.000 A 
ATOM     36  H   UNL     1       0.578  14.762  19.584  0.00  0.00    +0.000 HD
ENDBRANCH  25  26
ENDBRANCH  24  25
ENDBRANCH  21  24
ENDBRANCH  19  20
ENDBRANCH   1  19
TORSDOF 9
ENDMDL
MODEL 6
REMARK VINA RESULT:      -8.9      1.779      2.332
REMARK  Name = 
REMARK  11 active torsions:
REMARK  status: ('A' for Active; 'I' for Inactive)
REMARK    1  A    between atoms: C_1  and  C_2
REMARK    2  A    between atoms: C_3  and  C_4
REMARK    3  A    between atoms: C_4  and  C_5
REMARK    4  A    between atoms: C_5  and  C_6
REMARK    5  A    between atoms: C_6  and  N_7
REMARK    6  A    between atoms: C_8  and  C_10
REMARK    7  A    between atoms: C_10  and  C_11
REMARK    8  A    between atoms: C_11  and  C_12
REMARK    9  A    between atoms: C_24  and  O_25
REMARK   10  A    between atoms: O_25  and  C_26
REMARK   11  A    between atoms: N_33  and  C_34
REMARK                            x       y       z     vdW  Elec       q    Type
REMARK                         _______ _______ _______ _____ _____    ______ ____
ROOT
ATOM      1  C   UNL     1       2.121   7.449  19.887  0.00  0.00    +0.000 C 
ENDROOT
BRANCH   1   2
ATOM      2  C   UNL     1       2.539   7.490  18.409  0.00  0.00    +0.000 C 
BRANCH   2   5
ATOM      3  C   UNL     1       5.473   7.233  16.996  0.00  0.00    +0.000 C 
ATOM      4  C   UNL     1       4.505   6.149  17.320  0.00  0.00    +0.000 A 
ATOM      5  C   UNL     1       3.219   6.223  17.858  0.00  0.00    +0.000 A 
ATOM      6  C   UNL     1       2.726   4.868  17.825  0.00  0.00    +0.000 A 
ATOM      7  C   UNL     1       1.511   4.278  18.175  0.00  0.00    +0.000 A 
ATOM      8  C   UNL     1       1.564   2.954  18.605  0.00  0.00    +0.000 A 
ATOM      9  C   UNL     1       2.541   2.083  18.176  0.00  0.00    +0.000 A 
ATOM     10  C   UNL     1       3.660   2.607  17.540  0.00  0.00    +0.000 A 
ATOM     11  C   UNL     1       3.771   4.013  17.471  0.00  0.00    +0.000 A 
ATOM     12  N   UNL     1       4.811   4.819  17.087  0.00  0.00    +0.000 N 
ATOM     13  C   UNL     1       6.053   4.325  16.530  0.00  0.00    +0.000 C 
BRANCH   8  14
ATOM     14  O   UNL     1       0.809   2.557  19.678  0.00  0.00    +0.000 OA
BRANCH  14  15
ATOM     15  C   UNL     1       1.299   3.210  20.861  0.00  0.00    +0.000 C 
ATOM     16  F   UNL     1       2.650   3.240  20.934  0.00  0.00    +0.000 F 
ATOM     17  F   UNL     1       0.848   4.479  20.923  0.00  0.00    +0.000 F 
ATOM     18  F   UNL     1       0.865   2.533  21.951  0.00  0.00    +0.000 F 
ENDBRANCH  14  15
ENDBRANCH   8  14
ENDBRANCH   2   5
ENDBRANCH   1   2
BRANCH   1  19
ATOM     19  C   UNL     1       1.582   8.742  20.504  0.00  0.00    +0.000 C 
BRANCH  19  20
ATOM     20  N   UNL     1       0.428   9.210  19.727  0.00  0.00    +0.000 N 
ATOM     21  C   UNL     1       0.444  10.355  18.976  0.00  0.00    +0.000 C 
ATOM     22  O   UNL     1       1.424  11.096  18.930  0.00  0.00    +0.000 OA
ATOM     23  H   UNL     1      -0.379   8.602  19.683  0.00  0.00    +0.000 HD
BRANCH  21  24
ATOM     24  C   UNL     1      -0.813  10.716  18.181  0.00  0.00    +0.000 C 
BRANCH  24  25
ATOM     25  C   UNL     1      -1.414  12.110  18.320  0.00  0.00    +0.000 C 
BRANCH  25  26
ATOM     26  C   UNL     1      -2.083  12.421  19.632  0.00  0.00    +0.000 A 
ATOM     27  C   UNL     1      -1.492  12.655  20.852  0.00  0.00    +0.000 A 
ATOM     28  N   UNL     1      -2.469  12.991  21.753  0.00  0.00    +0.000 N 
ATOM     29  C   UNL     1      -3.715  12.850  21.183  0.00  0.00    +0.000 A 
ATOM     30  C   UNL     1      -4.983  12.899  21.768  0.00  0.00    +0.000 A 
ATOM     31  C   UNL     1      -6.050  12.368  21.035  0.00  0.00    +0.000 A 
ATOM     32  C   UNL     1      -5.872  11.950  19.720  0.00  0.00    +0.000 A 
ATOM     33 CL   UNL     1      -7.170  11.197  18.884  0.00  0.00    +0.000 Cl
ATOM     34  C   UNL     1      -4.623  12.052  19.096  0.00  0.00    +0.000 A 
ATOM     35  C   UNL     1      -3.513  12.440  19.862  0.00  0.00    +0.000 A 
ATOM     36  H   UNL     1      -2.325  13.077  22.750  0.00  0.00    +0.000 HD
ENDBRANCH  25  26
ENDBRANCH  24  25
ENDBRANCH  21  24
ENDBRANCH  19  20
ENDBRANCH   1  19
TORSDOF 9
ENDMDL
MODEL 7
REMARK VINA RESULT:      -8.8      3.192      4.218
REMARK  Name = 
REMARK  11 active torsions:
REMARK  status: ('A' for Active; 'I' for Inactive)
REMARK    1  A    between atoms: C_1  and  C_2
REMARK    2  A    between atoms: C_3  and  C_4
REMARK    3  A    between atoms: C_4  and  C_5
REMARK    4  A    between atoms: C_5  and  C_6
REMARK    5  A    between atoms: C_6  and  N_7
REMARK    6  A    between atoms: C_8  and  C_10
REMARK    7  A    between atoms: C_10  and  C_11
REMARK    8  A    between atoms: C_11  and  C_12
REMARK    9  A    between atoms: C_24  and  O_25
REMARK   10  A    between atoms: O_25  and  C_26
REMARK   11  A    between atoms: N_33  and  C_34
REMARK                            x       y       z     vdW  Elec       q    Type
REMARK                         _______ _______ _______ _____ _____    ______ ____
ROOT
ATOM      1  C   UNL     1       1.690   7.345  19.211  0.00  0.00    +0.000 C 
ENDROOT
BRANCH   1   2
ATOM      2  C   UNL     1       2.827   7.503  18.189  0.00  0.00    +0.000 C 
BRANCH   2   5
ATOM      3  C   UNL     1       5.867   7.126  17.054  0.00  0.00    +0.000 C 
ATOM      4  C   UNL     1       4.840   6.080  17.311  0.00  0.00    +0.000 A 
ATOM      5  C   UNL     1       3.514   6.204  17.728  0.00  0.00    +0.000 A 
ATOM      6  C   UNL     1       2.982   4.864  17.678  0.00  0.00    +0.000 A 
ATOM      7  C   UNL     1       1.723   4.318  17.928  0.00  0.00    +0.000 A 
ATOM      8  C   UNL     1       1.694   3.004  18.388  0.00  0.00    +0.000 A 
ATOM      9  C   UNL     1       2.678   2.094  18.067  0.00  0.00    +0.000 A 
ATOM     10  C   UNL     1       3.866   2.570  17.525  0.00  0.00    +0.000 A 
ATOM     11  C   UNL     1       4.028   3.970  17.438  0.00  0.00    +0.000 A 
ATOM     12  N   UNL     1       5.123   4.736  17.133  0.00  0.00    +0.000 N 
ATOM     13  C   UNL     1       6.394   4.192  16.702  0.00  0.00    +0.000 C 
BRANCH   8  14
ATOM     14  O   UNL     1       0.834   2.655  19.395  0.00  0.00    +0.000 OA
BRANCH  14  15
ATOM     15  C   UNL     1       1.214   3.347  20.596  0.00  0.00    +0.000 C 
ATOM     16  F   UNL     1       2.552   3.517  20.714  0.00  0.00    +0.000 F 
ATOM     17  F   UNL     1       0.632   4.562  20.647  0.00  0.00    +0.000 F 
ATOM     18  F   UNL     1       0.817   2.622  21.669  0.00  0.00    +0.000 F 
ENDBRANCH  14  15
ENDBRANCH   8  14
ENDBRANCH   2   5
ENDBRANCH   1   2
BRANCH   1  19
ATOM     19  C   UNL     1       1.940   7.862  20.630  0.00  0.00    +0.000 C 
BRANCH  19  20
ATOM     20  N   UNL     1       0.728   8.524  21.129  0.00  0.00    +0.000 N 
ATOM     21  C   UNL     1       0.728   9.376  22.201  0.00  0.00    +0.000 C 
ATOM     22  O   UNL     1       1.745   9.619  22.847  0.00  0.00    +0.000 OA
ATOM     23  H   UNL     1      -0.120   8.404  20.592  0.00  0.00    +0.000 HD
BRANCH  21  24
ATOM     24  C   UNL     1      -0.596  10.031  22.601  0.00  0.00    +0.000 C 
BRANCH  24  25
ATOM     25  C   UNL     1      -0.983  11.375  21.992  0.00  0.00    +0.000 C 
BRANCH  25  26
ATOM     26  C   UNL     1      -0.477  11.646  20.600  0.00  0.00    +0.000 A 
ATOM     27  C   UNL     1      -0.908  11.092  19.417  0.00  0.00    +0.000 A 
ATOM     28  N   UNL     1      -0.238  11.693  18.383  0.00  0.00    +0.000 N 
ATOM     29  C   UNL     1       0.730  12.543  18.871  0.00  0.00    +0.000 A 
ATOM     30  C   UNL     1       1.758  13.213  18.203  0.00  0.00    +0.000 A 
ATOM     31  C   UNL     1       2.808  13.715  18.979  0.00  0.00    +0.000 A 
ATOM     32  C   UNL     1       2.748  13.678  20.369  0.00  0.00    +0.000 A 
ATOM     33 CL   UNL     1       4.100  14.196  21.294  0.00  0.00    +0.000 Cl
ATOM     34  C   UNL     1       1.635  13.141  21.025  0.00  0.00    +0.000 A 
ATOM     35  C   UNL     1       0.645  12.498  20.265  0.00  0.00    +0.000 A 
ATOM     36  H   UNL     1      -0.263  11.380  17.423  0.00  0.00    +0.000 HD
ENDBRANCH  25  26
ENDBRANCH  24  25
ENDBRANCH  21  24
ENDBRANCH  19  20
ENDBRANCH   1  19
TORSDOF 9
ENDMDL
MODEL 8
REMARK VINA RESULT:      -8.8      3.318      4.690
REMARK  Name = 
REMARK  11 active torsions:
REMARK  status: ('A' for Active; 'I' for Inactive)
REMARK    1  A    between atoms: C_1  and  C_2
REMARK    2  A    between atoms: C_3  and  C_4
REMARK    3  A    between atoms: C_4  and  C_5
REMARK    4  A    between atoms: C_5  and  C_6
REMARK    5  A    between atoms: C_6  and  N_7
REMARK    6  A    between atoms: C_8  and  C_10
REMARK    7  A    between atoms: C_10  and  C_11
REMARK    8  A    between atoms: C_11  and  C_12
REMARK    9  A    between atoms: C_24  and  O_25
REMARK   10  A    between atoms: O_25  and  C_26
REMARK   11  A    between atoms: N_33  and  C_34
REMARK                            x       y       z     vdW  Elec       q    Type
REMARK                         _______ _______ _______ _____ _____    ______ ____
ROOT
ATOM      1  C   UNL     1       2.290   7.335  20.011  0.00  0.00    +0.000 C 
ENDROOT
BRANCH   1   2
ATOM      2  C   UNL     1       2.497   7.351  18.489  0.00  0.00    +0.000 C 
BRANCH   2   5
ATOM      3  C   UNL     1       5.343   7.098  16.905  0.00  0.00    +0.000 C 
ATOM      4  C   UNL     1       4.385   6.016  17.262  0.00  0.00    +0.000 A 
ATOM      5  C   UNL     1       3.132   6.090  17.875  0.00  0.00    +0.000 A 
ATOM      6  C   UNL     1       2.624   4.740  17.844  0.00  0.00    +0.000 A 
ATOM      7  C   UNL     1       1.426   4.153  18.251  0.00  0.00    +0.000 A 
ATOM      8  C   UNL     1       1.490   2.821  18.652  0.00  0.00    +0.000 A 
ATOM      9  C   UNL     1       2.433   1.950  18.150  0.00  0.00    +0.000 A 
ATOM     10  C   UNL     1       3.519   2.477  17.461  0.00  0.00    +0.000 A 
ATOM     11  C   UNL     1       3.640   3.883  17.414  0.00  0.00    +0.000 A 
ATOM     12  N   UNL     1       4.663   4.688  16.986  0.00  0.00    +0.000 N 
ATOM     13  C   UNL     1       5.867   4.195  16.349  0.00  0.00    +0.000 C 
BRANCH   8  14
ATOM     14  O   UNL     1       0.794   2.409  19.757  0.00  0.00    +0.000 OA
BRANCH  14  15
ATOM     15  C   UNL     1       1.364   3.025  20.925  0.00  0.00    +0.000 C 
ATOM     16  F   UNL     1       0.967   2.448  22.082  0.00  0.00    +0.000 F 
ATOM     17  F   UNL     1       2.711   2.979  20.874  0.00  0.00    +0.000 F 
ATOM     18  F   UNL     1       0.969   4.319  20.979  0.00  0.00    +0.000 F 
ENDBRANCH  14  15
ENDBRANCH   8  14
ENDBRANCH   2   5
ENDBRANCH   1   2
BRANCH   1  19
ATOM     19  C   UNL     1       1.306   8.350  20.600  0.00  0.00    +0.000 C 
BRANCH  19  20
ATOM     20  N   UNL     1       0.914   9.310  19.560  0.00  0.00    +0.000 N 
ATOM     21  C   UNL     1      -0.017  10.293  19.762  0.00  0.00    +0.000 C 
ATOM     22  O   UNL     1      -0.621  10.418  20.826  0.00  0.00    +0.000 OA
ATOM     23  H   UNL     1       1.428   9.287  18.690  0.00  0.00    +0.000 HD
BRANCH  21  24
ATOM     24  C   UNL     1      -0.313  11.255  18.609  0.00  0.00    +0.000 C 
BRANCH  24  25
ATOM     25  C   UNL     1      -0.042  12.745  18.786  0.00  0.00    +0.000 C 
BRANCH  25  26
ATOM     26  C   UNL     1       1.355  13.211  18.472  0.00  0.00    +0.000 A 
ATOM     27  C   UNL     1       2.444  12.449  18.117  0.00  0.00    +0.000 A 
ATOM     28  N   UNL     1       3.489  13.289  17.829  0.00  0.00    +0.000 N 
ATOM     29  C   UNL     1       3.150  14.592  18.120  0.00  0.00    +0.000 A 
ATOM     30  C   UNL     1       3.945  15.740  18.162  0.00  0.00    +0.000 A 
ATOM     31  C   UNL     1       3.429  16.855  18.832  0.00  0.00    +0.000 A 
ATOM     32  C   UNL     1       2.119  16.860  19.301  0.00  0.00    +0.000 A 
ATOM     33 CL   UNL     1       1.550  18.196  20.219  0.00  0.00    +0.000 Cl
ATOM     34  C   UNL     1       1.283  15.753  19.112  0.00  0.00    +0.000 A 
ATOM     35  C   UNL     1       1.830  14.576  18.578  0.00  0.00    +0.000 A 
ATOM     36  H   UNL     1       4.442  12.988  17.676  0.00  0.00    +0.000 HD
ENDBRANCH  25  26
ENDBRANCH  24  25
ENDBRANCH  21  24
ENDBRANCH  19  20
ENDBRANCH   1  19
TORSDOF 9
ENDMDL
MODEL 9
REMARK VINA RESULT:      -8.8      2.085      2.831
REMARK  Name = 
REMARK  11 active torsions:
REMARK  status: ('A' for Active; 'I' for Inactive)
REMARK    1  A    between atoms: C_1  and  C_2
REMARK    2  A    between atoms: C_3  and  C_4
REMARK    3  A    between atoms: C_4  and  C_5
REMARK    4  A    between atoms: C_5  and  C_6
REMARK    5  A    between atoms: C_6  and  N_7
REMARK    6  A    between atoms: C_8  and  C_10
REMARK    7  A    between atoms: C_10  and  C_11
REMARK    8  A    between atoms: C_11  and  C_12
REMARK    9  A    between atoms: C_24  and  O_25
REMARK   10  A    between atoms: O_25  and  C_26
REMARK   11  A    between atoms: N_33  and  C_34
REMARK                            x       y       z     vdW  Elec       q    Type
REMARK                         _______ _______ _______ _____ _____    ______ ____
ROOT
ATOM      1  C   UNL     1       2.493   8.635  17.847  0.00  0.00    +0.000 C 
ENDROOT
BRANCH   1   2
ATOM      2  C   UNL     1       2.788   7.416  18.734  0.00  0.00    +0.000 C 
BRANCH   2   5
ATOM      3  C   UNL     1       5.471   7.009  16.917  0.00  0.00    +0.000 C 
ATOM      4  C   UNL     1       4.448   5.996  17.293  0.00  0.00    +0.000 A 
ATOM      5  C   UNL     1       3.257   6.142  18.007  0.00  0.00    +0.000 A 
ATOM      6  C   UNL     1       2.627   4.846  17.947  0.00  0.00    +0.000 A 
ATOM      7  C   UNL     1       1.415   4.342  18.418  0.00  0.00    +0.000 A 
ATOM      8  C   UNL     1       1.387   2.988  18.742  0.00  0.00    +0.000 A 
ATOM      9  C   UNL     1       2.206   2.070  18.122  0.00  0.00    +0.000 A 
ATOM     10  C   UNL     1       3.281   2.540  17.377  0.00  0.00    +0.000 A 
ATOM     11  C   UNL     1       3.525   3.930  17.393  0.00  0.00    +0.000 A 
ATOM     12  N   UNL     1       4.583   4.668  16.927  0.00  0.00    +0.000 N 
ATOM     13  C   UNL     1       5.685   4.109  16.171  0.00  0.00    +0.000 C 
BRANCH   8  14
ATOM     14  O   UNL     1       0.742   2.574  19.878  0.00  0.00    +0.000 OA
BRANCH  14  15
ATOM     15  C   UNL     1       1.471   3.038  21.026  0.00  0.00    +0.000 C 
ATOM     16  F   UNL     1       1.428   4.382  21.179  0.00  0.00    +0.000 F 
ATOM     17  F   UNL     1       0.990   2.473  22.152  0.00  0.00    +0.000 F 
ATOM     18  F   UNL     1       2.776   2.703  20.886  0.00  0.00    +0.000 F 
ENDBRANCH  14  15
ENDBRANCH   8  14
ENDBRANCH   2   5
ENDBRANCH   1   2
BRANCH   1  19
ATOM     19  C   UNL     1       1.026   8.948  17.543  0.00  0.00    +0.000 C 
BRANCH  19  20
ATOM     20  N   UNL     1       0.713  10.309  17.995  0.00  0.00    +0.000 N 
ATOM     21  C   UNL     1      -0.088  10.574  19.074  0.00  0.00    +0.000 C 
ATOM     22  O   UNL     1      -0.634   9.683  19.722  0.00  0.00    +0.000 OA
ATOM     23  H   UNL     1       1.189  11.072  17.533  0.00  0.00    +0.000 HD
BRANCH  21  24
ATOM     24  C   UNL     1      -0.308  12.037  19.467  0.00  0.00    +0.000 C 
BRANCH  24  25
ATOM     25  C   UNL     1      -1.692  12.491  19.921  0.00  0.00    +0.000 C 
BRANCH  25  26
ATOM     26  C   UNL     1      -1.991  12.352  21.390  0.00  0.00    +0.000 A 
ATOM     27  C   UNL     1      -1.189  11.821  22.373  0.00  0.00    +0.000 A 
ATOM     28  N   UNL     1      -1.816  11.980  23.582  0.00  0.00    +0.000 N 
ATOM     29  C   UNL     1      -3.084  12.487  23.400  0.00  0.00    +0.000 A 
ATOM     30  C   UNL     1      -4.133  12.635  24.311  0.00  0.00    +0.000 A 
ATOM     31  C   UNL     1      -5.415  12.834  23.788  0.00  0.00    +0.000 A 
ATOM     32  C   UNL     1      -5.605  13.029  22.423  0.00  0.00    +0.000 A 
ATOM     33 CL   UNL     1      -7.199  13.157  21.795  0.00  0.00    +0.000 Cl
ATOM     34  C   UNL     1      -4.519  13.032  21.539  0.00  0.00    +0.000 A 
ATOM     35  C   UNL     1      -3.250  12.683  22.026  0.00  0.00    +0.000 A 
ATOM     36  H   UNL     1      -1.510  11.557  24.447  0.00  0.00    +0.000 HD
ENDBRANCH  25  26
ENDBRANCH  24  25
ENDBRANCH  21  24
ENDBRANCH  19  20
ENDBRANCH   1  19
TORSDOF 9
ENDMDL
