MODEL 1
REMARK VINA RESULT:      -8.7      0.000      0.000
REMARK  Name = 
REMARK  4 active torsions:
REMARK  status: ('A' for Active; 'I' for Inactive)
REMARK    1  A    between atoms: C_2  and  C_3
REMARK    2  A    between atoms: N_7  and  S_8
REMARK    3  A    between atoms: S_8  and  C_11
REMARK    4  A    between atoms: N_24  and  C_25
REMARK                            x       y       z     vdW  Elec       q    Type
REMARK                         _______ _______ _______ _____ _____    ______ ____
ROOT
ATOM      1  C   UNL     1       2.280   5.287  18.264  0.00  0.00    +0.000 C 
ATOM      2  C   UNL     1       2.064   3.794  18.516  0.00  0.00    +0.000 C 
ATOM      3  C   UNL     1       3.240   3.145  19.233  0.00  0.00    +0.000 C 
ATOM      4  C   UNL     1       4.552   3.408  18.506  0.00  0.00    +0.000 C 
ATOM      5  N   UNL     1       4.790   4.874  18.329  0.00  0.00    +0.000 NA
ATOM      6  C   UNL     1       3.652   5.570  17.639  0.00  0.00    +0.000 C 
ENDROOT
BRANCH   1   8
ATOM      7  O   UNL     1       1.780   5.638  20.594  0.00  0.00    +0.000 OA
ATOM      8  C   UNL     1       2.033   6.156  19.505  0.00  0.00    +0.000 C 
ATOM      9  N   UNL     1       2.107   7.535  19.367  0.00  0.00    +0.000 N 
ATOM     10  C   UNL     1       2.311   8.293  18.122  0.00  0.00    +0.000 C 
ATOM     11  C   UNL     1       1.140   9.256  17.859  0.00  0.00    +0.000 C 
ATOM     12  N   UNL     1       0.881  10.109  19.027  0.00  0.00    +0.000 N 
ATOM     13  C   UNL     1       0.718   9.398  20.311  0.00  0.00    +0.000 C 
ATOM     14  C   UNL     1       1.873   8.396  20.541  0.00  0.00    +0.000 C 
BRANCH  12  15
ATOM     15  C   UNL     1       1.120  11.470  19.010  0.00  0.00    +0.000 A 
ATOM     16  C   UNL     1       2.221  11.995  18.314  0.00  0.00    +0.000 A 
ATOM     17  C   UNL     1       2.502  13.364  18.301  0.00  0.00    +0.000 A 
ATOM     18  C   UNL     1       1.680  14.250  18.990  0.00  0.00    +0.000 A 
ATOM     19  C   UNL     1       0.584  13.759  19.692  0.00  0.00    +0.000 A 
ATOM     20  C   UNL     1       0.314  12.387  19.702  0.00  0.00    +0.000 A 
ENDBRANCH  12  15
ENDBRANCH   1   8
BRANCH   5  21
ATOM     21  S   UNL     1       6.330   5.236  17.581  0.00  0.00    +0.000 S 
ATOM     22  O   UNL     1       6.463   6.680  17.583  0.00  0.00    +0.000 OA
ATOM     23  O   UNL     1       7.314   4.372  18.189  0.00  0.00    +0.000 OA
BRANCH  21  24
ATOM     24  C   UNL     1       6.167   4.721  15.912  0.00  0.00    +0.000 A 
ATOM     25  C   UNL     1       5.129   3.869  15.475  0.00  0.00    +0.000 A 
ATOM     26  C   UNL     1       5.012   3.428  14.129  0.00  0.00    +0.000 A 
ATOM     27  C   UNL     1       5.914   3.795  13.117  0.00  0.00    +0.000 A 
ATOM     28  C   UNL     1       6.948   4.655  13.533  0.00  0.00    +0.000 A 
ATOM     29  N   UNL     1       7.932   5.194  12.804  0.00  0.00    +0.000 NA
ATOM     30  O   UNL     1       8.668   5.966  13.683  0.00  0.00    +0.000 OA
ATOM     31  N   UNL     1       8.166   5.905  14.971  0.00  0.00    +0.000 NA
ATOM     32  C   UNL     1       7.086   5.112  14.917  0.00  0.00    +0.000 A 
ENDBRANCH  21  24
ENDBRANCH   5  21
TORSDOF 4
ENDMDL
MODEL 2
REMARK VINA RESULT:      -8.5      3.284      5.404
REMARK  Name = 
REMARK  4 active torsions:
REMARK  status: ('A' for Active; 'I' for Inactive)
REMARK    1  A    between atoms: C_2  and  C_3
REMARK    2  A    between atoms: N_7  and  S_8
REMARK    3  A    between atoms: S_8  and  C_11
REMARK    4  A    between atoms: N_24  and  C_25
REMARK                            x       y       z     vdW  Elec       q    Type
REMARK                         _______ _______ _______ _____ _____    ______ ____
ROOT
ATOM      1  C   UNL     1       3.191   7.439  18.839  0.00  0.00    +0.000 C 
ATOM      2  C   UNL     1       4.595   7.396  18.235  0.00  0.00    +0.000 C 
ATOM      3  C   UNL     1       4.637   6.665  16.900  0.00  0.00    +0.000 C 
ATOM      4  C   UNL     1       4.028   5.274  17.004  0.00  0.00    +0.000 C 
ATOM      5  N   UNL     1       2.627   5.333  17.527  0.00  0.00    +0.000 NA
ATOM      6  C   UNL     1       2.525   6.058  18.839  0.00  0.00    +0.000 C 
ENDROOT
BRANCH   1   8
ATOM      7  O   UNL     1       2.459   8.856  17.033  0.00  0.00    +0.000 OA
ATOM      8  C   UNL     1       2.287   8.504  18.202  0.00  0.00    +0.000 C 
ATOM      9  N   UNL     1       1.274   9.053  18.974  0.00  0.00    +0.000 N 
ATOM     10  C   UNL     1       1.006   8.799  20.399  0.00  0.00    +0.000 C 
ATOM     11  C   UNL     1       1.075  10.098  21.219  0.00  0.00    +0.000 C 
ATOM     12  N   UNL     1       0.215  11.139  20.639  0.00  0.00    +0.000 N 
ATOM     13  C   UNL     1       0.410  11.397  19.198  0.00  0.00    +0.000 C 
ATOM     14  C   UNL     1       0.391  10.079  18.390  0.00  0.00    +0.000 C 
BRANCH  12  15
ATOM     15  C   UNL     1      -0.923  11.592  21.279  0.00  0.00    +0.000 A 
ATOM     16  C   UNL     1      -1.924  12.273  20.566  0.00  0.00    +0.000 A 
ATOM     17  C   UNL     1      -3.072  12.765  21.193  0.00  0.00    +0.000 A 
ATOM     18  C   UNL     1      -3.251  12.584  22.560  0.00  0.00    +0.000 A 
ATOM     19  C   UNL     1      -2.275  11.916  23.294  0.00  0.00    +0.000 A 
ATOM     20  C   UNL     1      -1.128  11.432  22.659  0.00  0.00    +0.000 A 
ENDBRANCH  12  15
ENDBRANCH   1   8
BRANCH   5  21
ATOM     21  S   UNL     1       1.846   3.768  17.581  0.00  0.00    +0.000 S 
ATOM     22  O   UNL     1       0.436   4.000  17.333  0.00  0.00    +0.000 OA
ATOM     23  O   UNL     1       2.632   2.870  16.768  0.00  0.00    +0.000 OA
BRANCH  21  24
ATOM     24  C   UNL     1       2.011   3.223  19.240  0.00  0.00    +0.000 A 
ATOM     25  C   UNL     1       0.948   3.276  20.169  0.00  0.00    +0.000 A 
ATOM     26  C   UNL     1       1.087   2.861  21.520  0.00  0.00    +0.000 A 
ATOM     27  C   UNL     1       2.289   2.366  22.054  0.00  0.00    +0.000 A 
ATOM     28  C   UNL     1       3.355   2.294  21.139  0.00  0.00    +0.000 A 
ATOM     29  N   UNL     1       4.600   1.846  21.337  0.00  0.00    +0.000 NA
ATOM     30  O   UNL     1       5.244   1.981  20.121  0.00  0.00    +0.000 OA
ATOM     31  N   UNL     1       4.418   2.530  19.156  0.00  0.00    +0.000 NA
ATOM     32  C   UNL     1       3.229   2.725  19.744  0.00  0.00    +0.000 A 
ENDBRANCH  21  24
ENDBRANCH   5  21
TORSDOF 4
ENDMDL
MODEL 3
REMARK VINA RESULT:      -8.2      5.992     12.138
REMARK  Name = 
REMARK  4 active torsions:
REMARK  status: ('A' for Active; 'I' for Inactive)
REMARK    1  A    between atoms: C_2  and  C_3
REMARK    2  A    between atoms: N_7  and  S_8
REMARK    3  A    between atoms: S_8  and  C_11
REMARK    4  A    between atoms: N_24  and  C_25
REMARK                            x       y       z     vdW  Elec       q    Type
REMARK                         _______ _______ _______ _____ _____    ______ ____
ROOT
ATOM      1  C   UNL     1      -1.070  12.466  19.923  0.00  0.00    +0.000 C 
ATOM      2  C   UNL     1      -0.418  13.795  20.307  0.00  0.00    +0.000 C 
ATOM      3  C   UNL     1      -1.220  14.562  21.349  0.00  0.00    +0.000 C 
ATOM      4  C   UNL     1      -2.666  14.752  20.913  0.00  0.00    +0.000 C 
ATOM      5  N   UNL     1      -3.318  13.440  20.611  0.00  0.00    +0.000 NA
ATOM      6  C   UNL     1      -2.559  12.633  19.597  0.00  0.00    +0.000 C 
ENDROOT
BRANCH   1   8
ATOM      7  O   UNL     1      -1.074  11.545  22.149  0.00  0.00    +0.000 OA
ATOM      8  C   UNL     1      -0.838  11.353  20.954  0.00  0.00    +0.000 C 
ATOM      9  N   UNL     1      -0.361  10.130  20.506  0.00  0.00    +0.000 N 
ATOM     10  C   UNL     1       0.047   9.785  19.134  0.00  0.00    +0.000 C 
ATOM     11  C   UNL     1       1.516   9.331  19.088  0.00  0.00    +0.000 C 
ATOM     12  N   UNL     1       1.772   8.260  20.061  0.00  0.00    +0.000 N 
ATOM     13  C   UNL     1       1.335   8.538  21.444  0.00  0.00    +0.000 C 
ATOM     14  C   UNL     1      -0.126   9.043  21.473  0.00  0.00    +0.000 C 
BRANCH  12  15
ATOM     15  C   UNL     1       2.064   6.967  19.669  0.00  0.00    +0.000 A 
ATOM     16  C   UNL     1       1.900   5.894  20.561  0.00  0.00    +0.000 A 
ATOM     17  C   UNL     1       2.213   4.580  20.201  0.00  0.00    +0.000 A 
ATOM     18  C   UNL     1       2.700   4.305  18.928  0.00  0.00    +0.000 A 
ATOM     19  C   UNL     1       2.876   5.347  18.023  0.00  0.00    +0.000 A 
ATOM     20  C   UNL     1       2.565   6.659  18.395  0.00  0.00    +0.000 A 
ENDBRANCH  12  15
ENDBRANCH   1   8
BRANCH   5  21
ATOM     21  S   UNL     1      -5.011  13.594  20.193  0.00  0.00    +0.000 S 
ATOM     22  O   UNL     1      -5.208  14.963  19.756  0.00  0.00    +0.000 OA
ATOM     23  O   UNL     1      -5.350  12.464  19.360  0.00  0.00    +0.000 OA
BRANCH  21  24
ATOM     24  C   UNL     1      -5.881  13.389  21.702  0.00  0.00    +0.000 A 
ATOM     25  C   UNL     1      -7.218  13.811  21.875  0.00  0.00    +0.000 A 
ATOM     26  C   UNL     1      -7.915  13.671  23.104  0.00  0.00    +0.000 A 
ATOM     27  C   UNL     1      -7.342  13.106  24.255  0.00  0.00    +0.000 A 
ATOM     28  C   UNL     1      -6.014  12.667  24.097  0.00  0.00    +0.000 A 
ATOM     29  N   UNL     1      -5.218  12.069  24.991  0.00  0.00    +0.000 NA
ATOM     30  O   UNL     1      -4.025  11.836  24.333  0.00  0.00    +0.000 OA
ATOM     31  N   UNL     1      -4.054  12.301  23.030  0.00  0.00    +0.000 NA
ATOM     32  C   UNL     1      -5.279  12.810  22.839  0.00  0.00    +0.000 A 
ENDBRANCH  21  24
ENDBRANCH   5  21
TORSDOF 4
ENDMDL
MODEL 4
REMARK VINA RESULT:      -8.2      6.453     12.062
REMARK  Name = 
REMARK  4 active torsions:
REMARK  status: ('A' for Active; 'I' for Inactive)
REMARK    1  A    between atoms: C_2  and  C_3
REMARK    2  A    between atoms: N_7  and  S_8
REMARK    3  A    between atoms: S_8  and  C_11
REMARK    4  A    between atoms: N_24  and  C_25
REMARK                            x       y       z     vdW  Elec       q    Type
REMARK                         _______ _______ _______ _____ _____    ______ ____
ROOT
ATOM      1  C   UNL     1      -1.840  12.543  21.191  0.00  0.00    +0.000 C 
ATOM      2  C   UNL     1      -1.198  13.929  21.263  0.00  0.00    +0.000 C 
ATOM      3  C   UNL     1      -1.612  14.702  22.508  0.00  0.00    +0.000 C 
ATOM      4  C   UNL     1      -3.127  14.777  22.642  0.00  0.00    +0.000 C 
ATOM      5  N   UNL     1      -3.739  13.412  22.644  0.00  0.00    +0.000 NA
ATOM      6  C   UNL     1      -3.352  12.598  21.443  0.00  0.00    +0.000 C 
ENDROOT
BRANCH   1   8
ATOM      7  O   UNL     1      -1.059  11.694  23.305  0.00  0.00    +0.000 OA
ATOM      8  C   UNL     1      -1.154  11.507  22.090  0.00  0.00    +0.000 C 
ATOM      9  N   UNL     1      -0.648  10.356  21.502  0.00  0.00    +0.000 N 
ATOM     10  C   UNL     1      -0.609  10.038  20.065  0.00  0.00    +0.000 C 
ATOM     11  C   UNL     1       0.834   9.807  19.585  0.00  0.00    +0.000 C 
ATOM     12  N   UNL     1       1.520   8.813  20.423  0.00  0.00    +0.000 N 
ATOM     13  C   UNL     1       1.466   9.061  21.878  0.00  0.00    +0.000 C 
ATOM     14  C   UNL     1       0.018   9.343  22.340  0.00  0.00    +0.000 C 
BRANCH  12  15
ATOM     15  C   UNL     1       1.877   7.568  19.942  0.00  0.00    +0.000 A 
ATOM     16  C   UNL     1       2.457   7.431  18.670  0.00  0.00    +0.000 A 
ATOM     17  C   UNL     1       2.804   6.182  18.147  0.00  0.00    +0.000 A 
ATOM     18  C   UNL     1       2.579   5.029  18.892  0.00  0.00    +0.000 A 
ATOM     19  C   UNL     1       2.002   5.132  20.154  0.00  0.00    +0.000 A 
ATOM     20  C   UNL     1       1.655   6.386  20.666  0.00  0.00    +0.000 A 
ENDBRANCH  12  15
ENDBRANCH   1   8
BRANCH   5  21
ATOM     21  S   UNL     1      -5.472  13.436  22.888  0.00  0.00    +0.000 S 
ATOM     22  O   UNL     1      -5.787  12.297  23.730  0.00  0.00    +0.000 OA
ATOM     23  O   UNL     1      -5.834  14.785  23.253  0.00  0.00    +0.000 OA
BRANCH  21  24
ATOM     24  C   UNL     1      -6.168  13.135  21.307  0.00  0.00    +0.000 A 
ATOM     25  C   UNL     1      -6.713  11.885  20.939  0.00  0.00    +0.000 A 
ATOM     26  C   UNL     1      -7.252  11.632  19.650  0.00  0.00    +0.000 A 
ATOM     27  C   UNL     1      -7.291  12.595  18.627  0.00  0.00    +0.000 A 
ATOM     28  C   UNL     1      -6.764  13.851  18.981  0.00  0.00    +0.000 A 
ATOM     29  N   UNL     1      -6.686  14.964  18.243  0.00  0.00    +0.000 NA
ATOM     30  O   UNL     1      -6.098  15.913  19.058  0.00  0.00    +0.000 OA
ATOM     31  N   UNL     1      -5.785  15.401  20.306  0.00  0.00    +0.000 NA
ATOM     32  C   UNL     1      -6.198  14.126  20.304  0.00  0.00    +0.000 A 
ENDBRANCH  21  24
ENDBRANCH   5  21
TORSDOF 4
ENDMDL
MODEL 5
REMARK VINA RESULT:      -8.2      1.103      1.588
REMARK  Name = 
REMARK  4 active torsions:
REMARK  status: ('A' for Active; 'I' for Inactive)
REMARK    1  A    between atoms: C_2  and  C_3
REMARK    2  A    between atoms: N_7  and  S_8
REMARK    3  A    between atoms: S_8  and  C_11
REMARK    4  A    between atoms: N_24  and  C_25
REMARK                            x       y       z     vdW  Elec       q    Type
REMARK                         _______ _______ _______ _____ _____    ______ ____
ROOT
ATOM      1  C   UNL     1       2.289   5.911  18.135  0.00  0.00    +0.000 C 
ATOM      2  C   UNL     1       1.741   4.513  17.846  0.00  0.00    +0.000 C 
ATOM      3  C   UNL     1       2.713   3.409  18.240  0.00  0.00    +0.000 C 
ATOM      4  C   UNL     1       4.082   3.617  17.606  0.00  0.00    +0.000 C 
ATOM      5  N   UNL     1       4.642   4.959  17.955  0.00  0.00    +0.000 NA
ATOM      6  C   UNL     1       3.716   6.087  17.601  0.00  0.00    +0.000 C 
ENDROOT
BRANCH   1   8
ATOM      7  O   UNL     1       2.264   5.463  20.501  0.00  0.00    +0.000 OA
ATOM      8  C   UNL     1       2.183   6.313  19.612  0.00  0.00    +0.000 C 
ATOM      9  N   UNL     1       1.998   7.654  19.917  0.00  0.00    +0.000 N 
ATOM     10  C   UNL     1       1.795   8.760  18.967  0.00  0.00    +0.000 C 
ATOM     11  C   UNL     1       0.454   9.471  19.218  0.00  0.00    +0.000 C 
ATOM     12  N   UNL     1       0.322   9.876  20.625  0.00  0.00    +0.000 N 
ATOM     13  C   UNL     1       0.565   8.811  21.619  0.00  0.00    +0.000 C 
ATOM     14  C   UNL     1       1.890   8.070  21.327  0.00  0.00    +0.000 C 
BRANCH  12  15
ATOM     15  C   UNL     1       0.326  11.203  21.010  0.00  0.00    +0.000 A 
ATOM     16  C   UNL     1      -0.676  11.706  21.856  0.00  0.00    +0.000 A 
ATOM     17  C   UNL     1      -0.712  13.049  22.241  0.00  0.00    +0.000 A 
ATOM     18  C   UNL     1       0.264  13.930  21.785  0.00  0.00    +0.000 A 
ATOM     19  C   UNL     1       1.268  13.462  20.943  0.00  0.00    +0.000 A 
ATOM     20  C   UNL     1       1.292  12.117  20.560  0.00  0.00    +0.000 A 
ENDBRANCH  12  15
ENDBRANCH   1   8
BRANCH   5  21
ATOM     21  S   UNL     1       6.256   5.215  17.329  0.00  0.00    +0.000 S 
ATOM     22  O   UNL     1       6.495   6.645  17.370  0.00  0.00    +0.000 OA
ATOM     23  O   UNL     1       7.125   4.271  17.990  0.00  0.00    +0.000 OA
BRANCH  21  24
ATOM     24  C   UNL     1       6.180   4.738  15.643  0.00  0.00    +0.000 A 
ATOM     25  C   UNL     1       5.160   3.906  15.131  0.00  0.00    +0.000 A 
ATOM     26  C   UNL     1       5.113   3.497  13.771  0.00  0.00    +0.000 A 
ATOM     27  C   UNL     1       6.072   3.878  12.818  0.00  0.00    +0.000 A 
ATOM     28  C   UNL     1       7.088   4.718  13.308  0.00  0.00    +0.000 A 
ATOM     29  N   UNL     1       8.115   5.264  12.646  0.00  0.00    +0.000 NA
ATOM     30  O   UNL     1       8.809   6.009  13.581  0.00  0.00    +0.000 OA
ATOM     31  N   UNL     1       8.237   5.924  14.838  0.00  0.00    +0.000 NA
ATOM     32  C   UNL     1       7.155   5.143  14.708  0.00  0.00    +0.000 A 
ENDBRANCH  21  24
ENDBRANCH   5  21
TORSDOF 4
ENDMDL
MODEL 6
REMARK VINA RESULT:      -8.1      5.887     11.936
REMARK  Name = 
REMARK  4 active torsions:
REMARK  status: ('A' for Active; 'I' for Inactive)
REMARK    1  A    between atoms: C_2  and  C_3
REMARK    2  A    between atoms: N_7  and  S_8
REMARK    3  A    between atoms: S_8  and  C_11
REMARK    4  A    between atoms: N_24  and  C_25
REMARK                            x       y       z     vdW  Elec       q    Type
REMARK                         _______ _______ _______ _____ _____    ______ ____
ROOT
ATOM      1  C   UNL     1      -1.018  12.506  19.874  0.00  0.00    +0.000 C 
ATOM      2  C   UNL     1       0.284  13.250  19.576  0.00  0.00    +0.000 C 
ATOM      3  C   UNL     1       0.644  14.258  20.658  0.00  0.00    +0.000 C 
ATOM      4  C   UNL     1      -0.504  15.222  20.929  0.00  0.00    +0.000 C 
ATOM      5  N   UNL     1      -1.755  14.486  21.292  0.00  0.00    +0.000 NA
ATOM      6  C   UNL     1      -2.149  13.466  20.263  0.00  0.00    +0.000 C 
ENDROOT
BRANCH   1   8
ATOM      7  O   UNL     1      -1.138  11.563  22.087  0.00  0.00    +0.000 OA
ATOM      8  C   UNL     1      -0.853  11.379  20.902  0.00  0.00    +0.000 C 
ATOM      9  N   UNL     1      -0.381  10.151  20.461  0.00  0.00    +0.000 N 
ATOM     10  C   UNL     1       0.080   9.812  19.104  0.00  0.00    +0.000 C 
ATOM     11  C   UNL     1       1.541   9.329  19.117  0.00  0.00    +0.000 C 
ATOM     12  N   UNL     1       1.733   8.243  20.088  0.00  0.00    +0.000 N 
ATOM     13  C   UNL     1       1.241   8.516  21.454  0.00  0.00    +0.000 C 
ATOM     14  C   UNL     1      -0.210   9.049  21.425  0.00  0.00    +0.000 C 
BRANCH  12  15
ATOM     15  C   UNL     1       2.017   6.949  19.696  0.00  0.00    +0.000 A 
ATOM     16  C   UNL     1       2.506   6.682  18.406  0.00  0.00    +0.000 A 
ATOM     17  C   UNL     1       2.777   5.381  17.973  0.00  0.00    +0.000 A 
ATOM     18  C   UNL     1       2.564   4.305  18.829  0.00  0.00    +0.000 A 
ATOM     19  C   UNL     1       2.078   4.537  20.111  0.00  0.00    +0.000 A 
ATOM     20  C   UNL     1       1.806   5.842  20.532  0.00  0.00    +0.000 A 
ENDBRANCH  12  15
ENDBRANCH   1   8
BRANCH   5  21
ATOM     21  S   UNL     1      -3.082  15.549  21.704  0.00  0.00    +0.000 S 
ATOM     22  O   UNL     1      -2.729  16.187  22.958  0.00  0.00    +0.000 OA
ATOM     23  O   UNL     1      -3.406  16.309  20.519  0.00  0.00    +0.000 OA
BRANCH  21  24
ATOM     24  C   UNL     1      -4.446  14.490  22.013  0.00  0.00    +0.000 A 
ATOM     25  C   UNL     1      -5.575  14.433  21.165  0.00  0.00    +0.000 A 
ATOM     26  C   UNL     1      -6.692  13.597  21.429  0.00  0.00    +0.000 A 
ATOM     27  C   UNL     1      -6.777  12.756  22.551  0.00  0.00    +0.000 A 
ATOM     28  C   UNL     1      -5.655  12.790  23.400  0.00  0.00    +0.000 A 
ATOM     29  N   UNL     1      -5.430  12.092  24.518  0.00  0.00    +0.000 NA
ATOM     30  O   UNL     1      -4.182  12.486  24.961  0.00  0.00    +0.000 OA
ATOM     31  N   UNL     1      -3.621  13.447  24.137  0.00  0.00    +0.000 NA
ATOM     32  C   UNL     1      -4.499  13.652  23.146  0.00  0.00    +0.000 A 
ENDBRANCH  21  24
ENDBRANCH   5  21
TORSDOF 4
ENDMDL
MODEL 7
REMARK VINA RESULT:      -8.1      5.336     11.165
REMARK  Name = 
REMARK  4 active torsions:
REMARK  status: ('A' for Active; 'I' for Inactive)
REMARK    1  A    between atoms: C_2  and  C_3
REMARK    2  A    between atoms: N_7  and  S_8
REMARK    3  A    between atoms: S_8  and  C_11
REMARK    4  A    between atoms: N_24  and  C_25
REMARK                            x       y       z     vdW  Elec       q    Type
REMARK                         _______ _______ _______ _____ _____    ______ ____
ROOT
ATOM      1  C   UNL     1       0.841  12.473  18.627  0.00  0.00    +0.000 C 
ATOM      2  C   UNL     1       2.313  12.725  18.299  0.00  0.00    +0.000 C 
ATOM      3  C   UNL     1       2.964  13.718  19.252  0.00  0.00    +0.000 C 
ATOM      4  C   UNL     1       2.175  15.019  19.330  0.00  0.00    +0.000 C 
ATOM      5  N   UNL     1       0.754  14.767  19.723  0.00  0.00    +0.000 NA
ATOM      6  C   UNL     1       0.066  13.781  18.824  0.00  0.00    +0.000 C 
ENDROOT
BRANCH   1   8
ATOM      7  O   UNL     1       0.417  11.944  20.939  0.00  0.00    +0.000 OA
ATOM      8  C   UNL     1       0.637  11.511  19.805  0.00  0.00    +0.000 C 
ATOM      9  N   UNL     1       0.701  10.147  19.560  0.00  0.00    +0.000 N 
ATOM     10  C   UNL     1       1.040   9.489  18.287  0.00  0.00    +0.000 C 
ATOM     11  C   UNL     1       2.275   8.584  18.440  0.00  0.00    +0.000 C 
ATOM     12  N   UNL     1       2.109   7.644  19.559  0.00  0.00    +0.000 N 
ATOM     13  C   UNL     1       1.720   8.251  20.847  0.00  0.00    +0.000 C 
ATOM     14  C   UNL     1       0.511   9.199  20.673  0.00  0.00    +0.000 C 
BRANCH  12  15
ATOM     15  C   UNL     1       1.974   6.283  19.360  0.00  0.00    +0.000 A 
ATOM     16  C   UNL     1       1.603   5.438  20.419  0.00  0.00    +0.000 A 
ATOM     17  C   UNL     1       1.484   4.056  20.254  0.00  0.00    +0.000 A 
ATOM     18  C   UNL     1       1.734   3.479  19.013  0.00  0.00    +0.000 A 
ATOM     19  C   UNL     1       2.106   4.290  17.945  0.00  0.00    +0.000 A 
ATOM     20  C   UNL     1       2.227   5.672  18.123  0.00  0.00    +0.000 A 
ENDBRANCH  12  15
ENDBRANCH   1   8
BRANCH   5  21
ATOM     21  S   UNL     1      -0.176  16.237  19.918  0.00  0.00    +0.000 S 
ATOM     22  O   UNL     1       0.660  17.161  20.661  0.00  0.00    +0.000 OA
ATOM     23  O   UNL     1      -0.727  16.569  18.625  0.00  0.00    +0.000 OA
BRANCH  21  24
ATOM     24  C   UNL     1      -1.527  15.799  20.947  0.00  0.00    +0.000 A 
ATOM     25  C   UNL     1      -2.870  16.044  20.587  0.00  0.00    +0.000 A 
ATOM     26  C   UNL     1      -3.965  15.715  21.431  0.00  0.00    +0.000 A 
ATOM     27  C   UNL     1      -3.811  15.122  22.695  0.00  0.00    +0.000 A 
ATOM     28  C   UNL     1      -2.479  14.858  23.064  0.00  0.00    +0.000 A 
ATOM     29  N   UNL     1      -2.018  14.282  24.181  0.00  0.00    +0.000 NA
ATOM     30  O   UNL     1      -0.643  14.251  24.045  0.00  0.00    +0.000 OA
ATOM     31  N   UNL     1      -0.228  14.822  22.855  0.00  0.00    +0.000 NA
ATOM     32  C   UNL     1      -1.340  15.198  22.209  0.00  0.00    +0.000 A 
ENDBRANCH  21  24
ENDBRANCH   5  21
TORSDOF 4
ENDMDL
MODEL 8
REMARK VINA RESULT:      -8.0      6.283     12.264
REMARK  Name = 
REMARK  4 active torsions:
REMARK  status: ('A' for Active; 'I' for Inactive)
REMARK    1  A    between atoms: C_2  and  C_3
REMARK    2  A    between atoms: N_7  and  S_8
REMARK    3  A    between atoms: S_8  and  C_11
REMARK    4  A    between atoms: N_24  and  C_25
REMARK                            x       y       z     vdW  Elec       q    Type
REMARK                         _______ _______ _______ _____ _____    ______ ____
ROOT
ATOM      1  C   UNL     1      -1.524  12.615  20.630  0.00  0.00    +0.000 C 
ATOM      2  C   UNL     1      -0.404  13.613  20.333  0.00  0.00    +0.000 C 
ATOM      3  C   UNL     1      -0.201  14.618  21.459  0.00  0.00    +0.000 C 
ATOM      4  C   UNL     1      -1.501  15.324  21.820  0.00  0.00    +0.000 C 
ATOM      5  N   UNL     1      -2.570  14.341  22.180  0.00  0.00    +0.000 NA
ATOM      6  C   UNL     1      -2.802  13.314  21.108  0.00  0.00    +0.000 C 
ENDROOT
BRANCH   1   8
ATOM      7  O   UNL     1      -1.210  11.633  22.807  0.00  0.00    +0.000 OA
ATOM      8  C   UNL     1      -1.101  11.493  21.587  0.00  0.00    +0.000 C 
ATOM      9  N   UNL     1      -0.598  10.319  21.044  0.00  0.00    +0.000 N 
ATOM     10  C   UNL     1      -0.329  10.043  19.623  0.00  0.00    +0.000 C 
ATOM     11  C   UNL     1       1.152   9.695  19.394  0.00  0.00    +0.000 C 
ATOM     12  N   UNL     1       1.589   8.617  20.293  0.00  0.00    +0.000 N 
ATOM     13  C   UNL     1       1.297   8.824  21.725  0.00  0.00    +0.000 C 
ATOM     14  C   UNL     1      -0.181   9.224  21.938  0.00  0.00    +0.000 C 
BRANCH  12  15
ATOM     15  C   UNL     1       1.920   7.360  19.824  0.00  0.00    +0.000 A 
ATOM     16  C   UNL     1       1.646   6.215  20.590  0.00  0.00    +0.000 A 
ATOM     17  C   UNL     1       1.993   4.933  20.153  0.00  0.00    +0.000 A 
ATOM     18  C   UNL     1       2.628   4.765  18.926  0.00  0.00    +0.000 A 
ATOM     19  C   UNL     1       2.915   5.881  18.146  0.00  0.00    +0.000 A 
ATOM     20  C   UNL     1       2.568   7.158  18.595  0.00  0.00    +0.000 A 
ENDBRANCH  12  15
ENDBRANCH   1   8
BRANCH   5  21
ATOM     21  S   UNL     1      -4.060  15.102  22.693  0.00  0.00    +0.000 S 
ATOM     22  O   UNL     1      -4.156  14.901  24.126  0.00  0.00    +0.000 OA
ATOM     23  O   UNL     1      -4.096  16.417  22.097  0.00  0.00    +0.000 OA
BRANCH  21  24
ATOM     24  C   UNL     1      -5.341  14.170  21.939  0.00  0.00    +0.000 A 
ATOM     25  C   UNL     1      -5.783  14.410  20.620  0.00  0.00    +0.000 A 
ATOM     26  C   UNL     1      -6.839  13.675  20.017  0.00  0.00    +0.000 A 
ATOM     27  C   UNL     1      -7.537  12.649  20.676  0.00  0.00    +0.000 A 
ATOM     28  C   UNL     1      -7.100  12.388  21.988  0.00  0.00    +0.000 A 
ATOM     29  N   UNL     1      -7.543  11.464  22.849  0.00  0.00    +0.000 NA
ATOM     30  O   UNL     1      -6.776  11.618  23.989  0.00  0.00    +0.000 OA
ATOM     31  N   UNL     1      -5.860  12.647  23.861  0.00  0.00    +0.000 NA
ATOM     32  C   UNL     1      -6.018  13.141  22.625  0.00  0.00    +0.000 A 
ENDBRANCH  21  24
ENDBRANCH   5  21
TORSDOF 4
ENDMDL
MODEL 9
REMARK VINA RESULT:      -8.0      7.391     10.710
REMARK  Name = 
REMARK  4 active torsions:
REMARK  status: ('A' for Active; 'I' for Inactive)
REMARK    1  A    between atoms: C_2  and  C_3
REMARK    2  A    between atoms: N_7  and  S_8
REMARK    3  A    between atoms: S_8  and  C_11
REMARK    4  A    between atoms: N_24  and  C_25
REMARK                            x       y       z     vdW  Elec       q    Type
REMARK                         _______ _______ _______ _____ _____    ______ ____
ROOT
ATOM      1  C   UNL     1       2.877  15.728  18.412  0.00  0.00    +0.000 C 
ATOM      2  C   UNL     1       1.909  16.910  18.467  0.00  0.00    +0.000 C 
ATOM      3  C   UNL     1       0.759  16.681  19.438  0.00  0.00    +0.000 C 
ATOM      4  C   UNL     1       0.032  15.375  19.145  0.00  0.00    +0.000 C 
ATOM      5  N   UNL     1       0.975  14.214  19.165  0.00  0.00    +0.000 NA
ATOM      6  C   UNL     1       2.141  14.394  18.235  0.00  0.00    +0.000 C 
ENDROOT
BRANCH   1   8
ATOM      7  O   UNL     1       3.588  16.264  20.650  0.00  0.00    +0.000 OA
ATOM      8  C   UNL     1       3.853  15.683  19.595  0.00  0.00    +0.000 C 
ATOM      9  N   UNL     1       5.034  14.970  19.447  0.00  0.00    +0.000 N 
ATOM     10  C   UNL     1       5.523  14.305  18.228  0.00  0.00    +0.000 C 
ATOM     11  C   UNL     1       6.889  14.867  17.797  0.00  0.00    +0.000 C 
ATOM     12  N   UNL     1       7.851  14.833  18.908  0.00  0.00    +0.000 N 
ATOM     13  C   UNL     1       7.388  15.444  20.170  0.00  0.00    +0.000 C 
ATOM     14  C   UNL     1       5.992  14.911  20.566  0.00  0.00    +0.000 C 
BRANCH  12  15
ATOM     15  C   UNL     1       8.950  13.995  18.901  0.00  0.00    +0.000 A 
ATOM     16  C   UNL     1       9.273  13.246  17.758  0.00  0.00    +0.000 A 
ATOM     17  C   UNL     1      10.363  12.372  17.732  0.00  0.00    +0.000 A 
ATOM     18  C   UNL     1      11.165  12.225  18.859  0.00  0.00    +0.000 A 
ATOM     19  C   UNL     1      10.868  12.952  20.008  0.00  0.00    +0.000 A 
ATOM     20  C   UNL     1       9.773  13.820  20.025  0.00  0.00    +0.000 A 
ENDBRANCH  12  15
ENDBRANCH   1   8
BRANCH   5  21
ATOM     21  S   UNL     1       0.177  12.675  18.926  0.00  0.00    +0.000 S 
ATOM     22  O   UNL     1      -0.844  12.890  17.918  0.00  0.00    +0.000 OA
ATOM     23  O   UNL     1       1.209  11.677  18.773  0.00  0.00    +0.000 OA
BRANCH  21  24
ATOM     24  C   UNL     1      -0.637  12.334  20.442  0.00  0.00    +0.000 A 
ATOM     25  C   UNL     1      -1.858  12.943  20.806  0.00  0.00    +0.000 A 
ATOM     26  C   UNL     1      -2.504  12.689  22.045  0.00  0.00    +0.000 A 
ATOM     27  C   UNL     1      -1.990  11.815  23.017  0.00  0.00    +0.000 A 
ATOM     28  C   UNL     1      -0.780  11.189  22.665  0.00  0.00    +0.000 A 
ATOM     29  N   UNL     1      -0.067  10.295  23.360  0.00  0.00    +0.000 NA
ATOM     30  O   UNL     1       1.024   9.990  22.568  0.00  0.00    +0.000 OA
ATOM     31  N   UNL     1       1.016  10.700  21.380  0.00  0.00    +0.000 NA
ATOM     32  C   UNL     1      -0.098  11.446  21.395  0.00  0.00    +0.000 A 
ENDBRANCH  21  24
ENDBRANCH   5  21
TORSDOF 4
ENDMDL
