MODEL 1
REMARK VINA RESULT:      -8.8      0.000      0.000
REMARK  Name = 
REMARK  5 active torsions:
REMARK  status: ('A' for Active; 'I' for Inactive)
REMARK    1  A    between atoms: C_1  and  O_2
REMARK    2  A    between atoms: O_2  and  C_3
REMARK    3  A    between atoms: C_6  and  N_7
REMARK    4  A    between atoms: C_8  and  C_10
REMARK    5  A    between atoms: C_13  and  N_14
REMARK                            x       y       z     vdW  Elec       q    Type
REMARK                         _______ _______ _______ _____ _____    ______ ____
ROOT
ATOM      1  C   UNL     1       1.476   9.332  19.332  0.00  0.00    +0.000 A 
ATOM      2  C   UNL     1       1.932   9.006  18.052  0.00  0.00    +0.000 A 
ATOM      3  C   UNL     1       2.384   7.718  17.758  0.00  0.00    +0.000 A 
ATOM      4  C   UNL     1       2.396   6.712  18.729  0.00  0.00    +0.000 A 
ATOM      5  C   UNL     1       1.944   7.056  20.017  0.00  0.00    +0.000 A 
ATOM      6  C   UNL     1       1.493   8.352  20.323  0.00  0.00    +0.000 A 
ENDROOT
BRANCH   4   7
ATOM      7  N   UNL     1       2.863   5.399  18.415  0.00  0.00    +0.000 N 
ATOM      8  C   UNL     1       4.106   4.916  18.785  0.00  0.00    +0.000 C 
ATOM      9  O   UNL     1       4.991   5.455  19.435  0.00  0.00    +0.000 OA
ATOM     10  C   UNL     1       4.235   3.496  18.327  0.00  0.00    +0.000 C 
ATOM     11  C   UNL     1       4.287   2.435  19.444  0.00  0.00    +0.000 C 
ATOM     12  C   UNL     1       3.215   2.685  20.525  0.00  0.00    +0.000 C 
ATOM     13  C   UNL     1       1.904   2.359  19.796  0.00  0.00    +0.000 C 
ATOM     14  C   UNL     1       2.382   1.971  18.384  0.00  0.00    +0.000 C 
ATOM     15  C   UNL     1       3.686   1.232  18.712  0.00  0.00    +0.000 C 
ATOM     16  C   UNL     1       2.925   3.190  17.615  0.00  0.00    +0.000 C 
ATOM     17  C   UNL     1       2.124   4.456  17.728  0.00  0.00    +0.000 C 
ATOM     18  O   UNL     1       1.005   4.554  17.240  0.00  0.00    +0.000 OA
ENDBRANCH   4   7
BRANCH   1  20
ATOM     19  N   UNL     1       1.282  11.643  18.524  0.00  0.00    +0.000 N 
ATOM     20  C   UNL     1       1.021  10.733  19.534  0.00  0.00    +0.000 C 
ATOM     21  O   UNL     1       0.454  10.984  20.594  0.00  0.00    +0.000 OA
ATOM     22  H   UNL     1       1.610  11.306  17.631  0.00  0.00    +0.000 HD
BRANCH  19  26
ATOM     23  C   UNL     1       0.765  15.832  18.811  0.00  0.00    +0.000 A 
ATOM     24  C   UNL     1      -0.342  15.006  18.643  0.00  0.00    +0.000 A 
ATOM     25  C   UNL     1      -0.188  13.623  18.564  0.00  0.00    +0.000 A 
ATOM     26  C   UNL     1       1.079  13.040  18.630  0.00  0.00    +0.000 A 
ATOM     27  C   UNL     1       2.189  13.867  18.826  0.00  0.00    +0.000 A 
ATOM     28  C   UNL     1       2.034  15.261  18.900  0.00  0.00    +0.000 A 
BRANCH  23  30
ATOM     29  C   UNL     1      -0.885  17.507  19.047  0.00  0.00    +0.000 C 
ATOM     30  O   UNL     1       0.478  17.166  18.837  0.00  0.00    +0.000 OA
ENDBRANCH  23  30
ENDBRANCH  19  26
ENDBRANCH   1  20
TORSDOF 4
ENDMDL
MODEL 2
REMARK VINA RESULT:      -8.7      2.456      2.873
REMARK  Name = 
REMARK  5 active torsions:
REMARK  status: ('A' for Active; 'I' for Inactive)
REMARK    1  A    between atoms: C_1  and  O_2
REMARK    2  A    between atoms: O_2  and  C_3
REMARK    3  A    between atoms: C_6  and  N_7
REMARK    4  A    between atoms: C_8  and  C_10
REMARK    5  A    between atoms: C_13  and  N_14
REMARK                            x       y       z     vdW  Elec       q    Type
REMARK                         _______ _______ _______ _____ _____    ______ ____
ROOT
ATOM      1  C   UNL     1       1.316   9.231  19.674  0.00  0.00    +0.000 A 
ATOM      2  C   UNL     1       1.373   8.167  20.578  0.00  0.00    +0.000 A 
ATOM      3  C   UNL     1       1.873   6.923  20.191  0.00  0.00    +0.000 A 
ATOM      4  C   UNL     1       2.332   6.696  18.889  0.00  0.00    +0.000 A 
ATOM      5  C   UNL     1       2.259   7.772  17.985  0.00  0.00    +0.000 A 
ATOM      6  C   UNL     1       1.752   9.028  18.366  0.00  0.00    +0.000 A 
ENDROOT
BRANCH   4   7
ATOM      7  N   UNL     1       2.839   5.417  18.506  0.00  0.00    +0.000 N 
ATOM      8  C   UNL     1       4.097   4.955  18.851  0.00  0.00    +0.000 C 
ATOM      9  O   UNL     1       4.965   5.485  19.530  0.00  0.00    +0.000 OA
ATOM     10  C   UNL     1       4.272   3.566  18.317  0.00  0.00    +0.000 C 
ATOM     11  C   UNL     1       4.357   2.448  19.375  0.00  0.00    +0.000 C 
ATOM     12  C   UNL     1       3.278   2.605  20.466  0.00  0.00    +0.000 C 
ATOM     13  C   UNL     1       1.978   2.278  19.719  0.00  0.00    +0.000 C 
ATOM     14  C   UNL     1       2.468   1.982  18.289  0.00  0.00    +0.000 C 
ATOM     15  C   UNL     1       3.795   1.268  18.578  0.00  0.00    +0.000 C 
ATOM     16  C   UNL     1       2.971   3.257  17.588  0.00  0.00    +0.000 C 
ATOM     17  C   UNL     1       2.131   4.489  17.768  0.00  0.00    +0.000 C 
ATOM     18  O   UNL     1       1.009   4.578  17.284  0.00  0.00    +0.000 OA
ENDBRANCH   4   7
BRANCH   1  20
ATOM     19  N   UNL     1      -0.361  10.442  20.997  0.00  0.00    +0.000 N 
ATOM     20  C   UNL     1       0.764  10.510  20.193  0.00  0.00    +0.000 C 
ATOM     21  O   UNL     1       1.343  11.540  19.859  0.00  0.00    +0.000 OA
ATOM     22  H   UNL     1      -0.667   9.544  21.341  0.00  0.00    +0.000 HD
BRANCH  19  26
ATOM     23  C   UNL     1      -2.542  13.810  22.338  0.00  0.00    +0.000 A 
ATOM     24  C   UNL     1      -2.646  13.400  21.013  0.00  0.00    +0.000 A 
ATOM     25  C   UNL     1      -1.946  12.281  20.561  0.00  0.00    +0.000 A 
ATOM     26  C   UNL     1      -1.112  11.565  21.422  0.00  0.00    +0.000 A 
ATOM     27  C   UNL     1      -1.029  11.961  22.760  0.00  0.00    +0.000 A 
ATOM     28  C   UNL     1      -1.729  13.091  23.214  0.00  0.00    +0.000 A 
BRANCH  23  30
ATOM     29  C   UNL     1      -3.733  15.035  23.970  0.00  0.00    +0.000 C 
ATOM     30  O   UNL     1      -3.249  14.939  22.638  0.00  0.00    +0.000 OA
ENDBRANCH  23  30
ENDBRANCH  19  26
ENDBRANCH   1  20
TORSDOF 4
ENDMDL
MODEL 3
REMARK VINA RESULT:      -8.5      0.505      1.370
REMARK  Name = 
REMARK  5 active torsions:
REMARK  status: ('A' for Active; 'I' for Inactive)
REMARK    1  A    between atoms: C_1  and  O_2
REMARK    2  A    between atoms: O_2  and  C_3
REMARK    3  A    between atoms: C_6  and  N_7
REMARK    4  A    between atoms: C_8  and  C_10
REMARK    5  A    between atoms: C_13  and  N_14
REMARK                            x       y       z     vdW  Elec       q    Type
REMARK                         _______ _______ _______ _____ _____    ______ ____
ROOT
ATOM      1  C   UNL     1       1.636   9.363  19.031  0.00  0.00    +0.000 A 
ATOM      2  C   UNL     1       1.592   8.407  20.051  0.00  0.00    +0.000 A 
ATOM      3  C   UNL     1       2.020   7.098  19.826  0.00  0.00    +0.000 A 
ATOM      4  C   UNL     1       2.507   6.696  18.578  0.00  0.00    +0.000 A 
ATOM      5  C   UNL     1       2.537   7.664  17.557  0.00  0.00    +0.000 A 
ATOM      6  C   UNL     1       2.102   8.984  17.773  0.00  0.00    +0.000 A 
ENDROOT
BRANCH   4   7
ATOM      7  N   UNL     1       2.941   5.353  18.361  0.00  0.00    +0.000 N 
ATOM      8  C   UNL     1       4.163   4.862  18.786  0.00  0.00    +0.000 C 
ATOM      9  O   UNL     1       5.052   5.418  19.416  0.00  0.00    +0.000 OA
ATOM     10  C   UNL     1       4.260   3.411  18.426  0.00  0.00    +0.000 C 
ATOM     11  C   UNL     1       4.262   2.426  19.612  0.00  0.00    +0.000 C 
ATOM     12  C   UNL     1       3.179   2.776  20.653  0.00  0.00    +0.000 C 
ATOM     13  C   UNL     1       1.872   2.439  19.922  0.00  0.00    +0.000 C 
ATOM     14  C   UNL     1       2.364   1.944  18.549  0.00  0.00    +0.000 C 
ATOM     15  C   UNL     1       3.640   1.193  18.950  0.00  0.00    +0.000 C 
ATOM     16  C   UNL     1       2.954   3.094  17.711  0.00  0.00    +0.000 C 
ATOM     17  C   UNL     1       2.188   4.386  17.724  0.00  0.00    +0.000 C 
ATOM     18  O   UNL     1       1.081   4.482  17.209  0.00  0.00    +0.000 OA
ENDBRANCH   4   7
BRANCH   1  20
ATOM     19  N   UNL     1       1.352  11.732  18.453  0.00  0.00    +0.000 N 
ATOM     20  C   UNL     1       1.153  10.724  19.381  0.00  0.00    +0.000 C 
ATOM     21  O   UNL     1       0.621  10.858  20.479  0.00  0.00    +0.000 OA
ATOM     22  H   UNL     1       1.655  11.490  17.521  0.00  0.00    +0.000 HD
BRANCH  19  26
ATOM     23  C   UNL     1       0.563  15.819  19.208  0.00  0.00    +0.000 A 
ATOM     24  C   UNL     1       1.861  15.330  19.324  0.00  0.00    +0.000 A 
ATOM     25  C   UNL     1       2.138  13.989  19.061  0.00  0.00    +0.000 A 
ATOM     26  C   UNL     1       1.119  13.107  18.699  0.00  0.00    +0.000 A 
ATOM     27  C   UNL     1      -0.180  13.603  18.556  0.00  0.00    +0.000 A 
ATOM     28  C   UNL     1      -0.461  14.953  18.826  0.00  0.00    +0.000 A 
BRANCH  23  30
ATOM     29  C   UNL     1       1.615  17.914  19.510  0.00  0.00    +0.000 C 
ATOM     30  O   UNL     1       0.424  17.139  19.528  0.00  0.00    +0.000 OA
ENDBRANCH  23  30
ENDBRANCH  19  26
ENDBRANCH   1  20
TORSDOF 4
ENDMDL
MODEL 4
REMARK VINA RESULT:      -8.5      1.146      1.787
REMARK  Name = 
REMARK  5 active torsions:
REMARK  status: ('A' for Active; 'I' for Inactive)
REMARK    1  A    between atoms: C_1  and  O_2
REMARK    2  A    between atoms: O_2  and  C_3
REMARK    3  A    between atoms: C_6  and  N_7
REMARK    4  A    between atoms: C_8  and  C_10
REMARK    5  A    between atoms: C_13  and  N_14
REMARK                            x       y       z     vdW  Elec       q    Type
REMARK                         _______ _______ _______ _____ _____    ______ ____
ROOT
ATOM      1  C   UNL     1       1.332   9.278  19.743  0.00  0.00    +0.000 A 
ATOM      2  C   UNL     1       1.399   8.221  20.654  0.00  0.00    +0.000 A 
ATOM      3  C   UNL     1       1.895   6.973  20.271  0.00  0.00    +0.000 A 
ATOM      4  C   UNL     1       2.341   6.737  18.967  0.00  0.00    +0.000 A 
ATOM      5  C   UNL     1       2.259   7.807  18.056  0.00  0.00    +0.000 A 
ATOM      6  C   UNL     1       1.756   9.065  18.432  0.00  0.00    +0.000 A 
ENDROOT
BRANCH   4   7
ATOM      7  N   UNL     1       2.844   5.455  18.588  0.00  0.00    +0.000 N 
ATOM      8  C   UNL     1       4.082   4.971  18.973  0.00  0.00    +0.000 C 
ATOM      9  O   UNL     1       4.932   5.482  19.690  0.00  0.00    +0.000 OA
ATOM     10  C   UNL     1       4.257   3.586  18.431  0.00  0.00    +0.000 C 
ATOM     11  C   UNL     1       4.288   2.456  19.479  0.00  0.00    +0.000 C 
ATOM     12  C   UNL     1       3.173   2.616  20.531  0.00  0.00    +0.000 C 
ATOM     13  C   UNL     1       1.896   2.316  19.734  0.00  0.00    +0.000 C 
ATOM     14  C   UNL     1       2.434   2.028  18.320  0.00  0.00    +0.000 C 
ATOM     15  C   UNL     1       3.740   1.293  18.649  0.00  0.00    +0.000 C 
ATOM     16  C   UNL     1       2.980   3.304  17.651  0.00  0.00    +0.000 C 
ATOM     17  C   UNL     1       2.151   4.545  17.814  0.00  0.00    +0.000 C 
ATOM     18  O   UNL     1       1.049   4.656  17.291  0.00  0.00    +0.000 OA
ENDBRANCH   4   7
BRANCH   1  20
ATOM     19  N   UNL     1      -0.064  11.273  19.429  0.00  0.00    +0.000 N 
ATOM     20  C   UNL     1       0.786  10.561  20.258  0.00  0.00    +0.000 C 
ATOM     21  O   UNL     1       1.140  10.902  21.383  0.00  0.00    +0.000 OA
ATOM     22  H   UNL     1      -0.417  10.835  18.592  0.00  0.00    +0.000 HD
BRANCH  19  26
ATOM     23  C   UNL     1      -1.486  15.165  20.286  0.00  0.00    +0.000 A 
ATOM     24  C   UNL     1      -0.315  15.000  19.554  0.00  0.00    +0.000 A 
ATOM     25  C   UNL     1       0.156  13.723  19.249  0.00  0.00    +0.000 A 
ATOM     26  C   UNL     1      -0.524  12.587  19.690  0.00  0.00    +0.000 A 
ATOM     27  C   UNL     1      -1.716  12.752  20.402  0.00  0.00    +0.000 A 
ATOM     28  C   UNL     1      -2.187  14.038  20.714  0.00  0.00    +0.000 A 
BRANCH  23  30
ATOM     29  C   UNL     1      -1.749  17.355  19.440  0.00  0.00    +0.000 C 
ATOM     30  O   UNL     1      -1.815  16.464  20.544  0.00  0.00    +0.000 OA
ENDBRANCH  23  30
ENDBRANCH  19  26
ENDBRANCH   1  20
TORSDOF 4
ENDMDL
MODEL 5
REMARK VINA RESULT:      -8.4      2.380      2.703
REMARK  Name = 
REMARK  5 active torsions:
REMARK  status: ('A' for Active; 'I' for Inactive)
REMARK    1  A    between atoms: C_1  and  O_2
REMARK    2  A    between atoms: O_2  and  C_3
REMARK    3  A    between atoms: C_6  and  N_7
REMARK    4  A    between atoms: C_8  and  C_10
REMARK    5  A    between atoms: C_13  and  N_14
REMARK                            x       y       z     vdW  Elec       q    Type
REMARK                         _______ _______ _______ _____ _____    ______ ____
ROOT
ATOM      1  C   UNL     1       1.218   9.194  19.944  0.00  0.00    +0.000 A 
ATOM      2  C   UNL     1       1.668   9.017  18.633  0.00  0.00    +0.000 A 
ATOM      3  C   UNL     1       2.181   7.789  18.210  0.00  0.00    +0.000 A 
ATOM      4  C   UNL     1       2.262   6.697  19.079  0.00  0.00    +0.000 A 
ATOM      5  C   UNL     1       1.815   6.890  20.399  0.00  0.00    +0.000 A 
ATOM      6  C   UNL     1       1.303   8.126  20.836  0.00  0.00    +0.000 A 
ENDROOT
BRANCH   4   7
ATOM      7  N   UNL     1       2.790   5.446  18.634  0.00  0.00    +0.000 N 
ATOM      8  C   UNL     1       4.046   4.977  18.976  0.00  0.00    +0.000 C 
ATOM      9  O   UNL     1       4.896   5.477  19.701  0.00  0.00    +0.000 OA
ATOM     10  C   UNL     1       4.246   3.622  18.369  0.00  0.00    +0.000 C 
ATOM     11  C   UNL     1       4.323   2.448  19.364  0.00  0.00    +0.000 C 
ATOM     12  C   UNL     1       3.223   2.533  20.441  0.00  0.00    +0.000 C 
ATOM     13  C   UNL     1       1.940   2.236  19.652  0.00  0.00    +0.000 C 
ATOM     14  C   UNL     1       2.459   2.025  18.218  0.00  0.00    +0.000 C 
ATOM     15  C   UNL     1       3.788   1.309  18.492  0.00  0.00    +0.000 C 
ATOM     16  C   UNL     1       2.962   3.343  17.599  0.00  0.00    +0.000 C 
ATOM     17  C   UNL     1       2.106   4.555  17.831  0.00  0.00    +0.000 C 
ATOM     18  O   UNL     1       0.992   4.660  17.332  0.00  0.00    +0.000 OA
ENDBRANCH   4   7
BRANCH   1  20
ATOM     19  N   UNL     1      -0.404  10.608  21.126  0.00  0.00    +0.000 N 
ATOM     20  C   UNL     1       0.694  10.542  20.286  0.00  0.00    +0.000 C 
ATOM     21  O   UNL     1       1.270  11.504  19.785  0.00  0.00    +0.000 OA
ATOM     22  H   UNL     1      -0.706   9.775  21.608  0.00  0.00    +0.000 HD
BRANCH  19  26
ATOM     23  C   UNL     1      -2.648  14.110  21.902  0.00  0.00    +0.000 A 
ATOM     24  C   UNL     1      -1.700  13.676  22.823  0.00  0.00    +0.000 A 
ATOM     25  C   UNL     1      -0.941  12.533  22.572  0.00  0.00    +0.000 A 
ATOM     26  C   UNL     1      -1.132  11.791  21.404  0.00  0.00    +0.000 A 
ATOM     27  C   UNL     1      -2.065  12.242  20.467  0.00  0.00    +0.000 A 
ATOM     28  C   UNL     1      -2.833  13.390  20.722  0.00  0.00    +0.000 A 
BRANCH  23  30
ATOM     29  C   UNL     1      -4.572  14.982  22.961  0.00  0.00    +0.000 C 
ATOM     30  O   UNL     1      -3.344  15.219  22.286  0.00  0.00    +0.000 OA
ENDBRANCH  23  30
ENDBRANCH  19  26
ENDBRANCH   1  20
TORSDOF 4
ENDMDL
MODEL 6
REMARK VINA RESULT:      -8.4      2.189      2.356
REMARK  Name = 
REMARK  5 active torsions:
REMARK  status: ('A' for Active; 'I' for Inactive)
REMARK    1  A    between atoms: C_1  and  O_2
REMARK    2  A    between atoms: O_2  and  C_3
REMARK    3  A    between atoms: C_6  and  N_7
REMARK    4  A    between atoms: C_8  and  C_10
REMARK    5  A    between atoms: C_13  and  N_14
REMARK                            x       y       z     vdW  Elec       q    Type
REMARK                         _______ _______ _______ _____ _____    ______ ____
ROOT
ATOM      1  C   UNL     1       1.242   9.176  19.836  0.00  0.00    +0.000 A 
ATOM      2  C   UNL     1       1.714   8.979  18.535  0.00  0.00    +0.000 A 
ATOM      3  C   UNL     1       2.232   7.745  18.138  0.00  0.00    +0.000 A 
ATOM      4  C   UNL     1       2.298   6.665  19.024  0.00  0.00    +0.000 A 
ATOM      5  C   UNL     1       1.828   6.878  20.334  0.00  0.00    +0.000 A 
ATOM      6  C   UNL     1       1.310   8.120  20.744  0.00  0.00    +0.000 A 
ENDROOT
BRANCH   4   7
ATOM      7  N   UNL     1       2.832   5.408  18.606  0.00  0.00    +0.000 N 
ATOM      8  C   UNL     1       4.078   4.940  18.982  0.00  0.00    +0.000 C 
ATOM      9  O   UNL     1       4.913   5.446  19.720  0.00  0.00    +0.000 OA
ATOM     10  C   UNL     1       4.287   3.577  18.395  0.00  0.00    +0.000 C 
ATOM     11  C   UNL     1       4.339   2.415  19.406  0.00  0.00    +0.000 C 
ATOM     12  C   UNL     1       3.215   2.515  20.457  0.00  0.00    +0.000 C 
ATOM     13  C   UNL     1       1.949   2.213  19.643  0.00  0.00    +0.000 C 
ATOM     14  C   UNL     1       2.500   1.983  18.223  0.00  0.00    +0.000 C 
ATOM     15  C   UNL     1       3.820   1.267  18.536  0.00  0.00    +0.000 C 
ATOM     16  C   UNL     1       3.021   3.292  17.600  0.00  0.00    +0.000 C 
ATOM     17  C   UNL     1       2.163   4.509  17.799  0.00  0.00    +0.000 C 
ATOM     18  O   UNL     1       1.061   4.612  17.274  0.00  0.00    +0.000 OA
ENDBRANCH   4   7
BRANCH   1  20
ATOM     19  N   UNL     1      -0.362  10.611  21.018  0.00  0.00    +0.000 N 
ATOM     20  C   UNL     1       0.714  10.529  20.150  0.00  0.00    +0.000 C 
ATOM     21  O   UNL     1       1.265  11.479  19.602  0.00  0.00    +0.000 OA
ATOM     22  H   UNL     1      -0.641   9.791  21.535  0.00  0.00    +0.000 HD
BRANCH  19  26
ATOM     23  C   UNL     1      -2.476  14.179  21.853  0.00  0.00    +0.000 A 
ATOM     24  C   UNL     1      -2.743  13.472  20.686  0.00  0.00    +0.000 A 
ATOM     25  C   UNL     1      -2.066  12.285  20.406  0.00  0.00    +0.000 A 
ATOM     26  C   UNL     1      -1.093  11.795  21.279  0.00  0.00    +0.000 A 
ATOM     27  C   UNL     1      -0.844  12.491  22.466  0.00  0.00    +0.000 A 
ATOM     28  C   UNL     1      -1.522  13.689  22.745  0.00  0.00    +0.000 A 
BRANCH  23  30
ATOM     29  C   UNL     1      -2.852  16.378  21.075  0.00  0.00    +0.000 C 
ATOM     30  O   UNL     1      -3.182  15.340  21.987  0.00  0.00    +0.000 OA
ENDBRANCH  23  30
ENDBRANCH  19  26
ENDBRANCH   1  20
TORSDOF 4
ENDMDL
MODEL 7
REMARK VINA RESULT:      -8.4      1.029      1.225
REMARK  Name = 
REMARK  5 active torsions:
REMARK  status: ('A' for Active; 'I' for Inactive)
REMARK    1  A    between atoms: C_1  and  O_2
REMARK    2  A    between atoms: O_2  and  C_3
REMARK    3  A    between atoms: C_6  and  N_7
REMARK    4  A    between atoms: C_8  and  C_10
REMARK    5  A    between atoms: C_13  and  N_14
REMARK                            x       y       z     vdW  Elec       q    Type
REMARK                         _______ _______ _______ _____ _____    ______ ____
ROOT
ATOM      1  C   UNL     1       1.259   9.188  20.033  0.00  0.00    +0.000 A 
ATOM      2  C   UNL     1       1.759   9.049  18.735  0.00  0.00    +0.000 A 
ATOM      3  C   UNL     1       2.254   7.824  18.285  0.00  0.00    +0.000 A 
ATOM      4  C   UNL     1       2.268   6.697  19.113  0.00  0.00    +0.000 A 
ATOM      5  C   UNL     1       1.771   6.852  20.421  0.00  0.00    +0.000 A 
ATOM      6  C   UNL     1       1.275   8.085  20.884  0.00  0.00    +0.000 A 
ENDROOT
BRANCH   4   7
ATOM      7  N   UNL     1       2.780   5.449  18.640  0.00  0.00    +0.000 N 
ATOM      8  C   UNL     1       4.028   4.954  18.975  0.00  0.00    +0.000 C 
ATOM      9  O   UNL     1       4.883   5.425  19.714  0.00  0.00    +0.000 OA
ATOM     10  C   UNL     1       4.210   3.611  18.337  0.00  0.00    +0.000 C 
ATOM     11  C   UNL     1       4.267   2.413  19.306  0.00  0.00    +0.000 C 
ATOM     12  C   UNL     1       3.165   2.489  20.382  0.00  0.00    +0.000 C 
ATOM     13  C   UNL     1       1.881   2.229  19.583  0.00  0.00    +0.000 C 
ATOM     14  C   UNL     1       2.401   2.044  18.146  0.00  0.00    +0.000 C 
ATOM     15  C   UNL     1       3.719   1.302  18.406  0.00  0.00    +0.000 C 
ATOM     16  C   UNL     1       2.924   3.368  17.558  0.00  0.00    +0.000 C 
ATOM     17  C   UNL     1       2.085   4.586  17.816  0.00  0.00    +0.000 C 
ATOM     18  O   UNL     1       0.974   4.719  17.317  0.00  0.00    +0.000 OA
ENDBRANCH   4   7
BRANCH   1  20
ATOM     19  N   UNL     1      -0.026  11.207  19.483  0.00  0.00    +0.000 N 
ATOM     20  C   UNL     1       0.759  10.537  20.406  0.00  0.00    +0.000 C 
ATOM     21  O   UNL     1       1.090  10.966  21.508  0.00  0.00    +0.000 OA
ATOM     22  H   UNL     1      -0.371  10.709  18.676  0.00  0.00    +0.000 HD
BRANCH  19  26
ATOM     23  C   UNL     1      -1.200  15.263  19.756  0.00  0.00    +0.000 A 
ATOM     24  C   UNL     1      -1.839  14.302  20.534  0.00  0.00    +0.000 A 
ATOM     25  C   UNL     1      -1.450  12.964  20.466  0.00  0.00    +0.000 A 
ATOM     26  C   UNL     1      -0.429  12.559  19.604  0.00  0.00    +0.000 A 
ATOM     27  C   UNL     1       0.230  13.529  18.843  0.00  0.00    +0.000 A 
ATOM     28  C   UNL     1      -0.165  14.875  18.906  0.00  0.00    +0.000 A 
BRANCH  23  30
ATOM     29  C   UNL     1      -1.167  17.505  19.013  0.00  0.00    +0.000 C 
ATOM     30  O   UNL     1      -1.701  16.525  19.892  0.00  0.00    +0.000 OA
ENDBRANCH  23  30
ENDBRANCH  19  26
ENDBRANCH   1  20
TORSDOF 4
ENDMDL
MODEL 8
REMARK VINA RESULT:      -8.3      2.133      2.329
REMARK  Name = 
REMARK  5 active torsions:
REMARK  status: ('A' for Active; 'I' for Inactive)
REMARK    1  A    between atoms: C_1  and  O_2
REMARK    2  A    between atoms: O_2  and  C_3
REMARK    3  A    between atoms: C_6  and  N_7
REMARK    4  A    between atoms: C_8  and  C_10
REMARK    5  A    between atoms: C_13  and  N_14
REMARK                            x       y       z     vdW  Elec       q    Type
REMARK                         _______ _______ _______ _____ _____    ______ ____
ROOT
ATOM      1  C   UNL     1       1.288   9.264  19.545  0.00  0.00    +0.000 A 
ATOM      2  C   UNL     1       1.726   8.997  18.245  0.00  0.00    +0.000 A 
ATOM      3  C   UNL     1       2.225   7.740  17.900  0.00  0.00    +0.000 A 
ATOM      4  C   UNL     1       2.304   6.706  18.838  0.00  0.00    +0.000 A 
ATOM      5  C   UNL     1       1.868   6.990  20.146  0.00  0.00    +0.000 A 
ATOM      6  C   UNL     1       1.370   8.256  20.504  0.00  0.00    +0.000 A 
ENDROOT
BRANCH   4   7
ATOM      7  N   UNL     1       2.817   5.424  18.472  0.00  0.00    +0.000 N 
ATOM      8  C   UNL     1       4.074   4.970  18.830  0.00  0.00    +0.000 C 
ATOM      9  O   UNL     1       4.937   5.511  19.509  0.00  0.00    +0.000 OA
ATOM     10  C   UNL     1       4.257   3.575  18.314  0.00  0.00    +0.000 C 
ATOM     11  C   UNL     1       4.339   2.471  19.386  0.00  0.00    +0.000 C 
ATOM     12  C   UNL     1       3.253   2.637  20.468  0.00  0.00    +0.000 C 
ATOM     13  C   UNL     1       1.958   2.297  19.717  0.00  0.00    +0.000 C 
ATOM     14  C   UNL     1       2.458   1.985  18.294  0.00  0.00    +0.000 C 
ATOM     15  C   UNL     1       3.785   1.279  18.599  0.00  0.00    +0.000 C 
ATOM     16  C   UNL     1       2.961   3.254  17.581  0.00  0.00    +0.000 C 
ATOM     17  C   UNL     1       2.116   4.486  17.741  0.00  0.00    +0.000 C 
ATOM     18  O   UNL     1       0.997   4.565  17.250  0.00  0.00    +0.000 OA
ENDBRANCH   4   7
BRANCH   1  20
ATOM     19  N   UNL     1       1.018  11.185  21.050  0.00  0.00    +0.000 N 
ATOM     20  C   UNL     1       0.778  10.636  19.801  0.00  0.00    +0.000 C 
ATOM     21  O   UNL     1       0.168  11.181  18.886  0.00  0.00    +0.000 OA
ATOM     22  H   UNL     1       1.661  10.724  21.676  0.00  0.00    +0.000 HD
BRANCH  19  26
ATOM     23  C   UNL     1      -0.710  14.758  22.515  0.00  0.00    +0.000 A 
ATOM     24  C   UNL     1       0.414  14.816  21.698  0.00  0.00    +0.000 A 
ATOM     25  C   UNL     1       0.984  13.647  21.194  0.00  0.00    +0.000 A 
ATOM     26  C   UNL     1       0.452  12.397  21.515  0.00  0.00    +0.000 A 
ATOM     27  C   UNL     1      -0.694  12.340  22.315  0.00  0.00    +0.000 A 
ATOM     28  C   UNL     1      -1.264  13.518  22.827  0.00  0.00    +0.000 A 
BRANCH  23  30
ATOM     29  C   UNL     1      -0.847  16.273  24.324  0.00  0.00    +0.000 C 
ATOM     30  O   UNL     1      -1.144  15.971  22.968  0.00  0.00    +0.000 OA
ENDBRANCH  23  30
ENDBRANCH  19  26
ENDBRANCH   1  20
TORSDOF 4
ENDMDL
MODEL 9
REMARK VINA RESULT:      -8.1      0.970      2.115
REMARK  Name = 
REMARK  5 active torsions:
REMARK  status: ('A' for Active; 'I' for Inactive)
REMARK    1  A    between atoms: C_1  and  O_2
REMARK    2  A    between atoms: O_2  and  C_3
REMARK    3  A    between atoms: C_6  and  N_7
REMARK    4  A    between atoms: C_8  and  C_10
REMARK    5  A    between atoms: C_13  and  N_14
REMARK                            x       y       z     vdW  Elec       q    Type
REMARK                         _______ _______ _______ _____ _____    ______ ____
ROOT
ATOM      1  C   UNL     1       1.311   9.483  19.655  0.00  0.00    +0.000 A 
ATOM      2  C   UNL     1       1.233   8.728  20.829  0.00  0.00    +0.000 A 
ATOM      3  C   UNL     1       1.672   7.404  20.861  0.00  0.00    +0.000 A 
ATOM      4  C   UNL     1       2.203   6.786  19.725  0.00  0.00    +0.000 A 
ATOM      5  C   UNL     1       2.267   7.552  18.546  0.00  0.00    +0.000 A 
ATOM      6  C   UNL     1       1.821   8.886  18.504  0.00  0.00    +0.000 A 
ENDROOT
BRANCH   4   7
ATOM      7  N   UNL     1       2.647   5.429  19.771  0.00  0.00    +0.000 N 
ATOM      8  C   UNL     1       1.814   4.357  20.040  0.00  0.00    +0.000 C 
ATOM      9  O   UNL     1       0.609   4.337  20.250  0.00  0.00    +0.000 OA
ATOM     10  C   UNL     1       2.608   3.088  19.964  0.00  0.00    +0.000 C 
ATOM     11  C   UNL     1       2.254   2.147  18.795  0.00  0.00    +0.000 C 
ATOM     12  C   UNL     1       2.103   2.913  17.465  0.00  0.00    +0.000 C 
ATOM     13  C   UNL     1       3.541   3.340  17.144  0.00  0.00    +0.000 C 
ATOM     14  C   UNL     1       4.341   2.774  18.333  0.00  0.00    +0.000 C 
ATOM     15  C   UNL     1       3.601   1.453  18.580  0.00  0.00    +0.000 C 
ATOM     16  C   UNL     1       4.027   3.531  19.637  0.00  0.00    +0.000 C 
ATOM     17  C   UNL     1       3.946   5.028  19.533  0.00  0.00    +0.000 C 
ATOM     18  O   UNL     1       4.935   5.710  19.289  0.00  0.00    +0.000 OA
ENDBRANCH   4   7
BRANCH   1  20
ATOM     19  N   UNL     1       1.316  11.792  18.821  0.00  0.00    +0.000 N 
ATOM     20  C   UNL     1       0.813  10.881  19.735  0.00  0.00    +0.000 C 
ATOM     21  O   UNL     1      -0.002  11.130  20.618  0.00  0.00    +0.000 OA
ATOM     22  H   UNL     1       1.859  11.457  18.039  0.00  0.00    +0.000 HD
BRANCH  19  26
ATOM     23  C   UNL     1       0.723  15.979  18.952  0.00  0.00    +0.000 A 
ATOM     24  C   UNL     1      -0.346  15.136  18.667  0.00  0.00    +0.000 A 
ATOM     25  C   UNL     1      -0.169  13.753  18.638  0.00  0.00    +0.000 A 
ATOM     26  C   UNL     1       1.087  13.189  18.872  0.00  0.00    +0.000 A 
ATOM     27  C   UNL     1       2.155  14.034  19.184  0.00  0.00    +0.000 A 
ATOM     28  C   UNL     1       1.978  15.427  19.208  0.00  0.00    +0.000 A 
BRANCH  23  30
ATOM     29  C   UNL     1       0.240  17.871  17.621  0.00  0.00    +0.000 C 
ATOM     30  O   UNL     1       0.422  17.310  18.913  0.00  0.00    +0.000 OA
ENDBRANCH  23  30
ENDBRANCH  19  26
ENDBRANCH   1  20
TORSDOF 4
ENDMDL
