MODEL 1
REMARK VINA RESULT:      -8.3      0.000      0.000
REMARK  Name = 
REMARK  4 active torsions:
REMARK  status: ('A' for Active; 'I' for Inactive)
REMARK    1  A    between atoms: C_4  and  C_5
REMARK    2  A    between atoms: C_15  and  O_16
REMARK    3  A    between atoms: O_16  and  C_17
REMARK    4  A    between atoms: C_17  and  C_18
REMARK                            x       y       z     vdW  Elec       q    Type
REMARK                         _______ _______ _______ _____ _____    ______ ____
ROOT
ATOM      1  C   UNL     1       0.977   9.738  20.082  0.00  0.00    +0.000 A 
ATOM      2  N   UNL     1       0.884   9.492  21.382  0.00  0.00    +0.000 NA
ATOM      3  N   UNL     1       1.252   8.185  21.613  0.00  0.00    +0.000 NA
ATOM      4  C   UNL     1       1.607   7.673  20.458  0.00  0.00    +0.000 A 
ATOM      5  C   UNL     1       1.998   6.334  20.092  0.00  0.00    +0.000 A 
ATOM      6  C   UNL     1       1.746   5.225  20.902  0.00  0.00    +0.000 A 
ATOM      7  C   UNL     1       2.023   3.944  20.419  0.00  0.00    +0.000 A 
ATOM      8  C   UNL     1       2.559   3.777  19.139  0.00  0.00    +0.000 A 
ATOM      9  C   UNL     1       2.836   4.889  18.334  0.00  0.00    +0.000 A 
ATOM     10  C   UNL     1       2.561   6.172  18.817  0.00  0.00    +0.000 A 
ATOM     11  C   UNL     1       2.703   7.414  18.001  0.00  0.00    +0.000 A 
ATOM     12  N   UNL     1       2.144   8.559  18.238  0.00  0.00    +0.000 NA
ATOM     13  N   UNL     1       1.572   8.646  19.484  0.00  0.00    +0.000 N 
ENDROOT
BRANCH   1  17
ATOM     14  C   UNL     1      -0.346  13.369  18.255  0.00  0.00    +0.000 A 
ATOM     15  C   UNL     1       0.923  13.283  18.822  0.00  0.00    +0.000 A 
ATOM     16  C   UNL     1       1.351  12.080  19.395  0.00  0.00    +0.000 A 
ATOM     17  C   UNL     1       0.520  10.950  19.404  0.00  0.00    +0.000 A 
ATOM     18  C   UNL     1      -0.753  11.054  18.820  0.00  0.00    +0.000 A 
ATOM     19  C   UNL     1      -1.182  12.255  18.253  0.00  0.00    +0.000 A 
ENDBRANCH   1  17
BRANCH  11  20
ATOM     20  O   UNL     1       3.585   7.250  16.991  0.00  0.00    +0.000 OA
BRANCH  20  21
ATOM     21  C   UNL     1       4.996   7.407  17.249  0.00  0.00    +0.000 C 
BRANCH  21  22
ATOM     22  C   UNL     1       5.985   6.261  17.143  0.00  0.00    +0.000 A 
ATOM     23  C   UNL     1       6.697   5.713  18.191  0.00  0.00    +0.000 A 
ATOM     24  C   UNL     1       7.619   4.731  17.871  0.00  0.00    +0.000 A 
ATOM     25  N   UNL     1       7.837   4.285  16.619  0.00  0.00    +0.000 NA
ATOM     26  C   UNL     1       7.096   4.861  15.671  0.00  0.00    +0.000 A 
ATOM     27  N   UNL     1       6.179   5.827  15.868  0.00  0.00    +0.000 NA
ENDBRANCH  21  22
ENDBRANCH  20  21
ENDBRANCH  11  20
TORSDOF 4
ENDMDL
MODEL 2
REMARK VINA RESULT:      -8.3      2.114      7.125
REMARK  Name = 
REMARK  4 active torsions:
REMARK  status: ('A' for Active; 'I' for Inactive)
REMARK    1  A    between atoms: C_4  and  C_5
REMARK    2  A    between atoms: C_15  and  O_16
REMARK    3  A    between atoms: O_16  and  C_17
REMARK    4  A    between atoms: C_17  and  C_18
REMARK                            x       y       z     vdW  Elec       q    Type
REMARK                         _______ _______ _______ _____ _____    ______ ____
ROOT
ATOM      1  C   UNL     1       5.351   5.473  17.470  0.00  0.00    +0.000 A 
ATOM      2  N   UNL     1       5.247   4.656  16.430  0.00  0.00    +0.000 NA
ATOM      3  N   UNL     1       4.139   3.857  16.605  0.00  0.00    +0.000 NA
ATOM      4  C   UNL     1       3.564   4.233  17.723  0.00  0.00    +0.000 A 
ATOM      5  C   UNL     1       2.428   3.697  18.434  0.00  0.00    +0.000 A 
ATOM      6  C   UNL     1       1.918   2.420  18.191  0.00  0.00    +0.000 A 
ATOM      7  C   UNL     1       0.911   1.914  19.015  0.00  0.00    +0.000 A 
ATOM      8  C   UNL     1       0.411   2.687  20.068  0.00  0.00    +0.000 A 
ATOM      9  C   UNL     1       0.904   3.977  20.298  0.00  0.00    +0.000 A 
ATOM     10  C   UNL     1       1.911   4.485  19.472  0.00  0.00    +0.000 A 
ATOM     11  C   UNL     1       2.590   5.794  19.702  0.00  0.00    +0.000 A 
ATOM     12  N   UNL     1       3.738   6.161  19.223  0.00  0.00    +0.000 NA
ATOM     13  N   UNL     1       4.216   5.329  18.241  0.00  0.00    +0.000 N 
ENDROOT
BRANCH   1  17
ATOM     14  C   UNL     1       8.583   8.091  18.458  0.00  0.00    +0.000 A 
ATOM     15  C   UNL     1       8.435   6.872  19.112  0.00  0.00    +0.000 A 
ATOM     16  C   UNL     1       7.386   6.014  18.761  0.00  0.00    +0.000 A 
ATOM     17  C   UNL     1       6.477   6.362  17.751  0.00  0.00    +0.000 A 
ATOM     18  C   UNL     1       6.648   7.594  17.096  0.00  0.00    +0.000 A 
ATOM     19  C   UNL     1       7.691   8.451  17.450  0.00  0.00    +0.000 A 
ENDBRANCH   1  17
BRANCH  11  20
ATOM     20  O   UNL     1       1.818   6.639  20.419  0.00  0.00    +0.000 OA
BRANCH  20  21
ATOM     21  C   UNL     1       1.809   8.044  20.090  0.00  0.00    +0.000 C 
BRANCH  21  22
ATOM     22  C   UNL     1       1.056   9.076  20.910  0.00  0.00    +0.000 A 
ATOM     23  C   UNL     1       0.581  10.285  20.442  0.00  0.00    +0.000 A 
ATOM     24  C   UNL     1      -0.002  11.127  21.373  0.00  0.00    +0.000 A 
ATOM     25  N   UNL     1      -0.139  10.824  22.677  0.00  0.00    +0.000 NA
ATOM     26  C   UNL     1       0.336   9.631  23.039  0.00  0.00    +0.000 A 
ATOM     27  N   UNL     1       0.927   8.739  22.222  0.00  0.00    +0.000 NA
ENDBRANCH  21  22
ENDBRANCH  20  21
ENDBRANCH  11  20
TORSDOF 4
ENDMDL
MODEL 3
REMARK VINA RESULT:      -7.9      2.164      7.088
REMARK  Name = 
REMARK  4 active torsions:
REMARK  status: ('A' for Active; 'I' for Inactive)
REMARK    1  A    between atoms: C_4  and  C_5
REMARK    2  A    between atoms: C_15  and  O_16
REMARK    3  A    between atoms: O_16  and  C_17
REMARK    4  A    between atoms: C_17  and  C_18
REMARK                            x       y       z     vdW  Elec       q    Type
REMARK                         _______ _______ _______ _____ _____    ______ ____
ROOT
ATOM      1  C   UNL     1       5.345   5.637  17.571  0.00  0.00    +0.000 A 
ATOM      2  N   UNL     1       5.278   4.860  16.498  0.00  0.00    +0.000 NA
ATOM      3  N   UNL     1       4.178   4.039  16.615  0.00  0.00    +0.000 NA
ATOM      4  C   UNL     1       3.570   4.363  17.731  0.00  0.00    +0.000 A 
ATOM      5  C   UNL     1       2.425   3.786  18.392  0.00  0.00    +0.000 A 
ATOM      6  C   UNL     1       1.939   2.512  18.088  0.00  0.00    +0.000 A 
ATOM      7  C   UNL     1       0.919   1.961  18.866  0.00  0.00    +0.000 A 
ATOM      8  C   UNL     1       0.382   2.686  19.935  0.00  0.00    +0.000 A 
ATOM      9  C   UNL     1       0.851   3.973  20.227  0.00  0.00    +0.000 A 
ATOM     10  C   UNL     1       1.871   4.526  19.447  0.00  0.00    +0.000 A 
ATOM     11  C   UNL     1       2.525   5.834  19.743  0.00  0.00    +0.000 A 
ATOM     12  N   UNL     1       3.679   6.235  19.308  0.00  0.00    +0.000 NA
ATOM     13  N   UNL     1       4.193   5.448  18.306  0.00  0.00    +0.000 N 
ENDROOT
BRANCH   1  17
ATOM     14  C   UNL     1       8.632   8.240  18.406  0.00  0.00    +0.000 A 
ATOM     15  C   UNL     1       7.643   8.616  17.501  0.00  0.00    +0.000 A 
ATOM     16  C   UNL     1       6.560   7.764  17.256  0.00  0.00    +0.000 A 
ATOM     17  C   UNL     1       6.451   6.530  17.914  0.00  0.00    +0.000 A 
ATOM     18  C   UNL     1       7.454   6.171  18.830  0.00  0.00    +0.000 A 
ATOM     19  C   UNL     1       8.536   7.019  19.070  0.00  0.00    +0.000 A 
ENDBRANCH   1  17
BRANCH  11  20
ATOM     20  O   UNL     1       1.723   6.640  20.472  0.00  0.00    +0.000 OA
BRANCH  20  21
ATOM     21  C   UNL     1       1.660   8.048  20.161  0.00  0.00    +0.000 C 
BRANCH  21  22
ATOM     22  C   UNL     1       1.001   9.064  21.075  0.00  0.00    +0.000 A 
ATOM     23  C   UNL     1       0.441   8.795  22.308  0.00  0.00    +0.000 A 
ATOM     24  C   UNL     1      -0.192   9.847  22.947  0.00  0.00    +0.000 A 
ATOM     25  N   UNL     1      -0.272  11.093  22.443  0.00  0.00    +0.000 NA
ATOM     26  C   UNL     1       0.307  11.267  21.254  0.00  0.00    +0.000 A 
ATOM     27  N   UNL     1       0.941  10.315  20.542  0.00  0.00    +0.000 NA
ENDBRANCH  21  22
ENDBRANCH  20  21
ENDBRANCH  11  20
TORSDOF 4
ENDMDL
MODEL 4
REMARK VINA RESULT:      -7.7      0.641      1.315
REMARK  Name = 
REMARK  4 active torsions:
REMARK  status: ('A' for Active; 'I' for Inactive)
REMARK    1  A    between atoms: C_4  and  C_5
REMARK    2  A    between atoms: C_15  and  O_16
REMARK    3  A    between atoms: O_16  and  C_17
REMARK    4  A    between atoms: C_17  and  C_18
REMARK                            x       y       z     vdW  Elec       q    Type
REMARK                         _______ _______ _______ _____ _____    ______ ____
ROOT
ATOM      1  C   UNL     1       1.001   9.682  20.017  0.00  0.00    +0.000 A 
ATOM      2  N   UNL     1       0.950   9.449  21.322  0.00  0.00    +0.000 NA
ATOM      3  N   UNL     1       1.328   8.146  21.554  0.00  0.00    +0.000 NA
ATOM      4  C   UNL     1       1.648   7.623  20.394  0.00  0.00    +0.000 A 
ATOM      5  C   UNL     1       2.031   6.281  20.030  0.00  0.00    +0.000 A 
ATOM      6  C   UNL     1       1.807   5.179  20.859  0.00  0.00    +0.000 A 
ATOM      7  C   UNL     1       2.072   3.894  20.381  0.00  0.00    +0.000 A 
ATOM      8  C   UNL     1       2.568   3.715  19.086  0.00  0.00    +0.000 A 
ATOM      9  C   UNL     1       2.816   4.820  18.262  0.00  0.00    +0.000 A 
ATOM     10  C   UNL     1       2.553   6.106  18.740  0.00  0.00    +0.000 A 
ATOM     11  C   UNL     1       2.666   7.340  17.907  0.00  0.00    +0.000 A 
ATOM     12  N   UNL     1       2.111   8.487  18.149  0.00  0.00    +0.000 NA
ATOM     13  N   UNL     1       1.579   8.585  19.412  0.00  0.00    +0.000 N 
ENDROOT
BRANCH   1  17
ATOM     14  C   UNL     1      -0.444  13.104  17.900  0.00  0.00    +0.000 A 
ATOM     15  C   UNL     1      -1.296  12.044  18.199  0.00  0.00    +0.000 A 
ATOM     16  C   UNL     1      -0.815  10.941  18.914  0.00  0.00    +0.000 A 
ATOM     17  C   UNL     1       0.520  10.886  19.341  0.00  0.00    +0.000 A 
ATOM     18  C   UNL     1       1.363  11.968  19.038  0.00  0.00    +0.000 A 
ATOM     19  C   UNL     1       0.883  13.066  18.321  0.00  0.00    +0.000 A 
ENDBRANCH   1  17
BRANCH  11  20
ATOM     20  O   UNL     1       3.516   7.167  16.871  0.00  0.00    +0.000 OA
BRANCH  20  21
ATOM     21  C   UNL     1       4.915   7.474  17.044  0.00  0.00    +0.000 C 
BRANCH  21  22
ATOM     22  C   UNL     1       5.989   6.404  17.118  0.00  0.00    +0.000 A 
ATOM     23  C   UNL     1       6.355   5.557  16.091  0.00  0.00    +0.000 A 
ATOM     24  C   UNL     1       7.297   4.588  16.390  0.00  0.00    +0.000 A 
ATOM     25  N   UNL     1       7.871   4.446  17.599  0.00  0.00    +0.000 NA
ATOM     26  C   UNL     1       7.469   5.315  18.528  0.00  0.00    +0.000 A 
ATOM     27  N   UNL     1       6.557   6.289  18.350  0.00  0.00    +0.000 NA
ENDBRANCH  21  22
ENDBRANCH  20  21
ENDBRANCH  11  20
TORSDOF 4
ENDMDL
MODEL 5
REMARK VINA RESULT:      -7.6      2.034      6.838
REMARK  Name = 
REMARK  4 active torsions:
REMARK  status: ('A' for Active; 'I' for Inactive)
REMARK    1  A    between atoms: C_4  and  C_5
REMARK    2  A    between atoms: C_15  and  O_16
REMARK    3  A    between atoms: O_16  and  C_17
REMARK    4  A    between atoms: C_17  and  C_18
REMARK                            x       y       z     vdW  Elec       q    Type
REMARK                         _______ _______ _______ _____ _____    ______ ____
ROOT
ATOM      1  C   UNL     1       5.369   5.570  17.543  0.00  0.00    +0.000 A 
ATOM      2  N   UNL     1       5.329   4.805  16.460  0.00  0.00    +0.000 NA
ATOM      3  N   UNL     1       4.244   3.962  16.553  0.00  0.00    +0.000 NA
ATOM      4  C   UNL     1       3.617   4.261  17.667  0.00  0.00    +0.000 A 
ATOM      5  C   UNL     1       2.476   3.653  18.307  0.00  0.00    +0.000 A 
ATOM      6  C   UNL     1       2.018   2.374  17.981  0.00  0.00    +0.000 A 
ATOM      7  C   UNL     1       1.000   1.794  18.740  0.00  0.00    +0.000 A 
ATOM      8  C   UNL     1       0.437   2.494  19.812  0.00  0.00    +0.000 A 
ATOM      9  C   UNL     1       0.878   3.786  20.126  0.00  0.00    +0.000 A 
ATOM     10  C   UNL     1       1.895   4.369  19.364  0.00  0.00    +0.000 A 
ATOM     11  C   UNL     1       2.522   5.685  19.685  0.00  0.00    +0.000 A 
ATOM     12  N   UNL     1       3.672   6.113  19.269  0.00  0.00    +0.000 NA
ATOM     13  N   UNL     1       4.213   5.350  18.263  0.00  0.00    +0.000 N 
ENDROOT
BRANCH   1  17
ATOM     14  C   UNL     1       8.596   8.223  18.450  0.00  0.00    +0.000 A 
ATOM     15  C   UNL     1       7.610   8.592  17.539  0.00  0.00    +0.000 A 
ATOM     16  C   UNL     1       6.547   7.723  17.270  0.00  0.00    +0.000 A 
ATOM     17  C   UNL     1       6.453   6.479  17.911  0.00  0.00    +0.000 A 
ATOM     18  C   UNL     1       7.453   6.127  18.834  0.00  0.00    +0.000 A 
ATOM     19  C   UNL     1       8.516   6.993  19.098  0.00  0.00    +0.000 A 
ENDBRANCH   1  17
BRANCH  11  20
ATOM     20  O   UNL     1       1.696   6.466  20.415  0.00  0.00    +0.000 OA
BRANCH  20  21
ATOM     21  C   UNL     1       1.999   7.868  20.570  0.00  0.00    +0.000 C 
BRANCH  21  22
ATOM     22  C   UNL     1       1.078   8.969  20.076  0.00  0.00    +0.000 A 
ATOM     23  C   UNL     1       0.153   9.649  20.842  0.00  0.00    +0.000 A 
ATOM     24  C   UNL     1      -0.654  10.558  20.181  0.00  0.00    +0.000 A 
ATOM     25  N   UNL     1      -0.572  10.815  18.862  0.00  0.00    +0.000 NA
ATOM     26  C   UNL     1       0.358  10.122  18.202  0.00  0.00    +0.000 A 
ATOM     27  N   UNL     1       1.189   9.211  18.741  0.00  0.00    +0.000 NA
ENDBRANCH  21  22
ENDBRANCH  20  21
ENDBRANCH  11  20
TORSDOF 4
ENDMDL
MODEL 6
REMARK VINA RESULT:      -7.5      2.460      4.030
REMARK  Name = 
REMARK  4 active torsions:
REMARK  status: ('A' for Active; 'I' for Inactive)
REMARK    1  A    between atoms: C_4  and  C_5
REMARK    2  A    between atoms: C_15  and  O_16
REMARK    3  A    between atoms: O_16  and  C_17
REMARK    4  A    between atoms: C_17  and  C_18
REMARK                            x       y       z     vdW  Elec       q    Type
REMARK                         _______ _______ _______ _____ _____    ______ ____
ROOT
ATOM      1  C   UNL     1       0.558   9.675  19.628  0.00  0.00    +0.000 A 
ATOM      2  N   UNL     1       0.551  10.107  18.374  0.00  0.00    +0.000 NA
ATOM      3  N   UNL     1       1.460   9.371  17.647  0.00  0.00    +0.000 NA
ATOM      4  C   UNL     1       1.969   8.474  18.460  0.00  0.00    +0.000 A 
ATOM      5  C   UNL     1       3.016   7.501  18.265  0.00  0.00    +0.000 A 
ATOM      6  C   UNL     1       3.927   7.571  17.208  0.00  0.00    +0.000 A 
ATOM      7  C   UNL     1       4.999   6.678  17.164  0.00  0.00    +0.000 A 
ATOM      8  C   UNL     1       5.152   5.715  18.167  0.00  0.00    +0.000 A 
ATOM      9  C   UNL     1       4.227   5.627  19.214  0.00  0.00    +0.000 A 
ATOM     10  C   UNL     1       3.151   6.519  19.257  0.00  0.00    +0.000 A 
ATOM     11  C   UNL     1       2.179   6.592  20.387  0.00  0.00    +0.000 A 
ATOM     12  N   UNL     1       1.404   7.591  20.673  0.00  0.00    +0.000 NA
ATOM     13  N   UNL     1       1.343   8.542  19.684  0.00  0.00    +0.000 N 
ENDROOT
BRANCH   1  17
ATOM     14  C   UNL     1      -1.364  11.631  22.908  0.00  0.00    +0.000 A 
ATOM     15  C   UNL     1      -1.321  12.230  21.652  0.00  0.00    +0.000 A 
ATOM     16  C   UNL     1      -0.710  11.568  20.583  0.00  0.00    +0.000 A 
ATOM     17  C   UNL     1      -0.139  10.298  20.753  0.00  0.00    +0.000 A 
ATOM     18  C   UNL     1      -0.199   9.704  22.025  0.00  0.00    +0.000 A 
ATOM     19  C   UNL     1      -0.804  10.368  23.093  0.00  0.00    +0.000 A 
ENDBRANCH   1  17
BRANCH  11  20
ATOM     20  O   UNL     1       2.114   5.426  21.066  0.00  0.00    +0.000 OA
BRANCH  20  21
ATOM     21  C   UNL     1       1.448   4.294  20.470  0.00  0.00    +0.000 C 
BRANCH  21  22
ATOM     22  C   UNL     1       2.187   3.222  19.688  0.00  0.00    +0.000 A 
ATOM     23  C   UNL     1       3.233   2.457  20.163  0.00  0.00    +0.000 A 
ATOM     24  C   UNL     1       3.831   1.594  19.261  0.00  0.00    +0.000 A 
ATOM     25  N   UNL     1       3.441   1.458  17.979  0.00  0.00    +0.000 NA
ATOM     26  C   UNL     1       2.414   2.226  17.610  0.00  0.00    +0.000 A 
ATOM     27  N   UNL     1       1.765   3.103  18.400  0.00  0.00    +0.000 NA
ENDBRANCH  21  22
ENDBRANCH  20  21
ENDBRANCH  11  20
TORSDOF 4
ENDMDL
MODEL 7
REMARK VINA RESULT:      -7.5      2.729      7.626
REMARK  Name = 
REMARK  4 active torsions:
REMARK  status: ('A' for Active; 'I' for Inactive)
REMARK    1  A    between atoms: C_4  and  C_5
REMARK    2  A    between atoms: C_15  and  O_16
REMARK    3  A    between atoms: O_16  and  C_17
REMARK    4  A    between atoms: C_17  and  C_18
REMARK                            x       y       z     vdW  Elec       q    Type
REMARK                         _______ _______ _______ _____ _____    ______ ____
ROOT
ATOM      1  C   UNL     1       2.894   6.228  19.027  0.00  0.00    +0.000 A 
ATOM      2  N   UNL     1       2.656   5.457  20.080  0.00  0.00    +0.000 NA
ATOM      3  N   UNL     1       1.899   6.167  20.986  0.00  0.00    +0.000 NA
ATOM      4  C   UNL     1       1.651   7.338  20.449  0.00  0.00    +0.000 A 
ATOM      5  C   UNL     1       0.982   8.502  20.976  0.00  0.00    +0.000 A 
ATOM      6  C   UNL     1       0.749   8.688  22.341  0.00  0.00    +0.000 A 
ATOM      7  C   UNL     1       0.226   9.902  22.790  0.00  0.00    +0.000 A 
ATOM      8  C   UNL     1      -0.072  10.919  21.877  0.00  0.00    +0.000 A 
ATOM      9  C   UNL     1       0.138  10.727  20.506  0.00  0.00    +0.000 A 
ATOM     10  C   UNL     1       0.659   9.511  20.055  0.00  0.00    +0.000 A 
ATOM     11  C   UNL     1       1.034   9.244  18.635  0.00  0.00    +0.000 A 
ATOM     12  N   UNL     1       1.833   8.316  18.210  0.00  0.00    +0.000 NA
ATOM     13  N   UNL     1       2.148   7.381  19.165  0.00  0.00    +0.000 N 
ENDROOT
BRANCH   1  17
ATOM     14  C   UNL     1       5.433   5.410  15.686  0.00  0.00    +0.000 A 
ATOM     15  C   UNL     1       5.314   6.704  16.186  0.00  0.00    +0.000 A 
ATOM     16  C   UNL     1       4.498   6.953  17.294  0.00  0.00    +0.000 A 
ATOM     17  C   UNL     1       3.795   5.912  17.920  0.00  0.00    +0.000 A 
ATOM     18  C   UNL     1       3.934   4.611  17.408  0.00  0.00    +0.000 A 
ATOM     19  C   UNL     1       4.744   4.365  16.298  0.00  0.00    +0.000 A 
ENDBRANCH   1  17
BRANCH  11  20
ATOM     20  O   UNL     1       0.359  10.045  17.782  0.00  0.00    +0.000 OA
BRANCH  20  21
ATOM     21  C   UNL     1      -0.855   9.565  17.169  0.00  0.00    +0.000 C 
BRANCH  21  22
ATOM     22  C   UNL     1      -2.139  10.375  17.139  0.00  0.00    +0.000 A 
ATOM     23  C   UNL     1      -2.754  10.950  18.232  0.00  0.00    +0.000 A 
ATOM     24  C   UNL     1      -3.968  11.574  18.006  0.00  0.00    +0.000 A 
ATOM     25  N   UNL     1      -4.556  11.658  16.798  0.00  0.00    +0.000 NA
ATOM     26  C   UNL     1      -3.885  11.087  15.796  0.00  0.00    +0.000 A 
ATOM     27  N   UNL     1      -2.704  10.449  15.903  0.00  0.00    +0.000 NA
ENDBRANCH  21  22
ENDBRANCH  20  21
ENDBRANCH  11  20
TORSDOF 4
ENDMDL
MODEL 8
REMARK VINA RESULT:      -7.5      1.990      6.890
REMARK  Name = 
REMARK  4 active torsions:
REMARK  status: ('A' for Active; 'I' for Inactive)
REMARK    1  A    between atoms: C_4  and  C_5
REMARK    2  A    between atoms: C_15  and  O_16
REMARK    3  A    between atoms: O_16  and  C_17
REMARK    4  A    between atoms: C_17  and  C_18
REMARK                            x       y       z     vdW  Elec       q    Type
REMARK                         _______ _______ _______ _____ _____    ______ ____
ROOT
ATOM      1  C   UNL     1       6.196   5.575  17.333  0.00  0.00    +0.000 A 
ATOM      2  N   UNL     1       6.547   4.535  16.589  0.00  0.00    +0.000 NA
ATOM      3  N   UNL     1       5.529   3.607  16.617  0.00  0.00    +0.000 NA
ATOM      4  C   UNL     1       4.560   4.119  17.338  0.00  0.00    +0.000 A 
ATOM      5  C   UNL     1       3.300   3.563  17.768  0.00  0.00    +0.000 A 
ATOM      6  C   UNL     1       3.031   2.192  17.744  0.00  0.00    +0.000 A 
ATOM      7  C   UNL     1       1.847   1.714  18.309  0.00  0.00    +0.000 A 
ATOM      8  C   UNL     1       0.934   2.603  18.884  0.00  0.00    +0.000 A 
ATOM      9  C   UNL     1       1.190   3.980  18.888  0.00  0.00    +0.000 A 
ATOM     10  C   UNL     1       2.374   4.460  18.320  0.00  0.00    +0.000 A 
ATOM     11  C   UNL     1       2.802   5.889  18.378  0.00  0.00    +0.000 A 
ATOM     12  N   UNL     1       4.006   6.340  18.209  0.00  0.00    +0.000 NA
ATOM     13  N   UNL     1       4.879   5.407  17.707  0.00  0.00    +0.000 N 
ENDROOT
BRANCH   1  17
ATOM     14  C   UNL     1       8.643   8.859  18.560  0.00  0.00    +0.000 A 
ATOM     15  C   UNL     1       8.728   7.630  19.209  0.00  0.00    +0.000 A 
ATOM     16  C   UNL     1       7.939   6.558  18.782  0.00  0.00    +0.000 A 
ATOM     17  C   UNL     1       7.059   6.698  17.698  0.00  0.00    +0.000 A 
ATOM     18  C   UNL     1       6.993   7.942  17.049  0.00  0.00    +0.000 A 
ATOM     19  C   UNL     1       7.777   9.013  17.480  0.00  0.00    +0.000 A 
ENDBRANCH   1  17
BRANCH  11  20
ATOM     20  O   UNL     1       1.749   6.719  18.541  0.00  0.00    +0.000 OA
BRANCH  20  21
ATOM     21  C   UNL     1       1.982   8.127  18.752  0.00  0.00    +0.000 C 
BRANCH  21  22
ATOM     22  C   UNL     1       1.497   8.866  19.986  0.00  0.00    +0.000 A 
ATOM     23  C   UNL     1       1.381   8.329  21.252  0.00  0.00    +0.000 A 
ATOM     24  C   UNL     1       0.832   9.145  22.226  0.00  0.00    +0.000 A 
ATOM     25  N   UNL     1       0.430  10.411  22.006  0.00  0.00    +0.000 NA
ATOM     26  C   UNL     1       0.591  10.852  20.758  0.00  0.00    +0.000 A 
ATOM     27  N   UNL     1       1.105  10.145  19.734  0.00  0.00    +0.000 NA
ENDBRANCH  21  22
ENDBRANCH  20  21
ENDBRANCH  11  20
TORSDOF 4
ENDMDL
MODEL 9
REMARK VINA RESULT:      -7.5      1.779      2.429
REMARK  Name = 
REMARK  4 active torsions:
REMARK  status: ('A' for Active; 'I' for Inactive)
REMARK    1  A    between atoms: C_4  and  C_5
REMARK    2  A    between atoms: C_15  and  O_16
REMARK    3  A    between atoms: O_16  and  C_17
REMARK    4  A    between atoms: C_17  and  C_18
REMARK                            x       y       z     vdW  Elec       q    Type
REMARK                         _______ _______ _______ _____ _____    ______ ____
ROOT
ATOM      1  C   UNL     1       1.772   7.717  19.892  0.00  0.00    +0.000 A 
ATOM      2  N   UNL     1       1.463   7.252  21.096  0.00  0.00    +0.000 NA
ATOM      3  N   UNL     1       1.563   5.878  21.079  0.00  0.00    +0.000 NA
ATOM      4  C   UNL     1       1.976   5.535  19.881  0.00  0.00    +0.000 A 
ATOM      5  C   UNL     1       2.174   4.240  19.279  0.00  0.00    +0.000 A 
ATOM      6  C   UNL     1       1.624   3.069  19.807  0.00  0.00    +0.000 A 
ATOM      7  C   UNL     1       1.737   1.874  19.094  0.00  0.00    +0.000 A 
ATOM      8  C   UNL     1       2.404   1.850  17.865  0.00  0.00    +0.000 A 
ATOM      9  C   UNL     1       2.976   3.018  17.344  0.00  0.00    +0.000 A 
ATOM     10  C   UNL     1       2.866   4.214  18.060  0.00  0.00    +0.000 A 
ATOM     11  C   UNL     1       3.331   5.535  17.543  0.00  0.00    +0.000 A 
ATOM     12  N   UNL     1       2.953   6.702  17.962  0.00  0.00    +0.000 NA
ATOM     13  N   UNL     1       2.243   6.663  19.136  0.00  0.00    +0.000 N 
ENDROOT
BRANCH   1  17
ATOM     14  C   UNL     1       1.181  11.740  18.574  0.00  0.00    +0.000 A 
ATOM     15  C   UNL     1       0.611  11.293  19.763  0.00  0.00    +0.000 A 
ATOM     16  C   UNL     1       0.833   9.981  20.194  0.00  0.00    +0.000 A 
ATOM     17  C   UNL     1       1.630   9.102  19.446  0.00  0.00    +0.000 A 
ATOM     18  C   UNL     1       2.204   9.573  18.253  0.00  0.00    +0.000 A 
ATOM     19  C   UNL     1       1.978  10.880  17.821  0.00  0.00    +0.000 A 
ENDBRANCH   1  17
BRANCH  11  20
ATOM     20  O   UNL     1       4.299   5.394  16.611  0.00  0.00    +0.000 OA
BRANCH  20  21
ATOM     21  C   UNL     1       5.212   6.484  16.367  0.00  0.00    +0.000 C 
BRANCH  21  22
ATOM     22  C   UNL     1       6.424   6.755  17.240  0.00  0.00    +0.000 A 
ATOM     23  C   UNL     1       6.943   5.894  18.186  0.00  0.00    +0.000 A 
ATOM     24  C   UNL     1       8.001   6.367  18.942  0.00  0.00    +0.000 A 
ATOM     25  N   UNL     1       8.545   7.589  18.793  0.00  0.00    +0.000 NA
ATOM     26  C   UNL     1       7.989   8.349  17.848  0.00  0.00    +0.000 A 
ATOM     27  N   UNL     1       6.955   7.995  17.061  0.00  0.00    +0.000 NA
ENDBRANCH  21  22
ENDBRANCH  20  21
ENDBRANCH  11  20
TORSDOF 4
ENDMDL
