MODEL 1
REMARK VINA RESULT:      -7.8      0.000      0.000
REMARK  Name = 
REMARK  6 active torsions:
REMARK  status: ('A' for Active; 'I' for Inactive)
REMARK    1  A    between atoms: C_1  and  N_2
REMARK    2  A    between atoms: N_2  and  C_3
REMARK    3  A    between atoms: N_2  and  C_4
REMARK    4  A    between atoms: C_4  and  C_5
REMARK    5  A    between atoms: C_20  and  C_21
REMARK    6  A    between atoms: C_20  and  C_22
REMARK                            x       y       z     vdW  Elec       q    Type
REMARK                         _______ _______ _______ _____ _____    ______ ____
ROOT
ATOM      1  C   UNL     1       4.468   5.690  16.993  0.00  0.00    +0.000 A 
ATOM      2  C   UNL     1       4.581   4.297  16.945  0.00  0.00    +0.000 A 
ATOM      3  C   UNL     1       3.859   3.507  17.833  0.00  0.00    +0.000 A 
ATOM      4  C   UNL     1       3.027   4.104  18.784  0.00  0.00    +0.000 A 
ATOM      5  C   UNL     1       2.900   5.509  18.877  0.00  0.00    +0.000 A 
ATOM      6  C   UNL     1       3.629   6.281  17.956  0.00  0.00    +0.000 A 
ATOM      7  N   UNL     1       2.109   6.099  19.901  0.00  0.00    +0.000 N 
ATOM      8  C   UNL     1       1.692   7.401  19.960  0.00  0.00    +0.000 A 
ATOM      9  N   UNL     1       1.434   8.165  18.908  0.00  0.00    +0.000 NA
ATOM     10  C   UNL     1       0.985   9.404  19.301  0.00  0.00    +0.000 A 
ATOM     11  C   UNL     1       0.939   9.613  20.657  0.00  0.00    +0.000 A 
ATOM     12  S   UNL     1       1.440   8.230  21.482  0.00  0.00    +0.000 S 
ATOM     13  C   UNL     1       0.528  10.842  21.282  0.00  0.00    +0.000 C 
ATOM     14  O   UNL     1       0.411  11.036  22.490  0.00  0.00    +0.000 OA
ATOM     15  N   UNL     1       0.245  11.863  20.390  0.00  0.00    +0.000 N 
ATOM     16  C   UNL     1       0.729  11.868  18.990  0.00  0.00    +0.000 C 
ATOM     17  C   UNL     1      -0.082  12.895  18.188  0.00  0.00    +0.000 C 
ATOM     18  C   UNL     1       2.210  12.291  18.983  0.00  0.00    +0.000 C 
ATOM     19  C   UNL     1       0.567  10.459  18.335  0.00  0.00    +0.000 C 
ATOM     20  C   UNL     1       1.854   5.165  20.998  0.00  0.00    +0.000 C 
ATOM     21  C   UNL     1       1.381   3.837  20.423  0.00  0.00    +0.000 C 
ATOM     22  O   UNL     1       2.386   3.217  19.619  0.00  0.00    +0.000 OA
ATOM     23  H   UNL     1       0.061  12.747  20.852  0.00  0.00    +0.000 HD
ENDROOT
BRANCH   1  24
ATOM     24  C   UNL     1       5.208   6.554  15.992  0.00  0.00    +0.000 C 
BRANCH  24  26
ATOM     25  C   UNL     1       7.147   6.539  17.453  0.00  0.00    +0.000 C 
ATOM     26  N   UNL     1       6.672   6.396  16.074  0.00  0.00    +0.000 NA
ATOM     27  C   UNL     1       7.069   5.092  15.542  0.00  0.00    +0.000 C 
ENDBRANCH  24  26
ENDBRANCH   1  24
TORSDOF 2
ENDMDL
MODEL 2
REMARK VINA RESULT:      -7.6      6.280      9.224
REMARK  Name = 
REMARK  6 active torsions:
REMARK  status: ('A' for Active; 'I' for Inactive)
REMARK    1  A    between atoms: C_1  and  N_2
REMARK    2  A    between atoms: N_2  and  C_3
REMARK    3  A    between atoms: N_2  and  C_4
REMARK    4  A    between atoms: C_4  and  C_5
REMARK    5  A    between atoms: C_20  and  C_21
REMARK    6  A    between atoms: C_20  and  C_22
REMARK                            x       y       z     vdW  Elec       q    Type
REMARK                         _______ _______ _______ _____ _____    ______ ____
ROOT
ATOM      1  C   UNL     1      -3.251  11.238  17.645  0.00  0.00    +0.000 A 
ATOM      2  C   UNL     1      -2.230  10.445  17.110  0.00  0.00    +0.000 A 
ATOM      3  C   UNL     1      -1.053  10.249  17.824  0.00  0.00    +0.000 A 
ATOM      4  C   UNL     1      -0.882  10.853  19.072  0.00  0.00    +0.000 A 
ATOM      5  C   UNL     1      -1.882  11.676  19.639  0.00  0.00    +0.000 A 
ATOM      6  C   UNL     1      -3.067  11.842  18.902  0.00  0.00    +0.000 A 
ATOM      7  N   UNL     1      -1.657  12.343  20.874  0.00  0.00    +0.000 N 
ATOM      8  C   UNL     1      -2.602  12.951  21.655  0.00  0.00    +0.000 A 
ATOM      9  N   UNL     1      -3.870  12.572  21.748  0.00  0.00    +0.000 NA
ATOM     10  C   UNL     1      -4.549  13.352  22.655  0.00  0.00    +0.000 A 
ATOM     11  C   UNL     1      -3.818  14.363  23.229  0.00  0.00    +0.000 A 
ATOM     12  S   UNL     1      -2.231  14.339  22.657  0.00  0.00    +0.000 S 
ATOM     13  C   UNL     1      -4.336  15.309  24.181  0.00  0.00    +0.000 C 
ATOM     14  O   UNL     1      -3.691  16.179  24.762  0.00  0.00    +0.000 OA
ATOM     15  N   UNL     1      -5.693  15.177  24.428  0.00  0.00    +0.000 N 
ATOM     16  C   UNL     1      -6.613  14.463  23.513  0.00  0.00    +0.000 C 
ATOM     17  C   UNL     1      -7.916  14.152  24.262  0.00  0.00    +0.000 C 
ATOM     18  C   UNL     1      -6.935  15.385  22.321  0.00  0.00    +0.000 C 
ATOM     19  C   UNL     1      -5.979  13.129  23.007  0.00  0.00    +0.000 C 
ATOM     20  C   UNL     1      -0.234  12.417  21.202  0.00  0.00    +0.000 C 
ATOM     21  C   UNL     1       0.392  11.040  21.024  0.00  0.00    +0.000 C 
ATOM     22  O   UNL     1       0.335  10.602  19.666  0.00  0.00    +0.000 OA
ATOM     23  H   UNL     1      -6.057  15.918  25.016  0.00  0.00    +0.000 HD
ENDROOT
BRANCH   1  24
ATOM     24  C   UNL     1      -4.558  11.410  16.898  0.00  0.00    +0.000 C 
BRANCH  24  26
ATOM     25  C   UNL     1      -6.408  12.980  16.989  0.00  0.00    +0.000 C 
ATOM     26  N   UNL     1      -5.622  11.994  17.736  0.00  0.00    +0.000 NA
ATOM     27  C   UNL     1      -6.499  10.938  18.243  0.00  0.00    +0.000 C 
ENDBRANCH  24  26
ENDBRANCH   1  24
TORSDOF 2
ENDMDL
MODEL 3
REMARK VINA RESULT:      -7.4      2.083      4.370
REMARK  Name = 
REMARK  6 active torsions:
REMARK  status: ('A' for Active; 'I' for Inactive)
REMARK    1  A    between atoms: C_1  and  N_2
REMARK    2  A    between atoms: N_2  and  C_3
REMARK    3  A    between atoms: N_2  and  C_4
REMARK    4  A    between atoms: C_4  and  C_5
REMARK    5  A    between atoms: C_20  and  C_21
REMARK    6  A    between atoms: C_20  and  C_22
REMARK                            x       y       z     vdW  Elec       q    Type
REMARK                         _______ _______ _______ _____ _____    ______ ____
ROOT
ATOM      1  C   UNL     1       2.554   2.960  18.439  0.00  0.00    +0.000 A 
ATOM      2  C   UNL     1       3.539   2.251  17.740  0.00  0.00    +0.000 A 
ATOM      3  C   UNL     1       4.531   2.935  17.047  0.00  0.00    +0.000 A 
ATOM      4  C   UNL     1       4.540   4.332  17.035  0.00  0.00    +0.000 A 
ATOM      5  C   UNL     1       3.552   5.084  17.713  0.00  0.00    +0.000 A 
ATOM      6  C   UNL     1       2.573   4.366  18.418  0.00  0.00    +0.000 A 
ATOM      7  N   UNL     1       3.536   6.504  17.625  0.00  0.00    +0.000 N 
ATOM      8  C   UNL     1       2.816   7.359  18.413  0.00  0.00    +0.000 A 
ATOM      9  N   UNL     1       2.494   7.137  19.680  0.00  0.00    +0.000 NA
ATOM     10  C   UNL     1       1.815   8.210  20.208  0.00  0.00    +0.000 A 
ATOM     11  C   UNL     1       1.574   9.244  19.337  0.00  0.00    +0.000 A 
ATOM     12  S   UNL     1       2.227   8.899  17.821  0.00  0.00    +0.000 S 
ATOM     13  C   UNL     1       0.861  10.447  19.673  0.00  0.00    +0.000 C 
ATOM     14  O   UNL     1       0.690  11.417  18.937  0.00  0.00    +0.000 OA
ATOM     15  N   UNL     1       0.346  10.459  20.959  0.00  0.00    +0.000 N 
ATOM     16  C   UNL     1       0.144   9.229  21.758  0.00  0.00    +0.000 C 
ATOM     17  C   UNL     1      -0.040   9.618  23.232  0.00  0.00    +0.000 C 
ATOM     18  C   UNL     1      -1.137   8.527  21.267  0.00  0.00    +0.000 C 
ATOM     19  C   UNL     1       1.368   8.268  21.629  0.00  0.00    +0.000 C 
ATOM     20  C   UNL     1       4.316   6.988  16.486  0.00  0.00    +0.000 C 
ATOM     21  C   UNL     1       5.675   6.301  16.484  0.00  0.00    +0.000 C 
ATOM     22  O   UNL     1       5.558   4.890  16.295  0.00  0.00    +0.000 OA
ATOM     23  H   UNL     1      -0.242  11.266  21.138  0.00  0.00    +0.000 HD
ENDROOT
BRANCH   1  24
ATOM     24  C   UNL     1       1.504   2.220  19.242  0.00  0.00    +0.000 C 
BRANCH  24  26
ATOM     25  C   UNL     1       2.757   2.563  21.293  0.00  0.00    +0.000 C 
ATOM     26  N   UNL     1       1.445   2.660  20.648  0.00  0.00    +0.000 NA
ATOM     27  C   UNL     1       0.952   4.036  20.725  0.00  0.00    +0.000 C 
ENDBRANCH  24  26
ENDBRANCH   1  24
TORSDOF 2
ENDMDL
MODEL 4
REMARK VINA RESULT:      -7.3      5.602      8.804
REMARK  Name = 
REMARK  6 active torsions:
REMARK  status: ('A' for Active; 'I' for Inactive)
REMARK    1  A    between atoms: C_1  and  N_2
REMARK    2  A    between atoms: N_2  and  C_3
REMARK    3  A    between atoms: N_2  and  C_4
REMARK    4  A    between atoms: C_4  and  C_5
REMARK    5  A    between atoms: C_20  and  C_21
REMARK    6  A    between atoms: C_20  and  C_22
REMARK                            x       y       z     vdW  Elec       q    Type
REMARK                         _______ _______ _______ _____ _____    ______ ____
ROOT
ATOM      1  C   UNL     1      -1.161  10.811  19.119  0.00  0.00    +0.000 A 
ATOM      2  C   UNL     1      -1.177  10.296  17.818  0.00  0.00    +0.000 A 
ATOM      3  C   UNL     1      -2.300  10.464  17.016  0.00  0.00    +0.000 A 
ATOM      4  C   UNL     1      -3.420  11.136  17.510  0.00  0.00    +0.000 A 
ATOM      5  C   UNL     1      -3.450  11.654  18.826  0.00  0.00    +0.000 A 
ATOM      6  C   UNL     1      -2.295  11.484  19.608  0.00  0.00    +0.000 A 
ATOM      7  N   UNL     1      -4.628  12.267  19.336  0.00  0.00    +0.000 N 
ATOM      8  C   UNL     1      -4.724  13.026  20.470  0.00  0.00    +0.000 A 
ATOM      9  N   UNL     1      -3.757  13.789  20.959  0.00  0.00    +0.000 NA
ATOM     10  C   UNL     1      -4.184  14.465  22.078  0.00  0.00    +0.000 A 
ATOM     11  C   UNL     1      -5.468  14.190  22.481  0.00  0.00    +0.000 A 
ATOM     12  S   UNL     1      -6.187  13.081  21.432  0.00  0.00    +0.000 S 
ATOM     13  C   UNL     1      -6.104  14.764  23.636  0.00  0.00    +0.000 C 
ATOM     14  O   UNL     1      -7.270  14.590  23.982  0.00  0.00    +0.000 OA
ATOM     15  N   UNL     1      -5.277  15.583  24.388  0.00  0.00    +0.000 N 
ATOM     16  C   UNL     1      -3.799  15.536  24.300  0.00  0.00    +0.000 C 
ATOM     17  C   UNL     1      -3.224  16.813  24.930  0.00  0.00    +0.000 C 
ATOM     18  C   UNL     1      -3.296  14.319  25.099  0.00  0.00    +0.000 C 
ATOM     19  C   UNL     1      -3.328  15.438  22.814  0.00  0.00    +0.000 C 
ATOM     20  C   UNL     1      -5.811  11.906  18.556  0.00  0.00    +0.000 C 
ATOM     21  C   UNL     1      -5.508  12.093  17.075  0.00  0.00    +0.000 C 
ATOM     22  O   UNL     1      -4.474  11.215  16.629  0.00  0.00    +0.000 OA
ATOM     23  H   UNL     1      -5.711  15.889  25.252  0.00  0.00    +0.000 HD
ENDROOT
BRANCH   1  24
ATOM     24  C   UNL     1       0.080  10.681  19.979  0.00  0.00    +0.000 C 
BRANCH  24  26
ATOM     25  C   UNL     1       1.083   8.642  20.833  0.00  0.00    +0.000 C 
ATOM     26  N   UNL     1      -0.023   9.593  20.969  0.00  0.00    +0.000 NA
ATOM     27  C   UNL     1      -0.042  10.146  22.324  0.00  0.00    +0.000 C 
ENDBRANCH  24  26
ENDBRANCH   1  24
TORSDOF 2
ENDMDL
MODEL 5
REMARK VINA RESULT:      -7.2      0.919      1.094
REMARK  Name = 
REMARK  6 active torsions:
REMARK  status: ('A' for Active; 'I' for Inactive)
REMARK    1  A    between atoms: C_1  and  N_2
REMARK    2  A    between atoms: N_2  and  C_3
REMARK    3  A    between atoms: N_2  and  C_4
REMARK    4  A    between atoms: C_4  and  C_5
REMARK    5  A    between atoms: C_20  and  C_21
REMARK    6  A    between atoms: C_20  and  C_22
REMARK                            x       y       z     vdW  Elec       q    Type
REMARK                         _______ _______ _______ _____ _____    ______ ____
ROOT
ATOM      1  C   UNL     1       5.057   6.010  17.765  0.00  0.00    +0.000 A 
ATOM      2  C   UNL     1       5.149   4.623  17.611  0.00  0.00    +0.000 A 
ATOM      3  C   UNL     1       4.203   3.791  18.200  0.00  0.00    +0.000 A 
ATOM      4  C   UNL     1       3.164   4.339  18.957  0.00  0.00    +0.000 A 
ATOM      5  C   UNL     1       3.047   5.735  19.152  0.00  0.00    +0.000 A 
ATOM      6  C   UNL     1       4.008   6.550  18.531  0.00  0.00    +0.000 A 
ATOM      7  N   UNL     1       2.028   6.266  19.989  0.00  0.00    +0.000 N 
ATOM      8  C   UNL     1       1.639   7.575  20.067  0.00  0.00    +0.000 A 
ATOM      9  N   UNL     1       1.681   8.442  19.064  0.00  0.00    +0.000 NA
ATOM     10  C   UNL     1       1.172   9.660  19.448  0.00  0.00    +0.000 A 
ATOM     11  C   UNL     1       0.777   9.749  20.760  0.00  0.00    +0.000 A 
ATOM     12  S   UNL     1       1.014   8.275  21.546  0.00  0.00    +0.000 S 
ATOM     13  C   UNL     1       0.242  10.934  21.376  0.00  0.00    +0.000 C 
ATOM     14  O   UNL     1      -0.183  11.024  22.526  0.00  0.00    +0.000 OA
ATOM     15  N   UNL     1       0.225  12.043  20.546  0.00  0.00    +0.000 N 
ATOM     16  C   UNL     1       1.059  12.151  19.327  0.00  0.00    +0.000 C 
ATOM     17  C   UNL     1       0.509  13.283  18.447  0.00  0.00    +0.000 C 
ATOM     18  C   UNL     1       2.499  12.504  19.745  0.00  0.00    +0.000 C 
ATOM     19  C   UNL     1       1.045  10.816  18.516  0.00  0.00    +0.000 C 
ATOM     20  C   UNL     1       1.475   5.251  20.885  0.00  0.00    +0.000 C 
ATOM     21  C   UNL     1       1.141   4.002  20.079  0.00  0.00    +0.000 C 
ATOM     22  O   UNL     1       2.308   3.411  19.506  0.00  0.00    +0.000 OA
ATOM     23  H   UNL     1      -0.054  12.890  21.030  0.00  0.00    +0.000 HD
ENDROOT
BRANCH   1  24
ATOM     24  C   UNL     1       6.052   6.925  17.080  0.00  0.00    +0.000 C 
BRANCH  24  26
ATOM     25  C   UNL     1       7.902   6.473  18.586  0.00  0.00    +0.000 C 
ATOM     26  N   UNL     1       7.032   7.506  18.016  0.00  0.00    +0.000 NA
ATOM     27  C   UNL     1       7.840   8.518  17.336  0.00  0.00    +0.000 C 
ENDBRANCH  24  26
ENDBRANCH   1  24
TORSDOF 2
ENDMDL
MODEL 6
REMARK VINA RESULT:      -7.2      5.683     10.770
REMARK  Name = 
REMARK  6 active torsions:
REMARK  status: ('A' for Active; 'I' for Inactive)
REMARK    1  A    between atoms: C_1  and  N_2
REMARK    2  A    between atoms: N_2  and  C_3
REMARK    3  A    between atoms: N_2  and  C_4
REMARK    4  A    between atoms: C_4  and  C_5
REMARK    5  A    between atoms: C_20  and  C_21
REMARK    6  A    between atoms: C_20  and  C_22
REMARK                            x       y       z     vdW  Elec       q    Type
REMARK                         _______ _______ _______ _____ _____    ______ ____
ROOT
ATOM      1  C   UNL     1      -5.702  14.098  22.820  0.00  0.00    +0.000 A 
ATOM      2  C   UNL     1      -5.684  15.090  23.807  0.00  0.00    +0.000 A 
ATOM      3  C   UNL     1      -4.474  15.613  24.248  0.00  0.00    +0.000 A 
ATOM      4  C   UNL     1      -3.272  15.141  23.717  0.00  0.00    +0.000 A 
ATOM      5  C   UNL     1      -3.246  14.126  22.732  0.00  0.00    +0.000 A 
ATOM      6  C   UNL     1      -4.485  13.629  22.293  0.00  0.00    +0.000 A 
ATOM      7  N   UNL     1      -2.010  13.605  22.260  0.00  0.00    +0.000 N 
ATOM      8  C   UNL     1      -1.826  12.824  21.152  0.00  0.00    +0.000 A 
ATOM      9  N   UNL     1      -2.564  12.879  20.052  0.00  0.00    +0.000 NA
ATOM     10  C   UNL     1      -2.092  12.005  19.101  0.00  0.00    +0.000 A 
ATOM     11  C   UNL     1      -1.015  11.242  19.482  0.00  0.00    +0.000 A 
ATOM     12  S   UNL     1      -0.547  11.630  21.056  0.00  0.00    +0.000 S 
ATOM     13  C   UNL     1      -0.381  10.250  18.655  0.00  0.00    +0.000 C 
ATOM     14  O   UNL     1       0.623   9.603  18.942  0.00  0.00    +0.000 OA
ATOM     15  N   UNL     1      -1.002  10.053  17.432  0.00  0.00    +0.000 N 
ATOM     16  C   UNL     1      -2.400  10.462  17.162  0.00  0.00    +0.000 C 
ATOM     17  C   UNL     1      -2.628  10.479  15.644  0.00  0.00    +0.000 C 
ATOM     18  C   UNL     1      -3.348   9.425  17.794  0.00  0.00    +0.000 C 
ATOM     19  C   UNL     1      -2.691  11.883  17.742  0.00  0.00    +0.000 C 
ATOM     20  C   UNL     1      -0.908  13.907  23.173  0.00  0.00    +0.000 C 
ATOM     21  C   UNL     1      -0.953  15.385  23.538  0.00  0.00    +0.000 C 
ATOM     22  O   UNL     1      -2.143  15.720  24.252  0.00  0.00    +0.000 OA
ATOM     23  H   UNL     1      -0.605   9.277  16.913  0.00  0.00    +0.000 HD
ENDROOT
BRANCH   1  24
ATOM     24  C   UNL     1      -7.019  13.564  22.294  0.00  0.00    +0.000 C 
BRANCH  24  26
ATOM     25  C   UNL     1      -7.917  11.553  23.316  0.00  0.00    +0.000 C 
ATOM     26  N   UNL     1      -7.063  12.091  22.254  0.00  0.00    +0.000 NA
ATOM     27  C   UNL     1      -7.544  11.637  20.949  0.00  0.00    +0.000 C 
ENDBRANCH  24  26
ENDBRANCH   1  24
TORSDOF 2
ENDMDL
MODEL 7
REMARK VINA RESULT:      -7.0      6.440      8.877
REMARK  Name = 
REMARK  6 active torsions:
REMARK  status: ('A' for Active; 'I' for Inactive)
REMARK    1  A    between atoms: C_1  and  N_2
REMARK    2  A    between atoms: N_2  and  C_3
REMARK    3  A    between atoms: N_2  and  C_4
REMARK    4  A    between atoms: C_4  and  C_5
REMARK    5  A    between atoms: C_20  and  C_21
REMARK    6  A    between atoms: C_20  and  C_22
REMARK                            x       y       z     vdW  Elec       q    Type
REMARK                         _______ _______ _______ _____ _____    ______ ____
ROOT
ATOM      1  C   UNL     1      -1.189  11.147  18.798  0.00  0.00    +0.000 A 
ATOM      2  C   UNL     1      -1.274  10.619  17.505  0.00  0.00    +0.000 A 
ATOM      3  C   UNL     1      -2.471  10.687  16.802  0.00  0.00    +0.000 A 
ATOM      4  C   UNL     1      -3.596  11.270  17.388  0.00  0.00    +0.000 A 
ATOM      5  C   UNL     1      -3.557  11.798  18.700  0.00  0.00    +0.000 A 
ATOM      6  C   UNL     1      -2.329  11.731  19.380  0.00  0.00    +0.000 A 
ATOM      7  N   UNL     1      -4.733  12.318  19.308  0.00  0.00    +0.000 N 
ATOM      8  C   UNL     1      -4.794  13.078  20.443  0.00  0.00    +0.000 A 
ATOM      9  N   UNL     1      -3.854  13.923  20.844  0.00  0.00    +0.000 NA
ATOM     10  C   UNL     1      -4.238  14.573  21.994  0.00  0.00    +0.000 A 
ATOM     11  C   UNL     1      -5.456  14.198  22.506  0.00  0.00    +0.000 A 
ATOM     12  S   UNL     1      -6.169  13.024  21.527  0.00  0.00    +0.000 S 
ATOM     13  C   UNL     1      -6.036  14.730  23.710  0.00  0.00    +0.000 C 
ATOM     14  O   UNL     1      -7.151  14.466  24.155  0.00  0.00    +0.000 OA
ATOM     15  N   UNL     1      -5.218  15.621  24.386  0.00  0.00    +0.000 N 
ATOM     16  C   UNL     1      -3.755  15.695  24.171  0.00  0.00    +0.000 C 
ATOM     17  C   UNL     1      -3.234  17.020  24.745  0.00  0.00    +0.000 C 
ATOM     18  C   UNL     1      -3.087  14.531  24.929  0.00  0.00    +0.000 C 
ATOM     19  C   UNL     1      -3.405  15.620  22.651  0.00  0.00    +0.000 C 
ATOM     20  C   UNL     1      -5.945  11.854  18.633  0.00  0.00    +0.000 C 
ATOM     21  C   UNL     1      -5.786  12.050  17.131  0.00  0.00    +0.000 C 
ATOM     22  O   UNL     1      -4.725  11.254  16.600  0.00  0.00    +0.000 OA
ATOM     23  H   UNL     1      -5.601  15.901  25.283  0.00  0.00    +0.000 HD
ENDROOT
BRANCH   1  24
ATOM     24  C   UNL     1       0.127  11.127  19.549  0.00  0.00    +0.000 C 
BRANCH  24  26
ATOM     25  C   UNL     1       1.186  12.884  20.847  0.00  0.00    +0.000 C 
ATOM     26  N   UNL     1       0.831  12.422  19.503  0.00  0.00    +0.000 NA
ATOM     27  C   UNL     1       2.034  12.312  18.678  0.00  0.00    +0.000 C 
ENDBRANCH  24  26
ENDBRANCH   1  24
TORSDOF 2
ENDMDL
MODEL 8
REMARK VINA RESULT:      -6.9      7.320      9.044
REMARK  Name = 
REMARK  6 active torsions:
REMARK  status: ('A' for Active; 'I' for Inactive)
REMARK    1  A    between atoms: C_1  and  N_2
REMARK    2  A    between atoms: N_2  and  C_3
REMARK    3  A    between atoms: N_2  and  C_4
REMARK    4  A    between atoms: C_4  and  C_5
REMARK    5  A    between atoms: C_20  and  C_21
REMARK    6  A    between atoms: C_20  and  C_22
REMARK                            x       y       z     vdW  Elec       q    Type
REMARK                         _______ _______ _______ _____ _____    ______ ____
ROOT
ATOM      1  C   UNL     1      -4.980  11.796  18.478  0.00  0.00    +0.000 A 
ATOM      2  C   UNL     1      -6.256  11.480  18.955  0.00  0.00    +0.000 A 
ATOM      3  C   UNL     1      -6.585  11.725  20.284  0.00  0.00    +0.000 A 
ATOM      4  C   UNL     1      -5.637  12.277  21.149  0.00  0.00    +0.000 A 
ATOM      5  C   UNL     1      -4.330  12.592  20.710  0.00  0.00    +0.000 A 
ATOM      6  C   UNL     1      -4.032  12.349  19.358  0.00  0.00    +0.000 A 
ATOM      7  N   UNL     1      -3.357  13.081  21.625  0.00  0.00    +0.000 N 
ATOM      8  C   UNL     1      -2.159  13.659  21.307  0.00  0.00    +0.000 A 
ATOM      9  N   UNL     1      -1.926  14.375  20.215  0.00  0.00    +0.000 NA
ATOM     10  C   UNL     1      -0.640  14.861  20.214  0.00  0.00    +0.000 A 
ATOM     11  C   UNL     1       0.137  14.484  21.282  0.00  0.00    +0.000 A 
ATOM     12  S   UNL     1      -0.753  13.519  22.342  0.00  0.00    +0.000 S 
ATOM     13  C   UNL     1       1.514  14.857  21.465  0.00  0.00    +0.000 C 
ATOM     14  O   UNL     1       2.211  14.593  22.442  0.00  0.00    +0.000 OA
ATOM     15  N   UNL     1       2.047  15.584  20.414  0.00  0.00    +0.000 N 
ATOM     16  C   UNL     1       1.447  15.604  19.060  0.00  0.00    +0.000 C 
ATOM     17  C   UNL     1       2.023  16.792  18.277  0.00  0.00    +0.000 C 
ATOM     18  C   UNL     1       1.828  14.300  18.333  0.00  0.00    +0.000 C 
ATOM     19  C   UNL     1      -0.107  15.744  19.137  0.00  0.00    +0.000 C 
ATOM     20  C   UNL     1      -3.724  12.798  23.012  0.00  0.00    +0.000 C 
ATOM     21  C   UNL     1      -5.171  13.214  23.240  0.00  0.00    +0.000 C 
ATOM     22  O   UNL     1      -6.076  12.448  22.443  0.00  0.00    +0.000 OA
ATOM     23  H   UNL     1       3.044  15.744  20.514  0.00  0.00    +0.000 HD
ENDROOT
BRANCH   1  24
ATOM     24  C   UNL     1      -4.633  11.583  17.018  0.00  0.00    +0.000 C 
BRANCH  24  26
ATOM     25  C   UNL     1      -3.227   9.663  17.496  0.00  0.00    +0.000 C 
ATOM     26  N   UNL     1      -3.308  10.965  16.829  0.00  0.00    +0.000 NA
ATOM     27  C   UNL     1      -3.021  10.814  15.403  0.00  0.00    +0.000 C 
ENDBRANCH  24  26
ENDBRANCH   1  24
TORSDOF 2
ENDMDL
MODEL 9
REMARK VINA RESULT:      -6.8      5.277      8.474
REMARK  Name = 
REMARK  6 active torsions:
REMARK  status: ('A' for Active; 'I' for Inactive)
REMARK    1  A    between atoms: C_1  and  N_2
REMARK    2  A    between atoms: N_2  and  C_3
REMARK    3  A    between atoms: N_2  and  C_4
REMARK    4  A    between atoms: C_4  and  C_5
REMARK    5  A    between atoms: C_20  and  C_21
REMARK    6  A    between atoms: C_20  and  C_22
REMARK                            x       y       z     vdW  Elec       q    Type
REMARK                         _______ _______ _______ _____ _____    ______ ____
ROOT
ATOM      1  C   UNL     1      -3.577  11.308  17.715  0.00  0.00    +0.000 A 
ATOM      2  C   UNL     1      -3.220  10.248  16.874  0.00  0.00    +0.000 A 
ATOM      3  C   UNL     1      -1.943   9.703  16.943  0.00  0.00    +0.000 A 
ATOM      4  C   UNL     1      -1.008  10.220  17.843  0.00  0.00    +0.000 A 
ATOM      5  C   UNL     1      -1.324  11.303  18.696  0.00  0.00    +0.000 A 
ATOM      6  C   UNL     1      -2.627  11.822  18.616  0.00  0.00    +0.000 A 
ATOM      7  N   UNL     1      -0.335  11.864  19.551  0.00  0.00    +0.000 N 
ATOM      8  C   UNL     1      -0.552  12.723  20.593  0.00  0.00    +0.000 A 
ATOM      9  N   UNL     1      -1.643  12.742  21.347  0.00  0.00    +0.000 NA
ATOM     10  C   UNL     1      -1.532  13.685  22.342  0.00  0.00    +0.000 A 
ATOM     11  C   UNL     1      -0.376  14.426  22.330  0.00  0.00    +0.000 A 
ATOM     12  S   UNL     1       0.626  13.929  21.067  0.00  0.00    +0.000 S 
ATOM     13  C   UNL     1      -0.068  15.479  23.261  0.00  0.00    +0.000 C 
ATOM     14  O   UNL     1       0.985  16.110  23.317  0.00  0.00    +0.000 OA
ATOM     15  N   UNL     1      -1.088  15.759  24.155  0.00  0.00    +0.000 N 
ATOM     16  C   UNL     1      -2.496  15.361  23.923  0.00  0.00    +0.000 C 
ATOM     17  C   UNL     1      -3.263  15.452  25.249  0.00  0.00    +0.000 C 
ATOM     18  C   UNL     1      -3.126  16.344  22.918  0.00  0.00    +0.000 C 
ATOM     19  C   UNL     1      -2.584  13.900  23.376  0.00  0.00    +0.000 C 
ATOM     20  C   UNL     1       1.018  11.504  19.127  0.00  0.00    +0.000 C 
ATOM     21  C   UNL     1       1.080  10.003  18.873  0.00  0.00    +0.000 C 
ATOM     22  O   UNL     1       0.226   9.611  17.799  0.00  0.00    +0.000 OA
ATOM     23  H   UNL     1      -0.893  16.572  24.729  0.00  0.00    +0.000 HD
ENDROOT
BRANCH   1  24
ATOM     24  C   UNL     1      -4.983  11.870  17.684  0.00  0.00    +0.000 C 
BRANCH  24  26
ATOM     25  C   UNL     1      -6.264  12.896  19.473  0.00  0.00    +0.000 C 
ATOM     26  N   UNL     1      -5.717  11.644  18.943  0.00  0.00    +0.000 NA
ATOM     27  C   UNL     1      -6.795  10.678  18.732  0.00  0.00    +0.000 C 
ENDBRANCH  24  26
ENDBRANCH   1  24
TORSDOF 2
ENDMDL
