MODEL 1
REMARK VINA RESULT:      -8.6      0.000      0.000
REMARK  Name = 
REMARK  6 active torsions:
REMARK  status: ('A' for Active; 'I' for Inactive)
REMARK    1  A    between atoms: C_2  and  C_4
REMARK    2  A    between atoms: C_9  and  C_10
REMARK    3  A    between atoms: C_10  and  O_11
REMARK    4  A    between atoms: C_10  and  C_12
REMARK    5  A    between atoms: C_10  and  C_16
REMARK    6  A    between atoms: C_22  and  C_23
REMARK                            x       y       z     vdW  Elec       q    Type
REMARK                         _______ _______ _______ _____ _____    ______ ____
ROOT
ATOM      1  C   UNL     1       1.270  10.712  18.702  0.00  0.00    +0.000 A 
ATOM      2  N   UNL     1       2.016  10.076  17.730  0.00  0.00    +0.000 N 
ATOM      3  C   UNL     1       2.297   8.781  18.072  0.00  0.00    +0.000 A 
ATOM      4  C   UNL     1       2.990   7.798  17.359  0.00  0.00    +0.000 A 
ATOM      5  C   UNL     1       3.092   6.528  17.938  0.00  0.00    +0.000 A 
ATOM      6  C   UNL     1       2.560   6.244  19.208  0.00  0.00    +0.000 A 
ATOM      7  C   UNL     1       1.904   7.283  19.906  0.00  0.00    +0.000 A 
ATOM      8  C   UNL     1       1.740   8.563  19.321  0.00  0.00    +0.000 A 
ATOM      9  C   UNL     1       1.081   9.779  19.728  0.00  0.00    +0.000 A 
ATOM     10  H   UNL     1       2.254  10.493  16.843  0.00  0.00    +0.000 HD
ENDROOT
BRANCH   9  11
ATOM     11  C   UNL     1       0.324  10.013  20.968  0.00  0.00    +0.000 A 
ATOM     12  C   UNL     1      -0.628  11.033  21.074  0.00  0.00    +0.000 A 
ATOM     13  C   UNL     1      -1.325  11.246  22.266  0.00  0.00    +0.000 A 
ATOM     14  C   UNL     1      -1.041  10.474  23.394  0.00  0.00    +0.000 A 
ATOM     15  C   UNL     1      -0.080   9.475  23.316  0.00  0.00    +0.000 A 
ATOM     16  C   UNL     1       0.579   9.230  22.107  0.00  0.00    +0.000 A 
ENDBRANCH   9  11
BRANCH   1  18
ATOM     17  N   UNL     1      -0.409  12.161  17.847  0.00  0.00    +0.000 N 
ATOM     18  C   UNL     1       0.777  12.060  18.525  0.00  0.00    +0.000 C 
ATOM     19  O   UNL     1       1.322  13.086  18.914  0.00  0.00    +0.000 OA
ATOM     20  H   UNL     1      -0.675  13.109  17.605  0.00  0.00    +0.000 HD
ATOM     21  H   UNL     1      -0.750  11.421  17.251  0.00  0.00    +0.000 HD
ENDBRANCH   1  18
BRANCH   6  22
ATOM     22  C   UNL     1       2.660   4.840  19.839  0.00  0.00    +0.000 C 
BRANCH  22  23
ATOM     23  C   UNL     1       1.452   3.942  19.456  0.00  0.00    +0.000 C 
ATOM     24  F   UNL     1       1.028   4.161  18.185  0.00  0.00    +0.000 F 
ATOM     25  F   UNL     1       1.617   2.615  19.574  0.00  0.00    +0.000 F 
ATOM     26  F   UNL     1       0.384   4.272  20.240  0.00  0.00    +0.000 F 
ENDBRANCH  22  23
BRANCH  22  27
ATOM     27  C   UNL     1       3.996   4.131  19.466  0.00  0.00    +0.000 C 
ATOM     28  F   UNL     1       5.071   4.955  19.587  0.00  0.00    +0.000 F 
ATOM     29  F   UNL     1       4.250   3.081  20.290  0.00  0.00    +0.000 F 
ATOM     30  F   UNL     1       4.060   3.640  18.212  0.00  0.00    +0.000 F 
ENDBRANCH  22  27
BRANCH  22  31
ATOM     31  O   UNL     1       2.638   5.059  21.301  0.00  0.00    +0.000 OA
ATOM     32  H   UNL     1       3.079   4.292  21.713  0.00  0.00    +0.000 HD
ENDBRANCH  22  31
ENDBRANCH   6  22
TORSDOF 6
ENDMDL
MODEL 2
REMARK VINA RESULT:      -8.5      0.081      1.345
REMARK  Name = 
REMARK  6 active torsions:
REMARK  status: ('A' for Active; 'I' for Inactive)
REMARK    1  A    between atoms: C_2  and  C_4
REMARK    2  A    between atoms: C_9  and  C_10
REMARK    3  A    between atoms: C_10  and  O_11
REMARK    4  A    between atoms: C_10  and  C_12
REMARK    5  A    between atoms: C_10  and  C_16
REMARK    6  A    between atoms: C_22  and  C_23
REMARK                            x       y       z     vdW  Elec       q    Type
REMARK                         _______ _______ _______ _____ _____    ______ ____
ROOT
ATOM      1  C   UNL     1       1.253  10.741  18.720  0.00  0.00    +0.000 A 
ATOM      2  N   UNL     1       1.968  10.099  17.728  0.00  0.00    +0.000 N 
ATOM      3  C   UNL     1       2.256   8.805  18.068  0.00  0.00    +0.000 A 
ATOM      4  C   UNL     1       2.924   7.817  17.339  0.00  0.00    +0.000 A 
ATOM      5  C   UNL     1       3.041   6.549  17.920  0.00  0.00    +0.000 A 
ATOM      6  C   UNL     1       2.547   6.272  19.207  0.00  0.00    +0.000 A 
ATOM      7  C   UNL     1       1.915   7.315  19.919  0.00  0.00    +0.000 A 
ATOM      8  C   UNL     1       1.736   8.594  19.334  0.00  0.00    +0.000 A 
ATOM      9  C   UNL     1       1.093   9.813  19.756  0.00  0.00    +0.000 A 
ATOM     10  H   UNL     1       2.179  10.512  16.833  0.00  0.00    +0.000 HD
ENDROOT
BRANCH   9  11
ATOM     11  C   UNL     1       0.374  10.054  21.016  0.00  0.00    +0.000 A 
ATOM     12  C   UNL     1       0.619   9.296  22.167  0.00  0.00    +0.000 A 
ATOM     13  C   UNL     1      -0.087   9.534  23.349  0.00  0.00    +0.000 A 
ATOM     14  C   UNL     1      -1.092  10.502  23.385  0.00  0.00    +0.000 A 
ATOM     15  C   UNL     1      -1.369  11.245  22.245  0.00  0.00    +0.000 A 
ATOM     16  C   UNL     1      -0.625  11.041  21.079  0.00  0.00    +0.000 A 
ENDBRANCH   9  11
BRANCH   1  18
ATOM     17  N   UNL     1      -0.408  12.196  17.841  0.00  0.00    +0.000 N 
ATOM     18  C   UNL     1       0.758  12.089  18.552  0.00  0.00    +0.000 C 
ATOM     19  O   UNL     1       1.285  13.111  18.975  0.00  0.00    +0.000 OA
ATOM     20  H   UNL     1      -0.673  13.147  17.607  0.00  0.00    +0.000 HD
ATOM     21  H   UNL     1      -0.727  11.465  17.222  0.00  0.00    +0.000 HD
ENDBRANCH   1  18
BRANCH   6  22
ATOM     22  C   UNL     1       2.663   4.871  19.841  0.00  0.00    +0.000 C 
BRANCH  22  23
ATOM     23  C   UNL     1       1.461   3.961  19.466  0.00  0.00    +0.000 C 
ATOM     24  F   UNL     1       0.363   4.219  20.221  0.00  0.00    +0.000 F 
ATOM     25  F   UNL     1       1.053   3.985  18.188  0.00  0.00    +0.000 F 
ATOM     26  F   UNL     1       1.779   2.663  19.748  0.00  0.00    +0.000 F 
ENDBRANCH  22  23
BRANCH  22  27
ATOM     27  C   UNL     1       4.003   4.173  19.463  0.00  0.00    +0.000 C 
ATOM     28  F   UNL     1       4.009   3.722  18.180  0.00  0.00    +0.000 F 
ATOM     29  F   UNL     1       5.053   5.031  19.550  0.00  0.00    +0.000 F 
ATOM     30  F   UNL     1       4.335   3.107  20.220  0.00  0.00    +0.000 F 
ENDBRANCH  22  27
BRANCH  22  31
ATOM     31  O   UNL     1       2.646   5.093  21.302  0.00  0.00    +0.000 OA
ATOM     32  H   UNL     1       2.060   5.856  21.470  0.00  0.00    +0.000 HD
ENDBRANCH  22  31
ENDBRANCH   6  22
TORSDOF 6
ENDMDL
MODEL 3
REMARK VINA RESULT:      -8.4      5.501      8.603
REMARK  Name = 
REMARK  6 active torsions:
REMARK  status: ('A' for Active; 'I' for Inactive)
REMARK    1  A    between atoms: C_2  and  C_4
REMARK    2  A    between atoms: C_9  and  C_10
REMARK    3  A    between atoms: C_10  and  O_11
REMARK    4  A    between atoms: C_10  and  C_12
REMARK    5  A    between atoms: C_10  and  C_16
REMARK    6  A    between atoms: C_22  and  C_23
REMARK                            x       y       z     vdW  Elec       q    Type
REMARK                         _______ _______ _______ _____ _____    ______ ____
ROOT
ATOM      1  C   UNL     1       7.323   5.285  14.120  0.00  0.00    +0.000 A 
ATOM      2  N   UNL     1       7.433   5.790  15.401  0.00  0.00    +0.000 N 
ATOM      3  C   UNL     1       6.438   5.325  16.217  0.00  0.00    +0.000 A 
ATOM      4  C   UNL     1       6.211   5.564  17.575  0.00  0.00    +0.000 A 
ATOM      5  C   UNL     1       5.127   4.915  18.176  0.00  0.00    +0.000 A 
ATOM      6  C   UNL     1       4.261   4.082  17.445  0.00  0.00    +0.000 A 
ATOM      7  C   UNL     1       4.509   3.905  16.066  0.00  0.00    +0.000 A 
ATOM      8  C   UNL     1       5.630   4.508  15.444  0.00  0.00    +0.000 A 
ATOM      9  C   UNL     1       6.184   4.471  14.114  0.00  0.00    +0.000 A 
ATOM     10  H   UNL     1       8.201   6.366  15.712  0.00  0.00    +0.000 HD
ENDROOT
BRANCH   9  11
ATOM     11  C   UNL     1       5.686   3.708  12.959  0.00  0.00    +0.000 A 
ATOM     12  C   UNL     1       4.454   3.992  12.359  0.00  0.00    +0.000 A 
ATOM     13  C   UNL     1       3.994   3.243  11.272  0.00  0.00    +0.000 A 
ATOM     14  C   UNL     1       4.736   2.160  10.799  0.00  0.00    +0.000 A 
ATOM     15  C   UNL     1       5.948   1.846  11.400  0.00  0.00    +0.000 A 
ATOM     16  C   UNL     1       6.431   2.628  12.454  0.00  0.00    +0.000 A 
ENDBRANCH   9  11
BRANCH   1  18
ATOM     17  N   UNL     1       7.807   6.017  11.911  0.00  0.00    +0.000 N 
ATOM     18  C   UNL     1       8.311   5.565  13.102  0.00  0.00    +0.000 C 
ATOM     19  O   UNL     1       9.524   5.426  13.214  0.00  0.00    +0.000 OA
ATOM     20  H   UNL     1       8.488   6.077  11.163  0.00  0.00    +0.000 HD
ATOM     21  H   UNL     1       6.845   5.871  11.647  0.00  0.00    +0.000 HD
ENDBRANCH   1  18
BRANCH   6  22
ATOM     22  C   UNL     1       3.074   3.356  18.111  0.00  0.00    +0.000 C 
BRANCH  22  23
ATOM     23  C   UNL     1       3.540   2.159  18.984  0.00  0.00    +0.000 C 
ATOM     24  F   UNL     1       3.849   1.066  18.240  0.00  0.00    +0.000 F 
ATOM     25  F   UNL     1       4.586   2.369  19.798  0.00  0.00    +0.000 F 
ATOM     26  F   UNL     1       2.505   1.756  19.779  0.00  0.00    +0.000 F 
ENDBRANCH  22  23
BRANCH  22  27
ATOM     27  C   UNL     1       2.199   4.329  18.957  0.00  0.00    +0.000 C 
ATOM     28  F   UNL     1       2.048   5.541  18.360  0.00  0.00    +0.000 F 
ATOM     29  F   UNL     1       0.939   3.848  19.124  0.00  0.00    +0.000 F 
ATOM     30  F   UNL     1       2.661   4.594  20.196  0.00  0.00    +0.000 F 
ENDBRANCH  22  27
BRANCH  22  31
ATOM     31  O   UNL     1       2.253   2.834  16.998  0.00  0.00    +0.000 OA
ATOM     32  H   UNL     1       1.448   3.386  16.952  0.00  0.00    +0.000 HD
ENDBRANCH  22  31
ENDBRANCH   6  22
TORSDOF 6
ENDMDL
MODEL 4
REMARK VINA RESULT:      -8.4      5.497      8.649
REMARK  Name = 
REMARK  6 active torsions:
REMARK  status: ('A' for Active; 'I' for Inactive)
REMARK    1  A    between atoms: C_2  and  C_4
REMARK    2  A    between atoms: C_9  and  C_10
REMARK    3  A    between atoms: C_10  and  O_11
REMARK    4  A    between atoms: C_10  and  C_12
REMARK    5  A    between atoms: C_10  and  C_16
REMARK    6  A    between atoms: C_22  and  C_23
REMARK                            x       y       z     vdW  Elec       q    Type
REMARK                         _______ _______ _______ _____ _____    ______ ____
ROOT
ATOM      1  C   UNL     1       7.199   5.229  14.069  0.00  0.00    +0.000 A 
ATOM      2  N   UNL     1       7.328   5.761  15.338  0.00  0.00    +0.000 N 
ATOM      3  C   UNL     1       6.354   5.300  16.182  0.00  0.00    +0.000 A 
ATOM      4  C   UNL     1       6.151   5.565  17.539  0.00  0.00    +0.000 A 
ATOM      5  C   UNL     1       5.087   4.913  18.174  0.00  0.00    +0.000 A 
ATOM      6  C   UNL     1       4.219   4.053  17.478  0.00  0.00    +0.000 A 
ATOM      7  C   UNL     1       4.443   3.851  16.098  0.00  0.00    +0.000 A 
ATOM      8  C   UNL     1       5.544   4.456  15.442  0.00  0.00    +0.000 A 
ATOM      9  C   UNL     1       6.073   4.399  14.102  0.00  0.00    +0.000 A 
ATOM     10  H   UNL     1       8.093   6.354  15.622  0.00  0.00    +0.000 HD
ENDROOT
BRANCH   9  11
ATOM     11  C   UNL     1       5.563   3.605  12.974  0.00  0.00    +0.000 A 
ATOM     12  C   UNL     1       6.261   2.503  12.466  0.00  0.00    +0.000 A 
ATOM     13  C   UNL     1       5.764   1.773  11.383  0.00  0.00    +0.000 A 
ATOM     14  C   UNL     1       4.583   2.167  10.752  0.00  0.00    +0.000 A 
ATOM     15  C   UNL     1       3.890   3.274  11.225  0.00  0.00    +0.000 A 
ATOM     16  C   UNL     1       4.363   3.971  12.341  0.00  0.00    +0.000 A 
ENDBRANCH   9  11
BRANCH   1  18
ATOM     17  N   UNL     1       9.350   6.035  13.458  0.00  0.00    +0.000 N 
ATOM     18  C   UNL     1       8.164   5.501  13.027  0.00  0.00    +0.000 C 
ATOM     19  O   UNL     1       8.008   5.304  11.828  0.00  0.00    +0.000 OA
ATOM     20  H   UNL     1       9.963   6.352  12.715  0.00  0.00    +0.000 HD
ATOM     21  H   UNL     1       9.437   6.494  14.353  0.00  0.00    +0.000 HD
ENDBRANCH   1  18
BRANCH   6  22
ATOM     22  C   UNL     1       3.055   3.325  18.181  0.00  0.00    +0.000 C 
BRANCH  22  23
ATOM     23  C   UNL     1       3.550   2.122  19.030  0.00  0.00    +0.000 C 
ATOM     24  F   UNL     1       3.871   1.047  18.265  0.00  0.00    +0.000 F 
ATOM     25  F   UNL     1       4.601   2.336  19.837  0.00  0.00    +0.000 F 
ATOM     26  F   UNL     1       2.530   1.688  19.827  0.00  0.00    +0.000 F 
ENDBRANCH  22  23
BRANCH  22  27
ATOM     27  C   UNL     1       2.213   4.294  19.063  0.00  0.00    +0.000 C 
ATOM     28  F   UNL     1       0.961   3.822  19.301  0.00  0.00    +0.000 F 
ATOM     29  F   UNL     1       2.774   4.468  20.288  0.00  0.00    +0.000 F 
ATOM     30  F   UNL     1       2.040   5.533  18.558  0.00  0.00    +0.000 F 
ENDBRANCH  22  27
BRANCH  22  31
ATOM     31  O   UNL     1       2.194   2.811  17.095  0.00  0.00    +0.000 OA
ATOM     32  H   UNL     1       1.347   3.293  17.148  0.00  0.00    +0.000 HD
ENDBRANCH  22  31
ENDBRANCH   6  22
TORSDOF 6
ENDMDL
MODEL 5
REMARK VINA RESULT:      -8.3      4.190      7.524
REMARK  Name = 
REMARK  6 active torsions:
REMARK  status: ('A' for Active; 'I' for Inactive)
REMARK    1  A    between atoms: C_2  and  C_4
REMARK    2  A    between atoms: C_9  and  C_10
REMARK    3  A    between atoms: C_10  and  O_11
REMARK    4  A    between atoms: C_10  and  C_12
REMARK    5  A    between atoms: C_10  and  C_16
REMARK    6  A    between atoms: C_22  and  C_23
REMARK                            x       y       z     vdW  Elec       q    Type
REMARK                         _______ _______ _______ _____ _____    ______ ____
ROOT
ATOM      1  C   UNL     1       3.261   4.879  19.879  0.00  0.00    +0.000 A 
ATOM      2  N   UNL     1       2.467   5.408  20.878  0.00  0.00    +0.000 N 
ATOM      3  C   UNL     1       1.977   6.640  20.537  0.00  0.00    +0.000 A 
ATOM      4  C   UNL     1       1.118   7.487  21.244  0.00  0.00    +0.000 A 
ATOM      5  C   UNL     1       0.738   8.685  20.629  0.00  0.00    +0.000 A 
ATOM      6  C   UNL     1       1.226   9.059  19.364  0.00  0.00    +0.000 A 
ATOM      7  C   UNL     1       2.122   8.187  18.708  0.00  0.00    +0.000 A 
ATOM      8  C   UNL     1       2.482   6.944  19.284  0.00  0.00    +0.000 A 
ATOM      9  C   UNL     1       3.294   5.833  18.855  0.00  0.00    +0.000 A 
ATOM     10  H   UNL     1       2.218   4.910  21.719  0.00  0.00    +0.000 HD
ENDROOT
BRANCH   9  11
ATOM     11  C   UNL     1       4.008   5.689  17.577  0.00  0.00    +0.000 A 
ATOM     12  C   UNL     1       4.104   4.460  16.914  0.00  0.00    +0.000 A 
ATOM     13  C   UNL     1       4.800   4.346  15.708  0.00  0.00    +0.000 A 
ATOM     14  C   UNL     1       5.462   5.450  15.169  0.00  0.00    +0.000 A 
ATOM     15  C   UNL     1       5.401   6.672  15.827  0.00  0.00    +0.000 A 
ATOM     16  C   UNL     1       4.660   6.797  17.006  0.00  0.00    +0.000 A 
ENDBRANCH   9  11
BRANCH   1  18
ATOM     17  N   UNL     1       2.911   2.552  20.204  0.00  0.00    +0.000 N 
ATOM     18  C   UNL     1       3.821   3.549  19.974  0.00  0.00    +0.000 C 
ATOM     19  O   UNL     1       5.006   3.255  19.875  0.00  0.00    +0.000 OA
ATOM     20  H   UNL     1       3.322   1.647  20.409  0.00  0.00    +0.000 HD
ATOM     21  H   UNL     1       1.997   2.738  20.588  0.00  0.00    +0.000 HD
ENDBRANCH   1  18
BRANCH   6  22
ATOM     22  C   UNL     1       0.795  10.374  18.681  0.00  0.00    +0.000 C 
BRANCH  22  23
ATOM     23  C   UNL     1      -0.658  10.298  18.137  0.00  0.00    +0.000 C 
ATOM     24  F   UNL     1      -0.760   9.496  17.046  0.00  0.00    +0.000 F 
ATOM     25  F   UNL     1      -1.609   9.893  18.993  0.00  0.00    +0.000 F 
ATOM     26  F   UNL     1      -1.034  11.534  17.695  0.00  0.00    +0.000 F 
ENDBRANCH  22  23
BRANCH  22  27
ATOM     27  C   UNL     1       0.950  11.599  19.631  0.00  0.00    +0.000 C 
ATOM     28  F   UNL     1       1.162  12.757  18.952  0.00  0.00    +0.000 F 
ATOM     29  F   UNL     1      -0.176  11.807  20.362  0.00  0.00    +0.000 F 
ATOM     30  F   UNL     1       1.958  11.515  20.523  0.00  0.00    +0.000 F 
ENDBRANCH  22  27
BRANCH  22  31
ATOM     31  O   UNL     1       1.717  10.547  17.538  0.00  0.00    +0.000 OA
ATOM     32  H   UNL     1       1.625   9.757  16.972  0.00  0.00    +0.000 HD
ENDBRANCH  22  31
ENDBRANCH   6  22
TORSDOF 6
ENDMDL
MODEL 6
REMARK VINA RESULT:      -8.3      5.536      8.661
REMARK  Name = 
REMARK  6 active torsions:
REMARK  status: ('A' for Active; 'I' for Inactive)
REMARK    1  A    between atoms: C_2  and  C_4
REMARK    2  A    between atoms: C_9  and  C_10
REMARK    3  A    between atoms: C_10  and  O_11
REMARK    4  A    between atoms: C_10  and  C_12
REMARK    5  A    between atoms: C_10  and  C_16
REMARK    6  A    between atoms: C_22  and  C_23
REMARK                            x       y       z     vdW  Elec       q    Type
REMARK                         _______ _______ _______ _____ _____    ______ ____
ROOT
ATOM      1  C   UNL     1       7.220   5.227  14.007  0.00  0.00    +0.000 A 
ATOM      2  N   UNL     1       7.359   5.741  15.282  0.00  0.00    +0.000 N 
ATOM      3  C   UNL     1       6.385   5.277  16.124  0.00  0.00    +0.000 A 
ATOM      4  C   UNL     1       6.189   5.524  17.486  0.00  0.00    +0.000 A 
ATOM      5  C   UNL     1       5.122   4.873  18.117  0.00  0.00    +0.000 A 
ATOM      6  C   UNL     1       4.244   4.031  17.412  0.00  0.00    +0.000 A 
ATOM      7  C   UNL     1       4.460   3.846  16.029  0.00  0.00    +0.000 A 
ATOM      8  C   UNL     1       5.563   4.450  15.376  0.00  0.00    +0.000 A 
ATOM      9  C   UNL     1       6.086   4.407  14.034  0.00  0.00    +0.000 A 
ATOM     10  H   UNL     1       8.130   6.322  15.571  0.00  0.00    +0.000 HD
ENDROOT
BRANCH   9  11
ATOM     11  C   UNL     1       5.565   3.634  12.896  0.00  0.00    +0.000 A 
ATOM     12  C   UNL     1       4.346   3.947  12.283  0.00  0.00    +0.000 A 
ATOM     13  C   UNL     1       3.863   3.189  11.213  0.00  0.00    +0.000 A 
ATOM     14  C   UNL     1       4.567   2.068  10.771  0.00  0.00    +0.000 A 
ATOM     15  C   UNL     1       5.765   1.725  11.385  0.00  0.00    +0.000 A 
ATOM     16  C   UNL     1       6.272   2.516  12.421  0.00  0.00    +0.000 A 
ENDBRANCH   9  11
BRANCH   1  18
ATOM     17  N   UNL     1       9.346   6.091  13.390  0.00  0.00    +0.000 N 
ATOM     18  C   UNL     1       8.183   5.505  12.965  0.00  0.00    +0.000 C 
ATOM     19  O   UNL     1       8.043   5.271  11.770  0.00  0.00    +0.000 OA
ATOM     20  H   UNL     1       9.953   6.409  12.642  0.00  0.00    +0.000 HD
ATOM     21  H   UNL     1       9.410   6.576  14.272  0.00  0.00    +0.000 HD
ENDBRANCH   1  18
BRANCH   6  22
ATOM     22  C   UNL     1       3.077   3.303  18.111  0.00  0.00    +0.000 C 
BRANCH  22  23
ATOM     23  C   UNL     1       3.576   2.189  19.070  0.00  0.00    +0.000 C 
ATOM     24  F   UNL     1       4.766   2.499  19.646  0.00  0.00    +0.000 F 
ATOM     25  F   UNL     1       2.756   1.833  20.071  0.00  0.00    +0.000 F 
ATOM     26  F   UNL     1       3.824   1.057  18.349  0.00  0.00    +0.000 F 
ENDBRANCH  22  23
BRANCH  22  27
ATOM     27  C   UNL     1       2.149   4.295  18.875  0.00  0.00    +0.000 C 
ATOM     28  F   UNL     1       2.685   4.698  20.057  0.00  0.00    +0.000 F 
ATOM     29  F   UNL     1       1.944   5.434  18.162  0.00  0.00    +0.000 F 
ATOM     30  F   UNL     1       0.923   3.823  19.178  0.00  0.00    +0.000 F 
ENDBRANCH  22  27
BRANCH  22  31
ATOM     31  O   UNL     1       2.295   2.673  17.025  0.00  0.00    +0.000 OA
ATOM     32  H   UNL     1       2.764   1.854  16.772  0.00  0.00    +0.000 HD
ENDBRANCH  22  31
ENDBRANCH   6  22
TORSDOF 6
ENDMDL
MODEL 7
REMARK VINA RESULT:      -8.2      5.608      8.641
REMARK  Name = 
REMARK  6 active torsions:
REMARK  status: ('A' for Active; 'I' for Inactive)
REMARK    1  A    between atoms: C_2  and  C_4
REMARK    2  A    between atoms: C_9  and  C_10
REMARK    3  A    between atoms: C_10  and  O_11
REMARK    4  A    between atoms: C_10  and  C_12
REMARK    5  A    between atoms: C_10  and  C_16
REMARK    6  A    between atoms: C_22  and  C_23
REMARK                            x       y       z     vdW  Elec       q    Type
REMARK                         _______ _______ _______ _____ _____    ______ ____
ROOT
ATOM      1  C   UNL     1       7.192   5.253  14.112  0.00  0.00    +0.000 A 
ATOM      2  N   UNL     1       7.318   5.786  15.380  0.00  0.00    +0.000 N 
ATOM      3  C   UNL     1       6.343   5.327  16.223  0.00  0.00    +0.000 A 
ATOM      4  C   UNL     1       6.137   5.592  17.580  0.00  0.00    +0.000 A 
ATOM      5  C   UNL     1       5.072   4.942  18.213  0.00  0.00    +0.000 A 
ATOM      6  C   UNL     1       4.204   4.083  17.516  0.00  0.00    +0.000 A 
ATOM      7  C   UNL     1       4.430   3.879  16.137  0.00  0.00    +0.000 A 
ATOM      8  C   UNL     1       5.533   4.483  15.482  0.00  0.00    +0.000 A 
ATOM      9  C   UNL     1       6.064   4.424  14.144  0.00  0.00    +0.000 A 
ATOM     10  H   UNL     1       8.084   6.378  15.665  0.00  0.00    +0.000 HD
ENDROOT
BRANCH   9  11
ATOM     11  C   UNL     1       5.555   3.631  13.015  0.00  0.00    +0.000 A 
ATOM     12  C   UNL     1       6.261   2.538  12.499  0.00  0.00    +0.000 A 
ATOM     13  C   UNL     1       5.764   1.807  11.415  0.00  0.00    +0.000 A 
ATOM     14  C   UNL     1       4.576   2.192  10.793  0.00  0.00    +0.000 A 
ATOM     15  C   UNL     1       3.876   3.291  11.274  0.00  0.00    +0.000 A 
ATOM     16  C   UNL     1       4.348   3.988  12.390  0.00  0.00    +0.000 A 
ENDBRANCH   9  11
BRANCH   1  18
ATOM     17  N   UNL     1       9.357   6.022  13.508  0.00  0.00    +0.000 N 
ATOM     18  C   UNL     1       8.159   5.523  13.072  0.00  0.00    +0.000 C 
ATOM     19  O   UNL     1       7.994   5.353  11.869  0.00  0.00    +0.000 OA
ATOM     20  H   UNL     1       9.975   6.339  12.768  0.00  0.00    +0.000 HD
ATOM     21  H   UNL     1       9.458   6.462  14.410  0.00  0.00    +0.000 HD
ENDBRANCH   1  18
BRANCH   6  22
ATOM     22  C   UNL     1       3.038   3.356  18.218  0.00  0.00    +0.000 C 
BRANCH  22  23
ATOM     23  C   UNL     1       3.453   2.796  19.606  0.00  0.00    +0.000 C 
ATOM     24  F   UNL     1       4.692   2.240  19.589  0.00  0.00    +0.000 F 
ATOM     25  F   UNL     1       3.439   3.653  20.639  0.00  0.00    +0.000 F 
ATOM     26  F   UNL     1       2.617   1.770  19.941  0.00  0.00    +0.000 F 
ENDBRANCH  22  23
BRANCH  22  27
ATOM     27  C   UNL     1       1.786   4.272  18.361  0.00  0.00    +0.000 C 
ATOM     28  F   UNL     1       2.105   5.522  18.790  0.00  0.00    +0.000 F 
ATOM     29  F   UNL     1       1.159   4.447  17.168  0.00  0.00    +0.000 F 
ATOM     30  F   UNL     1       0.840   3.830  19.214  0.00  0.00    +0.000 F 
ENDBRANCH  22  27
BRANCH  22  31
ATOM     31  O   UNL     1       2.691   2.221  17.337  0.00  0.00    +0.000 OA
ATOM     32  H   UNL     1       3.141   2.371  16.484  0.00  0.00    +0.000 HD
ENDBRANCH  22  31
ENDBRANCH   6  22
TORSDOF 6
ENDMDL
MODEL 8
REMARK VINA RESULT:      -8.2      4.178      7.533
REMARK  Name = 
REMARK  6 active torsions:
REMARK  status: ('A' for Active; 'I' for Inactive)
REMARK    1  A    between atoms: C_2  and  C_4
REMARK    2  A    between atoms: C_9  and  C_10
REMARK    3  A    between atoms: C_10  and  O_11
REMARK    4  A    between atoms: C_10  and  C_12
REMARK    5  A    between atoms: C_10  and  C_16
REMARK    6  A    between atoms: C_22  and  C_23
REMARK                            x       y       z     vdW  Elec       q    Type
REMARK                         _______ _______ _______ _____ _____    ______ ____
ROOT
ATOM      1  C   UNL     1       3.224   4.924  19.928  0.00  0.00    +0.000 A 
ATOM      2  N   UNL     1       2.411   5.455  20.911  0.00  0.00    +0.000 N 
ATOM      3  C   UNL     1       1.926   6.684  20.557  0.00  0.00    +0.000 A 
ATOM      4  C   UNL     1       1.053   7.533  21.246  0.00  0.00    +0.000 A 
ATOM      5  C   UNL     1       0.683   8.729  20.620  0.00  0.00    +0.000 A 
ATOM      6  C   UNL     1       1.194   9.100  19.364  0.00  0.00    +0.000 A 
ATOM      7  C   UNL     1       2.103   8.227  18.727  0.00  0.00    +0.000 A 
ATOM      8  C   UNL     1       2.454   6.985  19.313  0.00  0.00    +0.000 A 
ATOM      9  C   UNL     1       3.275   5.874  18.902  0.00  0.00    +0.000 A 
ATOM     10  H   UNL     1       2.147   4.959  21.749  0.00  0.00    +0.000 HD
ENDROOT
BRANCH   9  11
ATOM     11  C   UNL     1       4.013   5.728  17.638  0.00  0.00    +0.000 A 
ATOM     12  C   UNL     1       3.996   4.538  16.903  0.00  0.00    +0.000 A 
ATOM     13  C   UNL     1       4.717   4.417  15.712  0.00  0.00    +0.000 A 
ATOM     14  C   UNL     1       5.514   5.472  15.262  0.00  0.00    +0.000 A 
ATOM     15  C   UNL     1       5.565   6.652  15.993  0.00  0.00    +0.000 A 
ATOM     16  C   UNL     1       4.801   6.788  17.157  0.00  0.00    +0.000 A 
ENDBRANCH   9  11
BRANCH   1  18
ATOM     17  N   UNL     1       2.900   2.623  20.426  0.00  0.00    +0.000 N 
ATOM     18  C   UNL     1       3.784   3.595  20.038  0.00  0.00    +0.000 C 
ATOM     19  O   UNL     1       4.949   3.281  19.825  0.00  0.00    +0.000 OA
ATOM     20  H   UNL     1       3.326   1.727  20.635  0.00  0.00    +0.000 HD
ATOM     21  H   UNL     1       2.035   2.842  20.897  0.00  0.00    +0.000 HD
ENDBRANCH   1  18
BRANCH   6  22
ATOM     22  C   UNL     1       0.774  10.412  18.669  0.00  0.00    +0.000 C 
BRANCH  22  23
ATOM     23  C   UNL     1      -0.667  10.332  18.097  0.00  0.00    +0.000 C 
ATOM     24  F   UNL     1      -1.558   9.858  19.005  0.00  0.00    +0.000 F 
ATOM     25  F   UNL     1      -1.194  11.467  17.610  0.00  0.00    +0.000 F 
ATOM     26  F   UNL     1      -0.694   9.424  17.077  0.00  0.00    +0.000 F 
ENDBRANCH  22  23
BRANCH  22  27
ATOM     27  C   UNL     1       0.909  11.639  19.618  0.00  0.00    +0.000 C 
ATOM     28  F   UNL     1      -0.194  11.818  20.393  0.00  0.00    +0.000 F 
ATOM     29  F   UNL     1       1.942  11.486  20.487  0.00  0.00    +0.000 F 
ATOM     30  F   UNL     1       1.114  12.824  19.007  0.00  0.00    +0.000 F 
ENDBRANCH  22  27
BRANCH  22  31
ATOM     31  O   UNL     1       1.718  10.584  17.543  0.00  0.00    +0.000 OA
ATOM     32  H   UNL     1       1.649  11.513  17.251  0.00  0.00    +0.000 HD
ENDBRANCH  22  31
ENDBRANCH   6  22
TORSDOF 6
ENDMDL
MODEL 9
REMARK VINA RESULT:      -8.2      4.175      7.526
REMARK  Name = 
REMARK  6 active torsions:
REMARK  status: ('A' for Active; 'I' for Inactive)
REMARK    1  A    between atoms: C_2  and  C_4
REMARK    2  A    between atoms: C_9  and  C_10
REMARK    3  A    between atoms: C_10  and  O_11
REMARK    4  A    between atoms: C_10  and  C_12
REMARK    5  A    between atoms: C_10  and  C_16
REMARK    6  A    between atoms: C_22  and  C_23
REMARK                            x       y       z     vdW  Elec       q    Type
REMARK                         _______ _______ _______ _____ _____    ______ ____
ROOT
ATOM      1  C   UNL     1       3.250   4.819  19.841  0.00  0.00    +0.000 A 
ATOM      2  N   UNL     1       2.429   5.344  20.821  0.00  0.00    +0.000 N 
ATOM      3  C   UNL     1       1.971   6.589  20.485  0.00  0.00    +0.000 A 
ATOM      4  C   UNL     1       1.102   7.437  21.177  0.00  0.00    +0.000 A 
ATOM      5  C   UNL     1       0.763   8.653  20.571  0.00  0.00    +0.000 A 
ATOM      6  C   UNL     1       1.302   9.041  19.331  0.00  0.00    +0.000 A 
ATOM      7  C   UNL     1       2.207   8.166  18.692  0.00  0.00    +0.000 A 
ATOM      8  C   UNL     1       2.527   6.906  19.257  0.00  0.00    +0.000 A 
ATOM      9  C   UNL     1       3.335   5.790  18.837  0.00  0.00    +0.000 A 
ATOM     10  H   UNL     1       2.142   4.835  21.643  0.00  0.00    +0.000 HD
ENDROOT
BRANCH   9  11
ATOM     11  C   UNL     1       4.093   5.657  17.583  0.00  0.00    +0.000 A 
ATOM     12  C   UNL     1       4.720   6.751  16.976  0.00  0.00    +0.000 A 
ATOM     13  C   UNL     1       5.423   6.604  15.777  0.00  0.00    +0.000 A 
ATOM     14  C   UNL     1       5.463   5.367  15.133  0.00  0.00    +0.000 A 
ATOM     15  C   UNL     1       4.823   4.275  15.705  0.00  0.00    +0.000 A 
ATOM     16  C   UNL     1       4.165   4.413  16.932  0.00  0.00    +0.000 A 
ENDBRANCH   9  11
BRANCH   1  18
ATOM     17  N   UNL     1       2.849   2.489  20.077  0.00  0.00    +0.000 N 
ATOM     18  C   UNL     1       3.785   3.479  19.932  0.00  0.00    +0.000 C 
ATOM     19  O   UNL     1       4.970   3.169  19.898  0.00  0.00    +0.000 OA
ATOM     20  H   UNL     1       3.234   1.573  20.279  0.00  0.00    +0.000 HD
ATOM     21  H   UNL     1       1.916   2.678  20.409  0.00  0.00    +0.000 HD
ENDBRANCH   1  18
BRANCH   6  22
ATOM     22  C   UNL     1       0.917  10.374  18.657  0.00  0.00    +0.000 C 
BRANCH  22  23
ATOM     23  C   UNL     1      -0.564  10.385  18.191  0.00  0.00    +0.000 C 
ATOM     24  F   UNL     1      -1.424  10.078  19.196  0.00  0.00    +0.000 F 
ATOM     25  F   UNL     1      -1.021  11.519  17.637  0.00  0.00    +0.000 F 
ATOM     26  F   UNL     1      -0.747   9.399  17.264  0.00  0.00    +0.000 F 
ENDBRANCH  22  23
BRANCH  22  27
ATOM     27  C   UNL     1       1.197  11.594  19.585  0.00  0.00    +0.000 C 
ATOM     28  F   UNL     1       1.526  11.219  20.849  0.00  0.00    +0.000 F 
ATOM     29  F   UNL     1       2.251  12.327  19.139  0.00  0.00    +0.000 F 
ATOM     30  F   UNL     1       0.175  12.464  19.722  0.00  0.00    +0.000 F 
ENDBRANCH  22  27
BRANCH  22  31
ATOM     31  O   UNL     1       1.786  10.482  17.466  0.00  0.00    +0.000 OA
ATOM     32  H   UNL     1       2.566  11.008  17.726  0.00  0.00    +0.000 HD
ENDBRANCH  22  31
ENDBRANCH   6  22
TORSDOF 6
ENDMDL
