MODEL 1
REMARK VINA RESULT:      -8.3      0.000      0.000
REMARK  Name = 
REMARK  6 active torsions:
REMARK  status: ('A' for Active; 'I' for Inactive)
REMARK    1  A    between atoms: C_1  and  C_2
REMARK    2  A    between atoms: C_2  and  C_3
REMARK    3  A    between atoms: C_5  and  C_6
REMARK    4  A    between atoms: C_8  and  N_9
REMARK    5  A    between atoms: C_10  and  C_12
REMARK    6  A    between atoms: C_18  and  C_19
REMARK                            x       y       z     vdW  Elec       q    Type
REMARK                         _______ _______ _______ _____ _____    ______ ____
ROOT
ATOM      1  C   UNL     1       4.517   4.542  18.773  0.00  0.00    +0.000 A 
ATOM      2  C   UNL     1       3.861   5.702  19.115  0.00  0.00    +0.000 A 
ATOM      3  C   UNL     1       2.822   5.500  20.074  0.00  0.00    +0.000 A 
ATOM      4  C   UNL     1       2.757   4.166  20.457  0.00  0.00    +0.000 A 
ATOM      5  C   UNL     1       1.899   3.469  21.460  0.00  0.00    +0.000 C 
ATOM      6  S   UNL     1       3.874   3.196  19.578  0.00  0.00    +0.000 S 
ENDROOT
BRANCH   1   9
ATOM      7  C   UNL     1       6.668   4.485  15.982  0.00  0.00    +0.000 A 
ATOM      8  N   UNL     1       5.442   4.422  16.442  0.00  0.00    +0.000 NA
ATOM      9  C   UNL     1       5.642   4.481  17.799  0.00  0.00    +0.000 A 
ATOM     10  N   UNL     1       6.931   4.521  18.168  0.00  0.00    +0.000 NA
ATOM     11  O   UNL     1       7.618   4.519  16.958  0.00  0.00    +0.000 OA
BRANCH   7  13
ATOM     12  C   UNL     1       6.198   3.905  13.649  0.00  0.00    +0.000 C 
ATOM     13  C   UNL     1       7.132   4.648  14.591  0.00  0.00    +0.000 C 
ENDBRANCH   7  13
ENDBRANCH   1   9
BRANCH   3  14
ATOM     14  N   UNL     1       1.993   6.491  20.602  0.00  0.00    +0.000 N 
ATOM     15  C   UNL     1       1.774   7.729  20.015  0.00  0.00    +0.000 C 
ATOM     16  O   UNL     1       2.196   8.103  18.927  0.00  0.00    +0.000 OA
ATOM     17  H   UNL     1       1.580   6.295  21.501  0.00  0.00    +0.000 HD
BRANCH  15  18
ATOM     18  C   UNL     1       0.993   8.706  20.825  0.00  0.00    +0.000 A 
ATOM     19  C   UNL     1       0.301   9.714  20.140  0.00  0.00    +0.000 A 
ATOM     20  C   UNL     1      -0.393  10.697  20.843  0.00  0.00    +0.000 A 
ATOM     21  C   UNL     1      -0.409  10.672  22.237  0.00  0.00    +0.000 A 
ATOM     22  C   UNL     1       0.242   9.646  22.925  0.00  0.00    +0.000 A 
ATOM     23  C   UNL     1       0.936   8.656  22.223  0.00  0.00    +0.000 A 
ENDBRANCH  15  18
ENDBRANCH   3  14
TORSDOF 4
ENDMDL
MODEL 2
REMARK VINA RESULT:      -8.2      0.341      1.080
REMARK  Name = 
REMARK  6 active torsions:
REMARK  status: ('A' for Active; 'I' for Inactive)
REMARK    1  A    between atoms: C_1  and  C_2
REMARK    2  A    between atoms: C_2  and  C_3
REMARK    3  A    between atoms: C_5  and  C_6
REMARK    4  A    between atoms: C_8  and  N_9
REMARK    5  A    between atoms: C_10  and  C_12
REMARK    6  A    between atoms: C_18  and  C_19
REMARK                            x       y       z     vdW  Elec       q    Type
REMARK                         _______ _______ _______ _____ _____    ______ ____
ROOT
ATOM      1  C   UNL     1       4.642   4.625  18.484  0.00  0.00    +0.000 A 
ATOM      2  C   UNL     1       4.003   5.791  18.836  0.00  0.00    +0.000 A 
ATOM      3  C   UNL     1       3.020   5.608  19.854  0.00  0.00    +0.000 A 
ATOM      4  C   UNL     1       2.979   4.284  20.270  0.00  0.00    +0.000 A 
ATOM      5  C   UNL     1       2.181   3.608  21.335  0.00  0.00    +0.000 C 
ATOM      6  S   UNL     1       4.049   3.296  19.353  0.00  0.00    +0.000 S 
ENDROOT
BRANCH   1   9
ATOM      7  C   UNL     1       6.636   4.519  15.580  0.00  0.00    +0.000 A 
ATOM      8  N   UNL     1       5.438   4.469  16.107  0.00  0.00    +0.000 NA
ATOM      9  C   UNL     1       5.712   4.544  17.450  0.00  0.00    +0.000 A 
ATOM     10  N   UNL     1       7.019   4.580  17.747  0.00  0.00    +0.000 NA
ATOM     11  O   UNL     1       7.639   4.558  16.501  0.00  0.00    +0.000 OA
BRANCH   7  13
ATOM     12  C   UNL     1       6.157   3.756  13.301  0.00  0.00    +0.000 C 
ATOM     13  C   UNL     1       7.025   4.660  14.163  0.00  0.00    +0.000 C 
ENDBRANCH   7  13
ENDBRANCH   1   9
BRANCH   3  14
ATOM     14  N   UNL     1       2.219   6.610  20.406  0.00  0.00    +0.000 N 
ATOM     15  C   UNL     1       1.858   7.779  19.751  0.00  0.00    +0.000 C 
ATOM     16  O   UNL     1       2.109   8.068  18.587  0.00  0.00    +0.000 OA
ATOM     17  H   UNL     1       1.941   6.481  21.367  0.00  0.00    +0.000 HD
BRANCH  15  18
ATOM     18  C   UNL     1       1.143   8.794  20.575  0.00  0.00    +0.000 A 
ATOM     19  C   UNL     1       1.053   8.564  21.955  0.00  0.00    +0.000 A 
ATOM     20  C   UNL     1       0.339   9.441  22.771  0.00  0.00    +0.000 A 
ATOM     21  C   UNL     1      -0.280  10.558  22.214  0.00  0.00    +0.000 A 
ATOM     22  C   UNL     1      -0.158  10.816  20.847  0.00  0.00    +0.000 A 
ATOM     23  C   UNL     1       0.560   9.942  20.026  0.00  0.00    +0.000 A 
ENDBRANCH  15  18
ENDBRANCH   3  14
TORSDOF 4
ENDMDL
MODEL 3
REMARK VINA RESULT:      -8.0      2.668      3.859
REMARK  Name = 
REMARK  6 active torsions:
REMARK  status: ('A' for Active; 'I' for Inactive)
REMARK    1  A    between atoms: C_1  and  C_2
REMARK    2  A    between atoms: C_2  and  C_3
REMARK    3  A    between atoms: C_5  and  C_6
REMARK    4  A    between atoms: C_8  and  N_9
REMARK    5  A    between atoms: C_10  and  C_12
REMARK    6  A    between atoms: C_18  and  C_19
REMARK                            x       y       z     vdW  Elec       q    Type
REMARK                         _______ _______ _______ _____ _____    ______ ____
ROOT
ATOM      1  C   UNL     1       6.326   4.997  15.519  0.00  0.00    +0.000 A 
ATOM      2  C   UNL     1       5.314   5.865  15.858  0.00  0.00    +0.000 A 
ATOM      3  C   UNL     1       5.307   6.208  17.244  0.00  0.00    +0.000 A 
ATOM      4  C   UNL     1       6.365   5.601  17.908  0.00  0.00    +0.000 A 
ATOM      5  C   UNL     1       6.822   5.691  19.326  0.00  0.00    +0.000 C 
ATOM      6  S   UNL     1       7.261   4.565  16.865  0.00  0.00    +0.000 S 
ENDROOT
BRANCH   1   9
ATOM      7  C   UNL     1       6.314   3.373  12.391  0.00  0.00    +0.000 A 
ATOM      8  N   UNL     1       5.893   3.398  13.632  0.00  0.00    +0.000 NA
ATOM      9  C   UNL     1       6.555   4.489  14.138  0.00  0.00    +0.000 A 
ATOM     10  N   UNL     1       7.392   5.080  13.271  0.00  0.00    +0.000 NA
ATOM     11  O   UNL     1       7.237   4.333  12.106  0.00  0.00    +0.000 OA
BRANCH   7  13
ATOM     12  C   UNL     1       6.802   1.390  11.038  0.00  0.00    +0.000 C 
ATOM     13  C   UNL     1       5.840   2.546  11.264  0.00  0.00    +0.000 C 
ENDBRANCH   7  13
ENDBRANCH   1   9
BRANCH   3  14
ATOM     14  N   UNL     1       4.399   7.064  17.869  0.00  0.00    +0.000 N 
ATOM     15  C   UNL     1       3.100   6.717  18.215  0.00  0.00    +0.000 C 
ATOM     16  O   UNL     1       2.590   5.608  18.106  0.00  0.00    +0.000 OA
ATOM     17  H   UNL     1       4.710   8.012  18.019  0.00  0.00    +0.000 HD
BRANCH  15  18
ATOM     18  C   UNL     1       2.241   7.827  18.717  0.00  0.00    +0.000 A 
ATOM     19  C   UNL     1       1.896   7.819  20.075  0.00  0.00    +0.000 A 
ATOM     20  C   UNL     1       1.040   8.791  20.591  0.00  0.00    +0.000 A 
ATOM     21  C   UNL     1       0.534   9.783  19.754  0.00  0.00    +0.000 A 
ATOM     22  C   UNL     1       0.908   9.823  18.410  0.00  0.00    +0.000 A 
ATOM     23  C   UNL     1       1.769   8.852  17.889  0.00  0.00    +0.000 A 
ENDBRANCH  15  18
ENDBRANCH   3  14
TORSDOF 4
ENDMDL
MODEL 4
REMARK VINA RESULT:      -7.9      2.703      3.831
REMARK  Name = 
REMARK  6 active torsions:
REMARK  status: ('A' for Active; 'I' for Inactive)
REMARK    1  A    between atoms: C_1  and  C_2
REMARK    2  A    between atoms: C_2  and  C_3
REMARK    3  A    between atoms: C_5  and  C_6
REMARK    4  A    between atoms: C_8  and  N_9
REMARK    5  A    between atoms: C_10  and  C_12
REMARK    6  A    between atoms: C_18  and  C_19
REMARK                            x       y       z     vdW  Elec       q    Type
REMARK                         _______ _______ _______ _____ _____    ______ ____
ROOT
ATOM      1  C   UNL     1       6.322   4.929  15.414  0.00  0.00    +0.000 A 
ATOM      2  C   UNL     1       5.296   5.773  15.772  0.00  0.00    +0.000 A 
ATOM      3  C   UNL     1       5.338   6.157  17.147  0.00  0.00    +0.000 A 
ATOM      4  C   UNL     1       6.443   5.605  17.781  0.00  0.00    +0.000 A 
ATOM      5  C   UNL     1       6.958   5.753  19.174  0.00  0.00    +0.000 C 
ATOM      6  S   UNL     1       7.328   4.569  16.729  0.00  0.00    +0.000 S 
ENDROOT
BRANCH   1   9
ATOM      7  C   UNL     1       6.185   3.263  12.311  0.00  0.00    +0.000 A 
ATOM      8  N   UNL     1       5.776   3.332  13.555  0.00  0.00    +0.000 NA
ATOM      9  C   UNL     1       6.508   4.388  14.039  0.00  0.00    +0.000 A 
ATOM     10  N   UNL     1       7.373   4.913  13.158  0.00  0.00    +0.000 NA
ATOM     11  O   UNL     1       7.162   4.160  12.006  0.00  0.00    +0.000 OA
BRANCH   7  13
ATOM     12  C   UNL     1       6.446   1.158  11.086  0.00  0.00    +0.000 C 
ATOM     13  C   UNL     1       5.652   2.450  11.201  0.00  0.00    +0.000 C 
ENDBRANCH   7  13
ENDBRANCH   1   9
BRANCH   3  14
ATOM     14  N   UNL     1       4.429   7.001  17.787  0.00  0.00    +0.000 N 
ATOM     15  C   UNL     1       3.196   6.600  18.284  0.00  0.00    +0.000 C 
ATOM     16  O   UNL     1       2.763   5.454  18.313  0.00  0.00    +0.000 OA
ATOM     17  H   UNL     1       4.680   7.978  17.830  0.00  0.00    +0.000 HD
BRANCH  15  18
ATOM     18  C   UNL     1       2.306   7.689  18.776  0.00  0.00    +0.000 A 
ATOM     19  C   UNL     1       1.915   8.674  17.859  0.00  0.00    +0.000 A 
ATOM     20  C   UNL     1       1.138   9.755  18.273  0.00  0.00    +0.000 A 
ATOM     21  C   UNL     1       0.738   9.852  19.604  0.00  0.00    +0.000 A 
ATOM     22  C   UNL     1       1.088   8.851  20.514  0.00  0.00    +0.000 A 
ATOM     23  C   UNL     1       1.863   7.764  20.102  0.00  0.00    +0.000 A 
ENDBRANCH  15  18
ENDBRANCH   3  14
TORSDOF 4
ENDMDL
MODEL 5
REMARK VINA RESULT:      -7.9      1.479      2.107
REMARK  Name = 
REMARK  6 active torsions:
REMARK  status: ('A' for Active; 'I' for Inactive)
REMARK    1  A    between atoms: C_1  and  C_2
REMARK    2  A    between atoms: C_2  and  C_3
REMARK    3  A    between atoms: C_5  and  C_6
REMARK    4  A    between atoms: C_8  and  N_9
REMARK    5  A    between atoms: C_10  and  C_12
REMARK    6  A    between atoms: C_18  and  C_19
REMARK                            x       y       z     vdW  Elec       q    Type
REMARK                         _______ _______ _______ _____ _____    ______ ____
ROOT
ATOM      1  C   UNL     1       4.881   5.151  17.080  0.00  0.00    +0.000 A 
ATOM      2  C   UNL     1       4.165   6.290  17.367  0.00  0.00    +0.000 A 
ATOM      3  C   UNL     1       3.305   6.145  18.497  0.00  0.00    +0.000 A 
ATOM      4  C   UNL     1       3.436   4.880  19.058  0.00  0.00    +0.000 A 
ATOM      5  C   UNL     1       2.812   4.269  20.268  0.00  0.00    +0.000 C 
ATOM      6  S   UNL     1       4.507   3.888  18.147  0.00  0.00    +0.000 S 
ENDROOT
BRANCH   1   9
ATOM      7  C   UNL     1       6.670   4.499  14.114  0.00  0.00    +0.000 A 
ATOM      8  N   UNL     1       5.652   4.204  14.886  0.00  0.00    +0.000 NA
ATOM      9  C   UNL     1       5.851   5.042  15.955  0.00  0.00    +0.000 A 
ATOM     10  N   UNL     1       6.969   5.780  15.880  0.00  0.00    +0.000 NA
ATOM     11  O   UNL     1       7.519   5.416  14.655  0.00  0.00    +0.000 OA
BRANCH   7  13
ATOM     12  C   UNL     1       5.744   3.307  12.185  0.00  0.00    +0.000 C 
ATOM     13  C   UNL     1       6.939   4.075  12.727  0.00  0.00    +0.000 C 
ENDBRANCH   7  13
ENDBRANCH   1   9
BRANCH   3  14
ATOM     14  N   UNL     1       2.464   7.130  19.016  0.00  0.00    +0.000 N 
ATOM     15  C   UNL     1       2.133   8.308  18.360  0.00  0.00    +0.000 C 
ATOM     16  O   UNL     1       2.451   8.619  17.219  0.00  0.00    +0.000 OA
ATOM     17  H   UNL     1       2.130   6.983  19.957  0.00  0.00    +0.000 HD
BRANCH  15  18
ATOM     18  C   UNL     1       1.361   9.303  19.157  0.00  0.00    +0.000 A 
ATOM     19  C   UNL     1       1.015   8.957  20.471  0.00  0.00    +0.000 A 
ATOM     20  C   UNL     1       0.236   9.815  21.245  0.00  0.00    +0.000 A 
ATOM     21  C   UNL     1      -0.193  11.030  20.714  0.00  0.00    +0.000 A 
ATOM     22  C   UNL     1       0.184  11.401  19.422  0.00  0.00    +0.000 A 
ATOM     23  C   UNL     1       0.968  10.545  18.643  0.00  0.00    +0.000 A 
ENDBRANCH  15  18
ENDBRANCH   3  14
TORSDOF 4
ENDMDL
MODEL 6
REMARK VINA RESULT:      -7.8      1.583      1.921
REMARK  Name = 
REMARK  6 active torsions:
REMARK  status: ('A' for Active; 'I' for Inactive)
REMARK    1  A    between atoms: C_1  and  C_2
REMARK    2  A    between atoms: C_2  and  C_3
REMARK    3  A    between atoms: C_5  and  C_6
REMARK    4  A    between atoms: C_8  and  N_9
REMARK    5  A    between atoms: C_10  and  C_12
REMARK    6  A    between atoms: C_18  and  C_19
REMARK                            x       y       z     vdW  Elec       q    Type
REMARK                         _______ _______ _______ _____ _____    ______ ____
ROOT
ATOM      1  C   UNL     1       4.834   5.156  16.867  0.00  0.00    +0.000 A 
ATOM      2  C   UNL     1       4.191   6.299  17.282  0.00  0.00    +0.000 A 
ATOM      3  C   UNL     1       3.198   6.057  18.279  0.00  0.00    +0.000 A 
ATOM      4  C   UNL     1       3.154   4.709  18.615  0.00  0.00    +0.000 A 
ATOM      5  C   UNL     1       2.346   3.972  19.630  0.00  0.00    +0.000 C 
ATOM      6  S   UNL     1       4.233   3.777  17.650  0.00  0.00    +0.000 S 
ENDROOT
BRANCH   1   9
ATOM      7  C   UNL     1       6.891   4.811  14.027  0.00  0.00    +0.000 A 
ATOM      8  N   UNL     1       5.777   4.490  14.637  0.00  0.00    +0.000 NA
ATOM      9  C   UNL     1       5.913   5.137  15.841  0.00  0.00    +0.000 A 
ATOM     10  N   UNL     1       7.080   5.780  15.995  0.00  0.00    +0.000 NA
ATOM     11  O   UNL     1       7.736   5.560  14.788  0.00  0.00    +0.000 OA
BRANCH   7  13
ATOM     12  C   UNL     1       6.518   3.390  12.067  0.00  0.00    +0.000 C 
ATOM     13  C   UNL     1       7.283   4.581  12.623  0.00  0.00    +0.000 C 
ENDBRANCH   7  13
ENDBRANCH   1   9
BRANCH   3  14
ATOM     14  N   UNL     1       2.392   7.024  18.881  0.00  0.00    +0.000 N 
ATOM     15  C   UNL     1       2.121   8.272  18.339  0.00  0.00    +0.000 C 
ATOM     16  O   UNL     1       2.470   8.677  17.236  0.00  0.00    +0.000 OA
ATOM     17  H   UNL     1       2.037   6.801  19.799  0.00  0.00    +0.000 HD
BRANCH  15  18
ATOM     18  C   UNL     1       1.380   9.219  19.220  0.00  0.00    +0.000 A 
ATOM     19  C   UNL     1       1.037  10.469  18.688  0.00  0.00    +0.000 A 
ATOM     20  C   UNL     1       0.403  11.424  19.481  0.00  0.00    +0.000 A 
ATOM     21  C   UNL     1       0.097  11.129  20.809  0.00  0.00    +0.000 A 
ATOM     22  C   UNL     1       0.397   9.870  21.333  0.00  0.00    +0.000 A 
ATOM     23  C   UNL     1       1.029   8.909  20.539  0.00  0.00    +0.000 A 
ENDBRANCH  15  18
ENDBRANCH   3  14
TORSDOF 4
ENDMDL
MODEL 7
REMARK VINA RESULT:      -7.7      1.075      1.460
REMARK  Name = 
REMARK  6 active torsions:
REMARK  status: ('A' for Active; 'I' for Inactive)
REMARK    1  A    between atoms: C_1  and  C_2
REMARK    2  A    between atoms: C_2  and  C_3
REMARK    3  A    between atoms: C_5  and  C_6
REMARK    4  A    between atoms: C_8  and  N_9
REMARK    5  A    between atoms: C_10  and  C_12
REMARK    6  A    between atoms: C_18  and  C_19
REMARK                            x       y       z     vdW  Elec       q    Type
REMARK                         _______ _______ _______ _____ _____    ______ ____
ROOT
ATOM      1  C   UNL     1       4.155   5.547  18.273  0.00  0.00    +0.000 A 
ATOM      2  C   UNL     1       3.571   6.660  18.832  0.00  0.00    +0.000 A 
ATOM      3  C   UNL     1       2.531   6.344  19.758  0.00  0.00    +0.000 A 
ATOM      4  C   UNL     1       2.392   4.969  19.895  0.00  0.00    +0.000 A 
ATOM      5  C   UNL     1       1.505   4.150  20.772  0.00  0.00    +0.000 C 
ATOM      6  S   UNL     1       3.443   4.114  18.833  0.00  0.00    +0.000 S 
ENDROOT
BRANCH   1   9
ATOM      7  C   UNL     1       6.450   5.124  15.632  0.00  0.00    +0.000 A 
ATOM      8  N   UNL     1       5.455   4.632  16.329  0.00  0.00    +0.000 NA
ATOM      9  C   UNL     1       5.265   5.602  17.282  0.00  0.00    +0.000 A 
ATOM     10  N   UNL     1       6.137   6.620  17.217  0.00  0.00    +0.000 NA
ATOM     11  O   UNL     1       6.933   6.300  16.121  0.00  0.00    +0.000 OA
BRANCH   7  13
ATOM     12  C   UNL     1       5.965   3.857  13.592  0.00  0.00    +0.000 C 
ATOM     13  C   UNL     1       7.017   4.648  14.355  0.00  0.00    +0.000 C 
ENDBRANCH   7  13
ENDBRANCH   1   9
BRANCH   3  14
ATOM     14  N   UNL     1       1.767   7.267  20.474  0.00  0.00    +0.000 N 
ATOM     15  C   UNL     1       1.331   8.486  19.972  0.00  0.00    +0.000 C 
ATOM     16  O   UNL     1       1.474   8.893  18.825  0.00  0.00    +0.000 OA
ATOM     17  H   UNL     1       1.577   7.038  21.438  0.00  0.00    +0.000 HD
BRANCH  15  18
ATOM     18  C   UNL     1       0.676   9.397  20.952  0.00  0.00    +0.000 A 
ATOM     19  C   UNL     1       0.218   8.840  22.154  0.00  0.00    +0.000 A 
ATOM     20  C   UNL     1      -0.463   9.625  23.083  0.00  0.00    +0.000 A 
ATOM     21  C   UNL     1      -0.681  10.976  22.820  0.00  0.00    +0.000 A 
ATOM     22  C   UNL     1      -0.191  11.548  21.644  0.00  0.00    +0.000 A 
ATOM     23  C   UNL     1       0.496  10.765  20.712  0.00  0.00    +0.000 A 
ENDBRANCH  15  18
ENDBRANCH   3  14
TORSDOF 4
ENDMDL
MODEL 8
REMARK VINA RESULT:      -7.5      1.682      8.332
REMARK  Name = 
REMARK  6 active torsions:
REMARK  status: ('A' for Active; 'I' for Inactive)
REMARK    1  A    between atoms: C_1  and  C_2
REMARK    2  A    between atoms: C_2  and  C_3
REMARK    3  A    between atoms: C_5  and  C_6
REMARK    4  A    between atoms: C_8  and  N_9
REMARK    5  A    between atoms: C_10  and  C_12
REMARK    6  A    between atoms: C_18  and  C_19
REMARK                            x       y       z     vdW  Elec       q    Type
REMARK                         _______ _______ _______ _____ _____    ______ ____
ROOT
ATOM      1  C   UNL     1       2.743   6.643  18.978  0.00  0.00    +0.000 A 
ATOM      2  C   UNL     1       3.324   6.504  17.738  0.00  0.00    +0.000 A 
ATOM      3  C   UNL     1       3.989   5.252  17.566  0.00  0.00    +0.000 A 
ATOM      4  C   UNL     1       3.848   4.458  18.697  0.00  0.00    +0.000 A 
ATOM      5  C   UNL     1       4.297   3.064  18.986  0.00  0.00    +0.000 C 
ATOM      6  S   UNL     1       3.013   5.284  19.955  0.00  0.00    +0.000 S 
ENDROOT
BRANCH   1   9
ATOM      7  C   UNL     1       1.035   9.234  20.648  0.00  0.00    +0.000 A 
ATOM      8  N   UNL     1       1.544   8.027  20.696  0.00  0.00    +0.000 NA
ATOM      9  C   UNL     1       1.985   7.851  19.408  0.00  0.00    +0.000 A 
ATOM     10  N   UNL     1       1.712   8.874  18.584  0.00  0.00    +0.000 NA
ATOM     11  O   UNL     1       1.074   9.796  19.408  0.00  0.00    +0.000 OA
BRANCH   7  13
ATOM     12  C   UNL     1      -0.183   9.233  22.773  0.00  0.00    +0.000 C 
ATOM     13  C   UNL     1       0.555  10.086  21.753  0.00  0.00    +0.000 C 
ENDBRANCH   7  13
ENDBRANCH   1   9
BRANCH   3  14
ATOM     14  N   UNL     1       4.664   4.837  16.417  0.00  0.00    +0.000 N 
ATOM     15  C   UNL     1       5.774   5.476  15.882  0.00  0.00    +0.000 C 
ATOM     16  O   UNL     1       6.370   6.429  16.370  0.00  0.00    +0.000 OA
ATOM     17  H   UNL     1       4.267   4.050  15.925  0.00  0.00    +0.000 HD
BRANCH  15  18
ATOM     18  C   UNL     1       6.239   4.975  14.558  0.00  0.00    +0.000 A 
ATOM     19  C   UNL     1       5.460   3.998  13.922  0.00  0.00    +0.000 A 
ATOM     20  C   UNL     1       5.877   3.440  12.714  0.00  0.00    +0.000 A 
ATOM     21  C   UNL     1       7.068   3.864  12.129  0.00  0.00    +0.000 A 
ATOM     22  C   UNL     1       7.827   4.867  12.735  0.00  0.00    +0.000 A 
ATOM     23  C   UNL     1       7.412   5.432  13.944  0.00  0.00    +0.000 A 
ENDBRANCH  15  18
ENDBRANCH   3  14
TORSDOF 4
ENDMDL
MODEL 9
REMARK VINA RESULT:      -7.5      2.013      8.175
REMARK  Name = 
REMARK  6 active torsions:
REMARK  status: ('A' for Active; 'I' for Inactive)
REMARK    1  A    between atoms: C_1  and  C_2
REMARK    2  A    between atoms: C_2  and  C_3
REMARK    3  A    between atoms: C_5  and  C_6
REMARK    4  A    between atoms: C_8  and  N_9
REMARK    5  A    between atoms: C_10  and  C_12
REMARK    6  A    between atoms: C_18  and  C_19
REMARK                            x       y       z     vdW  Elec       q    Type
REMARK                         _______ _______ _______ _____ _____    ______ ____
ROOT
ATOM      1  C   UNL     1       2.774   6.263  18.966  0.00  0.00    +0.000 A 
ATOM      2  C   UNL     1       3.408   6.172  17.748  0.00  0.00    +0.000 A 
ATOM      3  C   UNL     1       3.969   4.883  17.501  0.00  0.00    +0.000 A 
ATOM      4  C   UNL     1       3.697   4.015  18.552  0.00  0.00    +0.000 A 
ATOM      5  C   UNL     1       4.006   2.567  18.741  0.00  0.00    +0.000 C 
ATOM      6  S   UNL     1       2.869   4.810  19.834  0.00  0.00    +0.000 S 
ENDROOT
BRANCH   1   9
ATOM      7  C   UNL     1       1.226   9.390  19.459  0.00  0.00    +0.000 A 
ATOM      8  N   UNL     1       1.932   8.611  18.677  0.00  0.00    +0.000 NA
ATOM      9  C   UNL     1       2.102   7.496  19.461  0.00  0.00    +0.000 A 
ATOM     10  N   UNL     1       1.579   7.600  20.691  0.00  0.00    +0.000 NA
ATOM     11  O   UNL     1       0.998   8.865  20.695  0.00  0.00    +0.000 OA
BRANCH   7  13
ATOM     12  C   UNL     1      -0.944  10.517  19.308  0.00  0.00    +0.000 C 
ATOM     13  C   UNL     1       0.561  10.669  19.143  0.00  0.00    +0.000 C 
ENDBRANCH   7  13
ENDBRANCH   1   9
BRANCH   3  14
ATOM     14  N   UNL     1       4.669   4.502  16.354  0.00  0.00    +0.000 N 
ATOM     15  C   UNL     1       5.680   5.248  15.765  0.00  0.00    +0.000 C 
ATOM     16  O   UNL     1       6.163   6.288  16.198  0.00  0.00    +0.000 OA
ATOM     17  H   UNL     1       4.363   3.651  15.907  0.00  0.00    +0.000 HD
BRANCH  15  18
ATOM     18  C   UNL     1       6.179   4.748  14.453  0.00  0.00    +0.000 A 
ATOM     19  C   UNL     1       7.340   5.335  13.931  0.00  0.00    +0.000 A 
ATOM     20  C   UNL     1       7.818   4.959  12.677  0.00  0.00    +0.000 A 
ATOM     21  C   UNL     1       7.145   3.986  11.941  0.00  0.00    +0.000 A 
ATOM     22  C   UNL     1       6.012   3.366  12.473  0.00  0.00    +0.000 A 
ATOM     23  C   UNL     1       5.531   3.737  13.732  0.00  0.00    +0.000 A 
ENDBRANCH  15  18
ENDBRANCH   3  14
TORSDOF 4
ENDMDL
