MODEL 1
REMARK VINA RESULT:      -7.1      0.000      0.000
REMARK  Name = 
REMARK  7 active torsions:
REMARK  status: ('A' for Active; 'I' for Inactive)
REMARK    1  A    between atoms: C_1  and  C_2
REMARK    2  A    between atoms: C_2  and  C_3
REMARK    3  A    between atoms: C_3  and  O_5
REMARK    4  A    between atoms: O_5  and  C_6
REMARK    5  A    between atoms: C_7  and  C_8
REMARK    6  A    between atoms: C_11  and  O_12
REMARK    7  A    between atoms: O_12  and  C_13
REMARK                            x       y       z     vdW  Elec       q    Type
REMARK                         _______ _______ _______ _____ _____    ______ ____
ROOT
ATOM      1  C   UNL     1       4.120   6.236  17.392  0.00  0.00    +0.000 C 
ATOM      2  C   UNL     1       2.879   6.338  17.927  0.00  0.00    +0.000 C 
ATOM      3  S   UNL     1       1.786   4.969  17.941  0.00  0.00    +0.000 S 
ATOM      4  C   UNL     1       2.766   3.920  18.987  0.00  0.00    +0.000 A 
ATOM      5  C   UNL     1       2.191   3.516  20.200  0.00  0.00    +0.000 A 
ATOM      6  C   UNL     1       2.835   2.587  21.015  0.00  0.00    +0.000 A 
ATOM      7  C   UNL     1       4.049   2.040  20.612  0.00  0.00    +0.000 A 
ATOM      8  C   UNL     1       4.632   2.434  19.404  0.00  0.00    +0.000 A 
ATOM      9  C   UNL     1       4.005   3.395  18.596  0.00  0.00    +0.000 A 
ATOM     10  N   UNL     1       4.625   3.794  17.374  0.00  0.00    +0.000 N 
ATOM     11  C   UNL     1       5.360   2.935  16.569  0.00  0.00    +0.000 A 
ATOM     12  C   UNL     1       5.787   3.606  15.448  0.00  0.00    +0.000 A 
ATOM     13  C   UNL     1       5.339   4.934  15.572  0.00  0.00    +0.000 A 
ATOM     14  C   UNL     1       4.631   5.053  16.762  0.00  0.00    +0.000 A 
ENDROOT
BRANCH   2  15
ATOM     15  C   UNL     1       2.298   7.590  18.511  0.00  0.00    +0.000 A 
ATOM     16  C   UNL     1       2.037   8.724  17.717  0.00  0.00    +0.000 A 
ATOM     17  C   UNL     1       1.472   9.885  18.254  0.00  0.00    +0.000 A 
ATOM     18  C   UNL     1       1.163   9.958  19.608  0.00  0.00    +0.000 A 
ATOM     19  C   UNL     1       1.408   8.852  20.416  0.00  0.00    +0.000 A 
ATOM     20  C   UNL     1       1.946   7.678  19.867  0.00  0.00    +0.000 A 
BRANCH  18  21
ATOM     21  O   UNL     1       0.680  11.164  20.028  0.00  0.00    +0.000 OA
ATOM     22  C   UNL     1       1.111  12.303  19.294  0.00  0.00    +0.000 C 
ENDBRANCH  18  21
ENDBRANCH   2  15
BRANCH   1  23
ATOM     23  O   UNL     1       4.956   7.370  17.235  0.00  0.00    +0.000 OA
BRANCH  23  24
ATOM     24  C   UNL     1       6.300   7.183  17.473  0.00  0.00    +0.000 C 
ATOM     25  O   UNL     1       7.224   7.573  16.779  0.00  0.00    +0.000 OA
BRANCH  24  27
ATOM     26  C   UNL     1       7.767   5.579  18.756  0.00  0.00    +0.000 C 
ATOM     27  C   UNL     1       6.450   6.337  18.722  0.00  0.00    +0.000 C 
ENDBRANCH  24  27
ENDBRANCH  23  24
ENDBRANCH   1  23
TORSDOF 5
ENDMDL
MODEL 2
REMARK VINA RESULT:      -7.0      0.457      1.042
REMARK  Name = 
REMARK  7 active torsions:
REMARK  status: ('A' for Active; 'I' for Inactive)
REMARK    1  A    between atoms: C_1  and  C_2
REMARK    2  A    between atoms: C_2  and  C_3
REMARK    3  A    between atoms: C_3  and  O_5
REMARK    4  A    between atoms: O_5  and  C_6
REMARK    5  A    between atoms: C_7  and  C_8
REMARK    6  A    between atoms: C_11  and  O_12
REMARK    7  A    between atoms: O_12  and  C_13
REMARK                            x       y       z     vdW  Elec       q    Type
REMARK                         _______ _______ _______ _____ _____    ______ ____
ROOT
ATOM      1  C   UNL     1       4.109   6.242  17.377  0.00  0.00    +0.000 C 
ATOM      2  C   UNL     1       2.868   6.338  17.915  0.00  0.00    +0.000 C 
ATOM      3  S   UNL     1       1.782   4.964  17.933  0.00  0.00    +0.000 S 
ATOM      4  C   UNL     1       2.771   3.920  18.976  0.00  0.00    +0.000 A 
ATOM      5  C   UNL     1       2.201   3.514  20.192  0.00  0.00    +0.000 A 
ATOM      6  C   UNL     1       2.852   2.589  21.005  0.00  0.00    +0.000 A 
ATOM      7  C   UNL     1       4.068   2.048  20.600  0.00  0.00    +0.000 A 
ATOM      8  C   UNL     1       4.645   2.445  19.390  0.00  0.00    +0.000 A 
ATOM      9  C   UNL     1       4.011   3.401  18.583  0.00  0.00    +0.000 A 
ATOM     10  N   UNL     1       4.626   3.803  17.359  0.00  0.00    +0.000 N 
ATOM     11  C   UNL     1       5.363   2.947  16.552  0.00  0.00    +0.000 A 
ATOM     12  C   UNL     1       5.783   3.619  15.430  0.00  0.00    +0.000 A 
ATOM     13  C   UNL     1       5.329   4.945  15.554  0.00  0.00    +0.000 A 
ATOM     14  C   UNL     1       4.624   5.061  16.746  0.00  0.00    +0.000 A 
ENDROOT
BRANCH   2  15
ATOM     15  C   UNL     1       2.283   7.588  18.499  0.00  0.00    +0.000 A 
ATOM     16  C   UNL     1       1.957   7.683  19.866  0.00  0.00    +0.000 A 
ATOM     17  C   UNL     1       1.434   8.856  20.419  0.00  0.00    +0.000 A 
ATOM     18  C   UNL     1       1.205   9.972  19.620  0.00  0.00    +0.000 A 
ATOM     19  C   UNL     1       1.520   9.908  18.267  0.00  0.00    +0.000 A 
ATOM     20  C   UNL     1       2.074   8.739  17.721  0.00  0.00    +0.000 A 
BRANCH  18  21
ATOM     21  O   UNL     1       0.630  11.033  20.259  0.00  0.00    +0.000 OA
ATOM     22  C   UNL     1      -0.791  11.037  20.314  0.00  0.00    +0.000 C 
ENDBRANCH  18  21
ENDBRANCH   2  15
BRANCH   1  23
ATOM     23  O   UNL     1       4.938   7.381  17.216  0.00  0.00    +0.000 OA
BRANCH  23  24
ATOM     24  C   UNL     1       6.281   7.204  17.470  0.00  0.00    +0.000 C 
ATOM     25  O   UNL     1       7.210   7.615  16.793  0.00  0.00    +0.000 OA
BRANCH  24  27
ATOM     26  C   UNL     1       7.753   5.605  18.752  0.00  0.00    +0.000 C 
ATOM     27  C   UNL     1       6.425   6.342  18.708  0.00  0.00    +0.000 C 
ENDBRANCH  24  27
ENDBRANCH  23  24
ENDBRANCH   1  23
TORSDOF 5
ENDMDL
MODEL 3
REMARK VINA RESULT:      -6.8      7.232     10.378
REMARK  Name = 
REMARK  7 active torsions:
REMARK  status: ('A' for Active; 'I' for Inactive)
REMARK    1  A    between atoms: C_1  and  C_2
REMARK    2  A    between atoms: C_2  and  C_3
REMARK    3  A    between atoms: C_3  and  O_5
REMARK    4  A    between atoms: O_5  and  C_6
REMARK    5  A    between atoms: C_7  and  C_8
REMARK    6  A    between atoms: C_11  and  O_12
REMARK    7  A    between atoms: O_12  and  C_13
REMARK                            x       y       z     vdW  Elec       q    Type
REMARK                         _______ _______ _______ _____ _____    ______ ____
ROOT
ATOM      1  C   UNL     1      -2.982  12.721  20.180  0.00  0.00    +0.000 C 
ATOM      2  C   UNL     1      -2.235  12.092  19.240  0.00  0.00    +0.000 C 
ATOM      3  S   UNL     1      -0.499  11.943  19.416  0.00  0.00    +0.000 S 
ATOM      4  C   UNL     1      -0.513  10.946  20.886  0.00  0.00    +0.000 A 
ATOM      5  C   UNL     1       0.077   9.677  20.799  0.00  0.00    +0.000 A 
ATOM      6  C   UNL     1       0.229   8.888  21.937  0.00  0.00    +0.000 A 
ATOM      7  C   UNL     1      -0.192   9.369  23.173  0.00  0.00    +0.000 A 
ATOM      8  C   UNL     1      -0.782  10.632  23.272  0.00  0.00    +0.000 A 
ATOM      9  C   UNL     1      -0.968  11.418  22.124  0.00  0.00    +0.000 A 
ATOM     10  N   UNL     1      -1.586  12.699  22.246  0.00  0.00    +0.000 N 
ATOM     11  C   UNL     1      -1.418  13.532  23.343  0.00  0.00    +0.000 A 
ATOM     12  C   UNL     1      -2.104  14.705  23.141  0.00  0.00    +0.000 A 
ATOM     13  C   UNL     1      -2.752  14.590  21.897  0.00  0.00    +0.000 A 
ATOM     14  C   UNL     1      -2.441  13.351  21.350  0.00  0.00    +0.000 A 
ENDROOT
BRANCH   2  15
ATOM     15  C   UNL     1      -2.773  11.505  17.971  0.00  0.00    +0.000 A 
ATOM     16  C   UNL     1      -2.076  10.505  17.264  0.00  0.00    +0.000 A 
ATOM     17  C   UNL     1      -2.588   9.939  16.093  0.00  0.00    +0.000 A 
ATOM     18  C   UNL     1      -3.809  10.362  15.579  0.00  0.00    +0.000 A 
ATOM     19  C   UNL     1      -4.521  11.346  16.257  0.00  0.00    +0.000 A 
ATOM     20  C   UNL     1      -4.019  11.890  17.449  0.00  0.00    +0.000 A 
BRANCH  18  21
ATOM     21  O   UNL     1      -4.172   9.783  14.396  0.00  0.00    +0.000 OA
ATOM     22  C   UNL     1      -3.227   9.874  13.338  0.00  0.00    +0.000 C 
ENDBRANCH  18  21
ENDBRANCH   2  15
BRANCH   1  23
ATOM     23  O   UNL     1      -4.360  12.983  19.979  0.00  0.00    +0.000 OA
BRANCH  23  24
ATOM     24  C   UNL     1      -5.240  12.316  20.803  0.00  0.00    +0.000 C 
ATOM     25  O   UNL     1      -5.167  12.213  22.016  0.00  0.00    +0.000 OA
BRANCH  24  27
ATOM     26  C   UNL     1      -7.459  11.113  20.754  0.00  0.00    +0.000 C 
ATOM     27  C   UNL     1      -6.297  11.656  19.939  0.00  0.00    +0.000 C 
ENDBRANCH  24  27
ENDBRANCH  23  24
ENDBRANCH   1  23
TORSDOF 5
ENDMDL
MODEL 4
REMARK VINA RESULT:      -6.8      0.853      1.045
REMARK  Name = 
REMARK  7 active torsions:
REMARK  status: ('A' for Active; 'I' for Inactive)
REMARK    1  A    between atoms: C_1  and  C_2
REMARK    2  A    between atoms: C_2  and  C_3
REMARK    3  A    between atoms: C_3  and  O_5
REMARK    4  A    between atoms: O_5  and  C_6
REMARK    5  A    between atoms: C_7  and  C_8
REMARK    6  A    between atoms: C_11  and  O_12
REMARK    7  A    between atoms: O_12  and  C_13
REMARK                            x       y       z     vdW  Elec       q    Type
REMARK                         _______ _______ _______ _____ _____    ______ ____
ROOT
ATOM      1  C   UNL     1       3.985   6.136  17.676  0.00  0.00    +0.000 C 
ATOM      2  C   UNL     1       2.726   6.388  18.108  0.00  0.00    +0.000 C 
ATOM      3  S   UNL     1       1.500   5.138  18.100  0.00  0.00    +0.000 S 
ATOM      4  C   UNL     1       2.289   4.052  19.264  0.00  0.00    +0.000 A 
ATOM      5  C   UNL     1       1.590   3.772  20.446  0.00  0.00    +0.000 A 
ATOM      6  C   UNL     1       2.075   2.827  21.349  0.00  0.00    +0.000 A 
ATOM      7  C   UNL     1       3.253   2.142  21.066  0.00  0.00    +0.000 A 
ATOM      8  C   UNL     1       3.958   2.414  19.889  0.00  0.00    +0.000 A 
ATOM      9  C   UNL     1       3.493   3.388  18.993  0.00  0.00    +0.000 A 
ATOM     10  N   UNL     1       4.237   3.659  17.806  0.00  0.00    +0.000 N 
ATOM     11  C   UNL     1       4.935   2.690  17.099  0.00  0.00    +0.000 A 
ATOM     12  C   UNL     1       5.508   3.256  15.985  0.00  0.00    +0.000 A 
ATOM     13  C   UNL     1       5.192   4.626  16.014  0.00  0.00    +0.000 A 
ATOM     14  C   UNL     1       4.416   4.877  17.140  0.00  0.00    +0.000 A 
ENDROOT
BRANCH   2  15
ATOM     15  C   UNL     1       2.236   7.721  18.589  0.00  0.00    +0.000 A 
ATOM     16  C   UNL     1       2.173   8.838  17.733  0.00  0.00    +0.000 A 
ATOM     17  C   UNL     1       1.694  10.076  18.173  0.00  0.00    +0.000 A 
ATOM     18  C   UNL     1       1.274  10.244  19.488  0.00  0.00    +0.000 A 
ATOM     19  C   UNL     1       1.322   9.157  20.355  0.00  0.00    +0.000 A 
ATOM     20  C   UNL     1       1.775   7.908  19.902  0.00  0.00    +0.000 A 
BRANCH  18  21
ATOM     21  O   UNL     1       0.891  11.513  19.816  0.00  0.00    +0.000 OA
ATOM     22  C   UNL     1       1.396  12.554  18.991  0.00  0.00    +0.000 C 
ENDBRANCH  18  21
ENDBRANCH   2  15
BRANCH   1  23
ATOM     23  O   UNL     1       4.942   7.173  17.532  0.00  0.00    +0.000 OA
BRANCH  23  24
ATOM     24  C   UNL     1       6.226   6.886  17.941  0.00  0.00    +0.000 C 
ATOM     25  O   UNL     1       6.550   6.176  18.879  0.00  0.00    +0.000 OA
BRANCH  24  27
ATOM     26  C   UNL     1       7.979   8.699  17.852  0.00  0.00    +0.000 C 
ATOM     27  C   UNL     1       7.191   7.664  17.068  0.00  0.00    +0.000 C 
ENDBRANCH  24  27
ENDBRANCH  23  24
ENDBRANCH   1  23
TORSDOF 5
ENDMDL
MODEL 5
REMARK VINA RESULT:      -6.7      2.214      4.463
REMARK  Name = 
REMARK  7 active torsions:
REMARK  status: ('A' for Active; 'I' for Inactive)
REMARK    1  A    between atoms: C_1  and  C_2
REMARK    2  A    between atoms: C_2  and  C_3
REMARK    3  A    between atoms: C_3  and  O_5
REMARK    4  A    between atoms: O_5  and  C_6
REMARK    5  A    between atoms: C_7  and  C_8
REMARK    6  A    between atoms: C_11  and  O_12
REMARK    7  A    between atoms: O_12  and  C_13
REMARK                            x       y       z     vdW  Elec       q    Type
REMARK                         _______ _______ _______ _____ _____    ______ ____
ROOT
ATOM      1  C   UNL     1       2.639   4.442  18.393  0.00  0.00    +0.000 C 
ATOM      2  C   UNL     1       3.248   5.620  18.675  0.00  0.00    +0.000 C 
ATOM      3  S   UNL     1       4.988   5.721  18.842  0.00  0.00    +0.000 S 
ATOM      4  C   UNL     1       5.393   5.262  17.174  0.00  0.00    +0.000 A 
ATOM      5  C   UNL     1       6.100   6.202  16.410  0.00  0.00    +0.000 A 
ATOM      6  C   UNL     1       6.574   5.871  15.142  0.00  0.00    +0.000 A 
ATOM      7  C   UNL     1       6.361   4.592  14.637  0.00  0.00    +0.000 A 
ATOM      8  C   UNL     1       5.657   3.647  15.389  0.00  0.00    +0.000 A 
ATOM      9  C   UNL     1       5.148   3.985  16.653  0.00  0.00    +0.000 A 
ATOM     10  N   UNL     1       4.420   3.009  17.397  0.00  0.00    +0.000 N 
ATOM     11  C   UNL     1       4.709   1.651  17.373  0.00  0.00    +0.000 A 
ATOM     12  C   UNL     1       3.861   0.985  18.225  0.00  0.00    +0.000 A 
ATOM     13  C   UNL     1       2.991   1.946  18.771  0.00  0.00    +0.000 A 
ATOM     14  C   UNL     1       3.329   3.191  18.255  0.00  0.00    +0.000 A 
ENDROOT
BRANCH   2  15
ATOM     15  C   UNL     1       2.535   6.917  18.908  0.00  0.00    +0.000 A 
ATOM     16  C   UNL     1       2.040   7.271  20.179  0.00  0.00    +0.000 A 
ATOM     17  C   UNL     1       1.397   8.492  20.404  0.00  0.00    +0.000 A 
ATOM     18  C   UNL     1       1.212   9.396  19.364  0.00  0.00    +0.000 A 
ATOM     19  C   UNL     1       1.693   9.075  18.099  0.00  0.00    +0.000 A 
ATOM     20  C   UNL     1       2.366   7.862  17.882  0.00  0.00    +0.000 A 
BRANCH  18  21
ATOM     21  O   UNL     1       0.512  10.522  19.691  0.00  0.00    +0.000 OA
ATOM     22  C   UNL     1      -0.876  10.509  19.385  0.00  0.00    +0.000 C 
ENDBRANCH  18  21
ENDBRANCH   2  15
BRANCH   1  23
ATOM     23  O   UNL     1       1.228   4.314  18.407  0.00  0.00    +0.000 OA
BRANCH  23  24
ATOM     24  C   UNL     1       0.698   3.435  19.327  0.00  0.00    +0.000 C 
ATOM     25  O   UNL     1       0.057   2.426  19.085  0.00  0.00    +0.000 OA
BRANCH  24  27
ATOM     26  C   UNL     1       1.439   2.879  21.675  0.00  0.00    +0.000 C 
ATOM     27  C   UNL     1       0.985   3.968  20.717  0.00  0.00    +0.000 C 
ENDBRANCH  24  27
ENDBRANCH  23  24
ENDBRANCH   1  23
TORSDOF 5
ENDMDL
MODEL 6
REMARK VINA RESULT:      -6.6      1.155      1.261
REMARK  Name = 
REMARK  7 active torsions:
REMARK  status: ('A' for Active; 'I' for Inactive)
REMARK    1  A    between atoms: C_1  and  C_2
REMARK    2  A    between atoms: C_2  and  C_3
REMARK    3  A    between atoms: C_3  and  O_5
REMARK    4  A    between atoms: O_5  and  C_6
REMARK    5  A    between atoms: C_7  and  C_8
REMARK    6  A    between atoms: C_11  and  O_12
REMARK    7  A    between atoms: O_12  and  C_13
REMARK                            x       y       z     vdW  Elec       q    Type
REMARK                         _______ _______ _______ _____ _____    ______ ____
ROOT
ATOM      1  C   UNL     1       4.170   6.207  17.404  0.00  0.00    +0.000 C 
ATOM      2  C   UNL     1       2.877   6.284  17.801  0.00  0.00    +0.000 C 
ATOM      3  S   UNL     1       1.695   5.106  17.267  0.00  0.00    +0.000 S 
ATOM      4  C   UNL     1       2.439   3.688  18.037  0.00  0.00    +0.000 A 
ATOM      5  C   UNL     1       1.670   3.008  18.992  0.00  0.00    +0.000 A 
ATOM      6  C   UNL     1       2.123   1.812  19.543  0.00  0.00    +0.000 A 
ATOM      7  C   UNL     1       3.339   1.276  19.129  0.00  0.00    +0.000 A 
ATOM      8  C   UNL     1       4.114   1.946  18.177  0.00  0.00    +0.000 A 
ATOM      9  C   UNL     1       3.679   3.168  17.643  0.00  0.00    +0.000 A 
ATOM     10  N   UNL     1       4.492   3.842  16.683  0.00  0.00    +0.000 N 
ATOM     11  C   UNL     1       5.268   3.185  15.738  0.00  0.00    +0.000 A 
ATOM     12  C   UNL     1       5.897   4.108  14.937  0.00  0.00    +0.000 A 
ATOM     13  C   UNL     1       5.535   5.380  15.416  0.00  0.00    +0.000 A 
ATOM     14  C   UNL     1       4.677   5.217  16.497  0.00  0.00    +0.000 A 
ENDROOT
BRANCH   2  15
ATOM     15  C   UNL     1       2.313   7.362  18.676  0.00  0.00    +0.000 A 
ATOM     16  C   UNL     1       1.951   8.621  18.160  0.00  0.00    +0.000 A 
ATOM     17  C   UNL     1       1.402   9.619  18.970  0.00  0.00    +0.000 A 
ATOM     18  C   UNL     1       1.208   9.399  20.329  0.00  0.00    +0.000 A 
ATOM     19  C   UNL     1       1.553   8.163  20.867  0.00  0.00    +0.000 A 
ATOM     20  C   UNL     1       2.076   7.152  20.045  0.00  0.00    +0.000 A 
BRANCH  18  21
ATOM     21  O   UNL     1       0.729  10.470  21.028  0.00  0.00    +0.000 OA
ATOM     22  C   UNL     1       0.974  11.750  20.460  0.00  0.00    +0.000 C 
ENDBRANCH  18  21
ENDBRANCH   2  15
BRANCH   1  23
ATOM     23  O   UNL     1       5.100   7.235  17.701  0.00  0.00    +0.000 OA
BRANCH  23  24
ATOM     24  C   UNL     1       6.365   6.832  18.069  0.00  0.00    +0.000 C 
ATOM     25  O   UNL     1       6.647   5.984  18.900  0.00  0.00    +0.000 OA
BRANCH  24  27
ATOM     26  C   UNL     1       8.268   8.481  18.244  0.00  0.00    +0.000 C 
ATOM     27  C   UNL     1       7.374   7.676  17.316  0.00  0.00    +0.000 C 
ENDBRANCH  24  27
ENDBRANCH  23  24
ENDBRANCH   1  23
TORSDOF 5
ENDMDL
MODEL 7
REMARK VINA RESULT:      -6.6      1.257      1.779
REMARK  Name = 
REMARK  7 active torsions:
REMARK  status: ('A' for Active; 'I' for Inactive)
REMARK    1  A    between atoms: C_1  and  C_2
REMARK    2  A    between atoms: C_2  and  C_3
REMARK    3  A    between atoms: C_3  and  O_5
REMARK    4  A    between atoms: O_5  and  C_6
REMARK    5  A    between atoms: C_7  and  C_8
REMARK    6  A    between atoms: C_11  and  O_12
REMARK    7  A    between atoms: O_12  and  C_13
REMARK                            x       y       z     vdW  Elec       q    Type
REMARK                         _______ _______ _______ _____ _____    ______ ____
ROOT
ATOM      1  C   UNL     1       4.172   6.168  17.390  0.00  0.00    +0.000 C 
ATOM      2  C   UNL     1       2.878   6.225  17.789  0.00  0.00    +0.000 C 
ATOM      3  S   UNL     1       1.709   5.043  17.242  0.00  0.00    +0.000 S 
ATOM      4  C   UNL     1       2.468   3.623  17.993  0.00  0.00    +0.000 A 
ATOM      5  C   UNL     1       1.708   2.922  18.940  0.00  0.00    +0.000 A 
ATOM      6  C   UNL     1       2.174   1.724  19.476  0.00  0.00    +0.000 A 
ATOM      7  C   UNL     1       3.395   1.207  19.054  0.00  0.00    +0.000 A 
ATOM      8  C   UNL     1       4.161   1.896  18.109  0.00  0.00    +0.000 A 
ATOM      9  C   UNL     1       3.713   3.121  17.591  0.00  0.00    +0.000 A 
ATOM     10  N   UNL     1       4.518   3.815  16.640  0.00  0.00    +0.000 N 
ATOM     11  C   UNL     1       5.300   3.179  15.685  0.00  0.00    +0.000 A 
ATOM     12  C   UNL     1       5.918   4.118  14.895  0.00  0.00    +0.000 A 
ATOM     13  C   UNL     1       5.543   5.380  15.391  0.00  0.00    +0.000 A 
ATOM     14  C   UNL     1       4.688   5.194  16.471  0.00  0.00    +0.000 A 
ENDROOT
BRANCH   2  15
ATOM     15  C   UNL     1       2.304   7.286  18.679  0.00  0.00    +0.000 A 
ATOM     16  C   UNL     1       2.133   7.079  20.062  0.00  0.00    +0.000 A 
ATOM     17  C   UNL     1       1.621   8.075  20.898  0.00  0.00    +0.000 A 
ATOM     18  C   UNL     1       1.247   9.310  20.379  0.00  0.00    +0.000 A 
ATOM     19  C   UNL     1       1.407   9.545  19.017  0.00  0.00    +0.000 A 
ATOM     20  C   UNL     1       1.951   8.553  18.185  0.00  0.00    +0.000 A 
BRANCH  18  21
ATOM     21  O   UNL     1       0.699  10.177  21.281  0.00  0.00    +0.000 OA
ATOM     22  C   UNL     1       0.231   9.605  22.496  0.00  0.00    +0.000 C 
ENDBRANCH  18  21
ENDBRANCH   2  15
BRANCH   1  23
ATOM     23  O   UNL     1       5.091   7.201  17.699  0.00  0.00    +0.000 OA
BRANCH  23  24
ATOM     24  C   UNL     1       6.359   6.807  18.070  0.00  0.00    +0.000 C 
ATOM     25  O   UNL     1       6.645   5.992  18.931  0.00  0.00    +0.000 OA
BRANCH  24  27
ATOM     26  C   UNL     1       8.166   8.568  18.140  0.00  0.00    +0.000 C 
ATOM     27  C   UNL     1       7.363   7.614  17.271  0.00  0.00    +0.000 C 
ENDBRANCH  24  27
ENDBRANCH  23  24
ENDBRANCH   1  23
TORSDOF 5
ENDMDL
MODEL 8
REMARK VINA RESULT:      -6.6      8.763     10.550
REMARK  Name = 
REMARK  7 active torsions:
REMARK  status: ('A' for Active; 'I' for Inactive)
REMARK    1  A    between atoms: C_1  and  C_2
REMARK    2  A    between atoms: C_2  and  C_3
REMARK    3  A    between atoms: C_3  and  O_5
REMARK    4  A    between atoms: O_5  and  C_6
REMARK    5  A    between atoms: C_7  and  C_8
REMARK    6  A    between atoms: C_11  and  O_12
REMARK    7  A    between atoms: O_12  and  C_13
REMARK                            x       y       z     vdW  Elec       q    Type
REMARK                         _______ _______ _______ _____ _____    ______ ____
ROOT
ATOM      1  C   UNL     1       9.268  13.999  21.266  0.00  0.00    +0.000 C 
ATOM      2  C   UNL     1       8.218  14.270  22.078  0.00  0.00    +0.000 C 
ATOM      3  S   UNL     1       7.224  15.690  21.829  0.00  0.00    +0.000 S 
ATOM      4  C   UNL     1       6.598  15.240  20.229  0.00  0.00    +0.000 A 
ATOM      5  C   UNL     1       5.209  15.091  20.109  0.00  0.00    +0.000 A 
ATOM      6  C   UNL     1       4.625  14.872  18.863  0.00  0.00    +0.000 A 
ATOM      7  C   UNL     1       5.424  14.820  17.725  0.00  0.00    +0.000 A 
ATOM      8  C   UNL     1       6.811  14.967  17.833  0.00  0.00    +0.000 A 
ATOM      9  C   UNL     1       7.408  15.154  19.089  0.00  0.00    +0.000 A 
ATOM     10  N   UNL     1       8.826  15.287  19.177  0.00  0.00    +0.000 N 
ATOM     11  C   UNL     1       9.600  15.913  18.210  0.00  0.00    +0.000 A 
ATOM     12  C   UNL     1      10.916  15.916  18.605  0.00  0.00    +0.000 A 
ATOM     13  C   UNL     1      10.975  15.240  19.837  0.00  0.00    +0.000 A 
ATOM     14  C   UNL     1       9.690  14.844  20.185  0.00  0.00    +0.000 A 
ENDROOT
BRANCH   2  15
ATOM     15  C   UNL     1       7.817  13.444  23.263  0.00  0.00    +0.000 A 
ATOM     16  C   UNL     1       6.847  12.428  23.163  0.00  0.00    +0.000 A 
ATOM     17  C   UNL     1       6.490  11.639  24.261  0.00  0.00    +0.000 A 
ATOM     18  C   UNL     1       7.080  11.849  25.503  0.00  0.00    +0.000 A 
ATOM     19  C   UNL     1       8.044  12.845  25.631  0.00  0.00    +0.000 A 
ATOM     20  C   UNL     1       8.422  13.614  24.520  0.00  0.00    +0.000 A 
BRANCH  18  21
ATOM     21  O   UNL     1       6.602  11.064  26.512  0.00  0.00    +0.000 OA
ATOM     22  C   UNL     1       5.202  10.817  26.506  0.00  0.00    +0.000 C 
ENDBRANCH  18  21
ENDBRANCH   2  15
BRANCH   1  23
ATOM     23  O   UNL     1      10.170  12.942  21.546  0.00  0.00    +0.000 OA
BRANCH  23  24
ATOM     24  C   UNL     1      10.045  11.806  20.776  0.00  0.00    +0.000 C 
ATOM     25  O   UNL     1       9.109  11.024  20.779  0.00  0.00    +0.000 OA
BRANCH  24  27
ATOM     26  C   UNL     1      11.050  11.680  18.464  0.00  0.00    +0.000 C 
ATOM     27  C   UNL     1      11.312  11.639  19.961  0.00  0.00    +0.000 C 
ENDBRANCH  24  27
ENDBRANCH  23  24
ENDBRANCH   1  23
TORSDOF 5
ENDMDL
MODEL 9
REMARK VINA RESULT:      -6.4      8.592     10.507
REMARK  Name = 
REMARK  7 active torsions:
REMARK  status: ('A' for Active; 'I' for Inactive)
REMARK    1  A    between atoms: C_1  and  C_2
REMARK    2  A    between atoms: C_2  and  C_3
REMARK    3  A    between atoms: C_3  and  O_5
REMARK    4  A    between atoms: O_5  and  C_6
REMARK    5  A    between atoms: C_7  and  C_8
REMARK    6  A    between atoms: C_11  and  O_12
REMARK    7  A    between atoms: O_12  and  C_13
REMARK                            x       y       z     vdW  Elec       q    Type
REMARK                         _______ _______ _______ _____ _____    ______ ____
ROOT
ATOM      1  C   UNL     1       9.245  13.835  21.211  0.00  0.00    +0.000 C 
ATOM      2  C   UNL     1       8.221  14.138  22.046  0.00  0.00    +0.000 C 
ATOM      3  S   UNL     1       7.268  15.590  21.820  0.00  0.00    +0.000 S 
ATOM      4  C   UNL     1       6.594  15.162  20.233  0.00  0.00    +0.000 A 
ATOM      5  C   UNL     1       5.199  15.058  20.142  0.00  0.00    +0.000 A 
ATOM      6  C   UNL     1       4.583  14.860  18.908  0.00  0.00    +0.000 A 
ATOM      7  C   UNL     1       5.356  14.785  17.754  0.00  0.00    +0.000 A 
ATOM      8  C   UNL     1       6.748  14.887  17.832  0.00  0.00    +0.000 A 
ATOM      9  C   UNL     1       7.377  15.052  19.075  0.00  0.00    +0.000 A 
ATOM     10  N   UNL     1       8.800  15.140  19.133  0.00  0.00    +0.000 N 
ATOM     11  C   UNL     1       9.574  15.743  18.151  0.00  0.00    +0.000 A 
ATOM     12  C   UNL     1      10.897  15.703  18.518  0.00  0.00    +0.000 A 
ATOM     13  C   UNL     1      10.960  15.023  19.748  0.00  0.00    +0.000 A 
ATOM     14  C   UNL     1       9.670  14.669  20.123  0.00  0.00    +0.000 A 
ENDROOT
BRANCH   2  15
ATOM     15  C   UNL     1       7.819  13.323  23.238  0.00  0.00    +0.000 A 
ATOM     16  C   UNL     1       8.430  13.501  24.495  0.00  0.00    +0.000 A 
ATOM     17  C   UNL     1       8.040  12.759  25.615  0.00  0.00    +0.000 A 
ATOM     18  C   UNL     1       7.035  11.804  25.514  0.00  0.00    +0.000 A 
ATOM     19  C   UNL     1       6.412  11.609  24.286  0.00  0.00    +0.000 A 
ATOM     20  C   UNL     1       6.784  12.376  23.171  0.00  0.00    +0.000 A 
BRANCH  18  21
ATOM     21  O   UNL     1       6.790  11.098  26.657  0.00  0.00    +0.000 OA
ATOM     22  C   UNL     1       6.352  11.853  27.779  0.00  0.00    +0.000 C 
ENDBRANCH  18  21
ENDBRANCH   2  15
BRANCH   1  23
ATOM     23  O   UNL     1      10.118  12.750  21.471  0.00  0.00    +0.000 OA
BRANCH  23  24
ATOM     24  C   UNL     1       9.923  11.610  20.722  0.00  0.00    +0.000 C 
ATOM     25  O   UNL     1       9.090  10.740  20.922  0.00  0.00    +0.000 OA
BRANCH  24  27
ATOM     26  C   UNL     1      10.365  11.541  18.238  0.00  0.00    +0.000 C 
ATOM     27  C   UNL     1      10.974  11.569  19.630  0.00  0.00    +0.000 C 
ENDBRANCH  24  27
ENDBRANCH  23  24
ENDBRANCH   1  23
TORSDOF 5
ENDMDL
