MODEL 1
REMARK VINA RESULT:      -8.4      0.000      0.000
REMARK  Name = 
REMARK  7 active torsions:
REMARK  status: ('A' for Active; 'I' for Inactive)
REMARK    1  A    between atoms: C_1  and  O_2
REMARK    2  A    between atoms: O_2  and  C_3
REMARK    3  A    between atoms: C_6  and  N_7
REMARK    4  A    between atoms: C_8  and  C_10
REMARK    5  A    between atoms: C_10  and  C_11
REMARK    6  A    between atoms: N_13  and  C_14
REMARK    7  A    between atoms: C_24  and  C_25
REMARK                            x       y       z     vdW  Elec       q    Type
REMARK                         _______ _______ _______ _____ _____    ______ ____
ROOT
ATOM      1  C   UNL     1       2.200   7.214  19.766  0.00  0.00    +0.000 C 
ATOM      2  O   UNL     1       2.551   7.791  18.741  0.00  0.00    +0.000 OA
ATOM      3  N   UNL     1       1.564   7.760  20.847  0.00  0.00    +0.000 N 
ATOM      4  H   UNL     1       1.464   7.164  21.659  0.00  0.00    +0.000 HD
ENDROOT
BRANCH   3   5
ATOM      5  C   UNL     1       0.920   9.015  20.900  0.00  0.00    +0.000 A 
ATOM      6  C   UNL     1       0.501   9.734  19.755  0.00  0.00    +0.000 A 
ATOM      7  C   UNL     1      -0.375  10.830  19.852  0.00  0.00    +0.000 A 
ATOM      8  C   UNL     1      -0.839  11.162  21.108  0.00  0.00    +0.000 A 
ATOM      9  C   UNL     1      -0.346  10.488  22.238  0.00  0.00    +0.000 A 
ATOM     10  C   UNL     1       0.567   9.464  22.171  0.00  0.00    +0.000 A 
ATOM     11  N   UNL     1      -1.031  10.871  23.390  0.00  0.00    +0.000 N 
ATOM     12  C   UNL     1      -2.145  11.606  23.045  0.00  0.00    +0.000 C 
ATOM     13  O   UNL     1      -3.180  11.720  23.669  0.00  0.00    +0.000 OA
ATOM     14  C   UNL     1      -1.814  12.105  21.670  0.00  0.00    +0.000 C 
ATOM     15  C   UNL     1      -1.745  13.422  21.411  0.00  0.00    +0.000 C 
ATOM     16  H   UNL     1      -0.924  10.472  24.307  0.00  0.00    +0.000 HD
BRANCH  15  17
ATOM     17  C   UNL     1      -1.879  14.359  22.475  0.00  0.00    +0.000 A 
ATOM     18  C   UNL     1      -2.905  15.102  23.030  0.00  0.00    +0.000 A 
ATOM     19  C   UNL     1      -2.381  15.805  24.143  0.00  0.00    +0.000 A 
ATOM     20  C   UNL     1      -1.063  15.438  24.273  0.00  0.00    +0.000 A 
ATOM     21  N   UNL     1      -0.787  14.516  23.299  0.00  0.00    +0.000 N 
ATOM     22  H   UNL     1       0.075  13.994  23.224  0.00  0.00    +0.000 HD
ENDBRANCH  15  17
ENDBRANCH   3   5
BRANCH   1  23
ATOM     23  C   UNL     1       2.569   5.773  19.904  0.00  0.00    +0.000 C 
ATOM     24  C   UNL     1       1.415   4.771  20.011  0.00  0.00    +0.000 C 
ATOM     25  C   UNL     1       2.258   5.048  21.213  0.00  0.00    +0.000 C 
BRANCH  23  27
ATOM     26  N   UNL     1       3.525   5.406  17.732  0.00  0.00    +0.000 N 
ATOM     27  C   UNL     1       3.749   5.338  19.093  0.00  0.00    +0.000 C 
ATOM     28  O   UNL     1       4.767   4.995  19.677  0.00  0.00    +0.000 OA
ATOM     29  H   UNL     1       2.625   5.776  17.437  0.00  0.00    +0.000 HD
BRANCH  26  33
ATOM     30  C   UNL     1       6.226   4.387  14.657  0.00  0.00    +0.000 A 
ATOM     31  C   UNL     1       5.938   5.725  14.905  0.00  0.00    +0.000 A 
ATOM     32  C   UNL     1       5.060   6.085  15.929  0.00  0.00    +0.000 A 
ATOM     33  C   UNL     1       4.447   5.106  16.707  0.00  0.00    +0.000 A 
ATOM     34  C   UNL     1       4.738   3.761  16.462  0.00  0.00    +0.000 A 
ATOM     35  C   UNL     1       5.617   3.399  15.432  0.00  0.00    +0.000 A 
BRANCH  30  37
ATOM     36  C   UNL     1       6.536   3.596  12.454  0.00  0.00    +0.000 C 
ATOM     37  O   UNL     1       7.096   4.164  13.619  0.00  0.00    +0.000 OA
ENDBRANCH  30  37
ENDBRANCH  26  33
ENDBRANCH  23  27
ENDBRANCH   1  23
TORSDOF 6
ENDMDL
MODEL 2
REMARK VINA RESULT:      -8.4      2.889     11.447
REMARK  Name = 
REMARK  7 active torsions:
REMARK  status: ('A' for Active; 'I' for Inactive)
REMARK    1  A    between atoms: C_1  and  O_2
REMARK    2  A    between atoms: O_2  and  C_3
REMARK    3  A    between atoms: C_6  and  N_7
REMARK    4  A    between atoms: C_8  and  C_10
REMARK    5  A    between atoms: C_10  and  C_11
REMARK    6  A    between atoms: N_13  and  C_14
REMARK    7  A    between atoms: C_24  and  C_25
REMARK                            x       y       z     vdW  Elec       q    Type
REMARK                         _______ _______ _______ _____ _____    ______ ____
ROOT
ATOM      1  C   UNL     1      -0.276  11.609  19.922  0.00  0.00    +0.000 C 
ATOM      2  O   UNL     1      -1.340  11.171  19.492  0.00  0.00    +0.000 OA
ATOM      3  N   UNL     1       0.916  10.945  20.009  0.00  0.00    +0.000 N 
ATOM      4  H   UNL     1       1.660  11.418  20.509  0.00  0.00    +0.000 HD
ENDROOT
BRANCH   3   5
ATOM      5  C   UNL     1       1.257   9.736  19.365  0.00  0.00    +0.000 A 
ATOM      6  C   UNL     1       1.566   9.636  17.988  0.00  0.00    +0.000 A 
ATOM      7  C   UNL     1       2.165   8.485  17.447  0.00  0.00    +0.000 A 
ATOM      8  C   UNL     1       2.471   7.461  18.318  0.00  0.00    +0.000 A 
ATOM      9  C   UNL     1       2.082   7.547  19.666  0.00  0.00    +0.000 A 
ATOM     10  C   UNL     1       1.428   8.631  20.198  0.00  0.00    +0.000 A 
ATOM     11  N   UNL     1       2.597   6.484  20.406  0.00  0.00    +0.000 N 
ATOM     12  C   UNL     1       3.534   5.806  19.656  0.00  0.00    +0.000 C 
ATOM     13  O   UNL     1       4.480   5.161  20.058  0.00  0.00    +0.000 OA
ATOM     14  C   UNL     1       3.176   6.175  18.247  0.00  0.00    +0.000 C 
ATOM     15  C   UNL     1       2.826   5.232  17.355  0.00  0.00    +0.000 C 
ATOM     16  H   UNL     1       2.533   6.366  21.403  0.00  0.00    +0.000 HD
BRANCH  15  17
ATOM     17  C   UNL     1       2.686   3.879  17.774  0.00  0.00    +0.000 A 
ATOM     18  C   UNL     1       3.471   2.740  17.759  0.00  0.00    +0.000 A 
ATOM     19  C   UNL     1       2.753   1.707  18.412  0.00  0.00    +0.000 A 
ATOM     20  C   UNL     1       1.572   2.250  18.856  0.00  0.00    +0.000 A 
ATOM     21  N   UNL     1       1.569   3.578  18.521  0.00  0.00    +0.000 N 
ATOM     22  H   UNL     1       0.872   4.248  18.817  0.00  0.00    +0.000 HD
ENDBRANCH  15  17
ENDBRANCH   3   5
BRANCH   1  23
ATOM     23  C   UNL     1      -0.282  12.989  20.493  0.00  0.00    +0.000 C 
ATOM     24  C   UNL     1       0.557  14.042  19.763  0.00  0.00    +0.000 C 
ATOM     25  C   UNL     1       1.005  13.547  21.100  0.00  0.00    +0.000 C 
BRANCH  23  27
ATOM     26  N   UNL     1      -2.226  12.502  21.815  0.00  0.00    +0.000 N 
ATOM     27  C   UNL     1      -1.600  13.450  21.030  0.00  0.00    +0.000 C 
ATOM     28  O   UNL     1      -1.981  14.579  20.758  0.00  0.00    +0.000 OA
ATOM     29  H   UNL     1      -1.718  11.636  21.975  0.00  0.00    +0.000 HD
BRANCH  26  33
ATOM     30  C   UNL     1      -5.960  12.903  23.735  0.00  0.00    +0.000 A 
ATOM     31  C   UNL     1      -4.834  12.569  24.481  0.00  0.00    +0.000 A 
ATOM     32  C   UNL     1      -3.586  12.447  23.869  0.00  0.00    +0.000 A 
ATOM     33  C   UNL     1      -3.453  12.645  22.496  0.00  0.00    +0.000 A 
ATOM     34  C   UNL     1      -4.583  12.984  21.746  0.00  0.00    +0.000 A 
ATOM     35  C   UNL     1      -5.837  13.103  22.360  0.00  0.00    +0.000 A 
BRANCH  30  37
ATOM     36  C   UNL     1      -7.916  14.131  24.226  0.00  0.00    +0.000 C 
ATOM     37  O   UNL     1      -7.128  12.982  24.452  0.00  0.00    +0.000 OA
ENDBRANCH  30  37
ENDBRANCH  26  33
ENDBRANCH  23  27
ENDBRANCH   1  23
TORSDOF 6
ENDMDL
MODEL 3
REMARK VINA RESULT:      -8.2      4.148     10.064
REMARK  Name = 
REMARK  7 active torsions:
REMARK  status: ('A' for Active; 'I' for Inactive)
REMARK    1  A    between atoms: C_1  and  O_2
REMARK    2  A    between atoms: O_2  and  C_3
REMARK    3  A    between atoms: C_6  and  N_7
REMARK    4  A    between atoms: C_8  and  C_10
REMARK    5  A    between atoms: C_10  and  C_11
REMARK    6  A    between atoms: N_13  and  C_14
REMARK    7  A    between atoms: C_24  and  C_25
REMARK                            x       y       z     vdW  Elec       q    Type
REMARK                         _______ _______ _______ _____ _____    ______ ____
ROOT
ATOM      1  C   UNL     1      -0.400  11.488  20.035  0.00  0.00    +0.000 C 
ATOM      2  O   UNL     1      -1.412  11.140  19.433  0.00  0.00    +0.000 OA
ATOM      3  N   UNL     1       0.741  10.759  20.225  0.00  0.00    +0.000 N 
ATOM      4  H   UNL     1       1.428  11.153  20.856  0.00  0.00    +0.000 HD
ENDROOT
BRANCH   3   5
ATOM      5  C   UNL     1       1.116   9.586  19.535  0.00  0.00    +0.000 A 
ATOM      6  C   UNL     1       1.383   9.541  18.146  0.00  0.00    +0.000 A 
ATOM      7  C   UNL     1       2.017   8.435  17.552  0.00  0.00    +0.000 A 
ATOM      8  C   UNL     1       2.401   7.403  18.381  0.00  0.00    +0.000 A 
ATOM      9  C   UNL     1       2.053   7.432  19.743  0.00  0.00    +0.000 A 
ATOM     10  C   UNL     1       1.368   8.468  20.328  0.00  0.00    +0.000 A 
ATOM     11  N   UNL     1       2.643   6.375  20.434  0.00  0.00    +0.000 N 
ATOM     12  C   UNL     1       3.585   5.764  19.634  0.00  0.00    +0.000 C 
ATOM     13  O   UNL     1       4.573   5.154  19.986  0.00  0.00    +0.000 OA
ATOM     14  C   UNL     1       3.162   6.155  18.249  0.00  0.00    +0.000 C 
ATOM     15  C   UNL     1       2.827   5.222  17.341  0.00  0.00    +0.000 C 
ATOM     16  H   UNL     1       2.618   6.226  21.428  0.00  0.00    +0.000 HD
BRANCH  15  17
ATOM     17  C   UNL     1       2.765   3.852  17.724  0.00  0.00    +0.000 A 
ATOM     18  C   UNL     1       3.628   2.771  17.718  0.00  0.00    +0.000 A 
ATOM     19  C   UNL     1       2.958   1.675  18.317  0.00  0.00    +0.000 A 
ATOM     20  C   UNL     1       1.724   2.124  18.721  0.00  0.00    +0.000 A 
ATOM     21  N   UNL     1       1.641   3.456  18.415  0.00  0.00    +0.000 N 
ATOM     22  H   UNL     1       0.887   4.068  18.695  0.00  0.00    +0.000 HD
ENDBRANCH  15  17
ENDBRANCH   3   5
BRANCH   1  23
ATOM     23  C   UNL     1      -0.427  12.820  20.712  0.00  0.00    +0.000 C 
ATOM     24  C   UNL     1      -1.298  12.939  21.967  0.00  0.00    +0.000 C 
ATOM     25  C   UNL     1      -1.724  13.628  20.711  0.00  0.00    +0.000 C 
BRANCH  23  27
ATOM     26  N   UNL     1       1.132  14.264  19.594  0.00  0.00    +0.000 N 
ATOM     27  C   UNL     1       0.882  13.543  20.746  0.00  0.00    +0.000 C 
ATOM     28  O   UNL     1       1.575  13.455  21.749  0.00  0.00    +0.000 OA
ATOM     29  H   UNL     1       0.401  14.261  18.888  0.00  0.00    +0.000 HD
BRANCH  26  33
ATOM     30  C   UNL     1       4.470  16.758  18.939  0.00  0.00    +0.000 A 
ATOM     31  C   UNL     1       4.333  15.583  18.206  0.00  0.00    +0.000 A 
ATOM     32  C   UNL     1       3.228  14.752  18.396  0.00  0.00    +0.000 A 
ATOM     33  C   UNL     1       2.252  15.081  19.334  0.00  0.00    +0.000 A 
ATOM     34  C   UNL     1       2.386  16.262  20.068  0.00  0.00    +0.000 A 
ATOM     35  C   UNL     1       3.498  17.096  19.881  0.00  0.00    +0.000 A 
BRANCH  30  37
ATOM     36  C   UNL     1       6.803  16.987  19.225  0.00  0.00    +0.000 C 
ATOM     37  O   UNL     1       5.604  17.482  18.667  0.00  0.00    +0.000 OA
ENDBRANCH  30  37
ENDBRANCH  26  33
ENDBRANCH  23  27
ENDBRANCH   1  23
TORSDOF 6
ENDMDL
MODEL 4
REMARK VINA RESULT:      -8.2      2.924     11.465
REMARK  Name = 
REMARK  7 active torsions:
REMARK  status: ('A' for Active; 'I' for Inactive)
REMARK    1  A    between atoms: C_1  and  O_2
REMARK    2  A    between atoms: O_2  and  C_3
REMARK    3  A    between atoms: C_6  and  N_7
REMARK    4  A    between atoms: C_8  and  C_10
REMARK    5  A    between atoms: C_10  and  C_11
REMARK    6  A    between atoms: N_13  and  C_14
REMARK    7  A    between atoms: C_24  and  C_25
REMARK                            x       y       z     vdW  Elec       q    Type
REMARK                         _______ _______ _______ _____ _____    ______ ____
ROOT
ATOM      1  C   UNL     1      -0.320  11.277  19.634  0.00  0.00    +0.000 C 
ATOM      2  O   UNL     1      -1.334  10.791  19.143  0.00  0.00    +0.000 OA
ATOM      3  N   UNL     1       0.891  10.665  19.808  0.00  0.00    +0.000 N 
ATOM      4  H   UNL     1       1.580  11.174  20.348  0.00  0.00    +0.000 HD
ENDROOT
BRANCH   3   5
ATOM      5  C   UNL     1       1.322   9.464  19.205  0.00  0.00    +0.000 A 
ATOM      6  C   UNL     1       1.751   9.368  17.860  0.00  0.00    +0.000 A 
ATOM      7  C   UNL     1       2.429   8.233  17.381  0.00  0.00    +0.000 A 
ATOM      8  C   UNL     1       2.689   7.223  18.282  0.00  0.00    +0.000 A 
ATOM      9  C   UNL     1       2.182   7.302  19.590  0.00  0.00    +0.000 A 
ATOM     10  C   UNL     1       1.453   8.368  20.057  0.00  0.00    +0.000 A 
ATOM     11  N   UNL     1       2.663   6.259  20.380  0.00  0.00    +0.000 N 
ATOM     12  C   UNL     1       3.681   5.606  19.718  0.00  0.00    +0.000 C 
ATOM     13  O   UNL     1       4.607   4.992  20.205  0.00  0.00    +0.000 OA
ATOM     14  C   UNL     1       3.435   5.958  18.281  0.00  0.00    +0.000 C 
ATOM     15  C   UNL     1       3.192   5.001  17.368  0.00  0.00    +0.000 C 
ATOM     16  H   UNL     1       2.515   6.143  21.368  0.00  0.00    +0.000 HD
BRANCH  15  17
ATOM     17  C   UNL     1       3.057   3.646  17.783  0.00  0.00    +0.000 A 
ATOM     18  C   UNL     1       2.012   2.795  18.095  0.00  0.00    +0.000 A 
ATOM     19  C   UNL     1       2.560   1.517  18.371  0.00  0.00    +0.000 A 
ATOM     20  C   UNL     1       3.916   1.603  18.171  0.00  0.00    +0.000 A 
ATOM     21  N   UNL     1       4.199   2.877  17.755  0.00  0.00    +0.000 N 
ATOM     22  H   UNL     1       5.103   3.193  17.431  0.00  0.00    +0.000 HD
ENDBRANCH  15  17
ENDBRANCH   3   5
BRANCH   1  23
ATOM     23  C   UNL     1      -0.419  12.663  20.186  0.00  0.00    +0.000 C 
ATOM     24  C   UNL     1      -0.097  13.812  19.225  0.00  0.00    +0.000 C 
ATOM     25  C   UNL     1       0.853  13.496  20.334  0.00  0.00    +0.000 C 
BRANCH  23  27
ATOM     26  N   UNL     1      -2.792  12.761  20.536  0.00  0.00    +0.000 N 
ATOM     27  C   UNL     1      -1.554  12.891  21.133  0.00  0.00    +0.000 C 
ATOM     28  O   UNL     1      -1.300  13.141  22.302  0.00  0.00    +0.000 OA
ATOM     29  H   UNL     1      -2.799  12.489  19.556  0.00  0.00    +0.000 HD
BRANCH  26  33
ATOM     30  C   UNL     1      -6.600  13.000  22.333  0.00  0.00    +0.000 A 
ATOM     31  C   UNL     1      -5.480  13.438  23.032  0.00  0.00    +0.000 A 
ATOM     32  C   UNL     1      -4.212  13.383  22.450  0.00  0.00    +0.000 A 
ATOM     33  C   UNL     1      -4.050  12.874  21.164  0.00  0.00    +0.000 A 
ATOM     34  C   UNL     1      -5.175  12.436  20.459  0.00  0.00    +0.000 A 
ATOM     35  C   UNL     1      -6.448  12.488  21.044  0.00  0.00    +0.000 A 
BRANCH  30  37
ATOM     36  C   UNL     1      -7.696  13.571  24.345  0.00  0.00    +0.000 C 
ATOM     37  O   UNL     1      -7.786  13.097  23.019  0.00  0.00    +0.000 OA
ENDBRANCH  30  37
ENDBRANCH  26  33
ENDBRANCH  23  27
ENDBRANCH   1  23
TORSDOF 6
ENDMDL
MODEL 5
REMARK VINA RESULT:      -8.1      1.895      2.633
REMARK  Name = 
REMARK  7 active torsions:
REMARK  status: ('A' for Active; 'I' for Inactive)
REMARK    1  A    between atoms: C_1  and  O_2
REMARK    2  A    between atoms: O_2  and  C_3
REMARK    3  A    between atoms: C_6  and  N_7
REMARK    4  A    between atoms: C_8  and  C_10
REMARK    5  A    between atoms: C_10  and  C_11
REMARK    6  A    between atoms: N_13  and  C_14
REMARK    7  A    between atoms: C_24  and  C_25
REMARK                            x       y       z     vdW  Elec       q    Type
REMARK                         _______ _______ _______ _____ _____    ______ ____
ROOT
ATOM      1  C   UNL     1       2.061   5.212  20.086  0.00  0.00    +0.000 C 
ATOM      2  O   UNL     1       1.145   5.334  20.895  0.00  0.00    +0.000 OA
ATOM      3  N   UNL     1       2.481   6.133  19.167  0.00  0.00    +0.000 N 
ATOM      4  H   UNL     1       3.166   5.816  18.492  0.00  0.00    +0.000 HD
ENDROOT
BRANCH   3   5
ATOM      5  C   UNL     1       2.160   7.507  19.144  0.00  0.00    +0.000 A 
ATOM      6  C   UNL     1       2.039   8.268  17.957  0.00  0.00    +0.000 A 
ATOM      7  C   UNL     1       1.451   9.546  17.955  0.00  0.00    +0.000 A 
ATOM      8  C   UNL     1       0.966  10.021  19.155  0.00  0.00    +0.000 A 
ATOM      9  C   UNL     1       1.169   9.285  20.335  0.00  0.00    +0.000 A 
ATOM     10  C   UNL     1       1.808   8.070  20.369  0.00  0.00    +0.000 A 
ATOM     11  N   UNL     1       0.493   9.861  21.409  0.00  0.00    +0.000 N 
ATOM     12  C   UNL     1      -0.371  10.832  20.947  0.00  0.00    +0.000 C 
ATOM     13  O   UNL     1      -1.401  11.213  21.464  0.00  0.00    +0.000 OA
ATOM     14  C   UNL     1       0.201  11.189  19.608  0.00  0.00    +0.000 C 
ATOM     15  C   UNL     1       0.613  12.442  19.346  0.00  0.00    +0.000 C 
ATOM     16  H   UNL     1       0.411   9.478  22.335  0.00  0.00    +0.000 HD
BRANCH  15  17
ATOM     17  C   UNL     1       0.611  13.419  20.382  0.00  0.00    +0.000 A 
ATOM     18  C   UNL     1       1.543  13.962  21.247  0.00  0.00    +0.000 A 
ATOM     19  C   UNL     1       0.898  14.970  22.006  0.00  0.00    +0.000 A 
ATOM     20  C   UNL     1      -0.397  15.055  21.553  0.00  0.00    +0.000 A 
ATOM     21  N   UNL     1      -0.542  14.158  20.529  0.00  0.00    +0.000 N 
ATOM     22  H   UNL     1      -1.359  14.080  19.938  0.00  0.00    +0.000 HD
ENDBRANCH  15  17
ENDBRANCH   3   5
BRANCH   1  23
ATOM     23  C   UNL     1       2.752   3.888  20.026  0.00  0.00    +0.000 C 
ATOM     24  C   UNL     1       1.860   2.648  19.918  0.00  0.00    +0.000 C 
ATOM     25  C   UNL     1       2.593   2.913  21.192  0.00  0.00    +0.000 C 
BRANCH  23  27
ATOM     26  N   UNL     1       3.895   4.511  18.008  0.00  0.00    +0.000 N 
ATOM     27  C   UNL     1       4.015   3.866  19.224  0.00  0.00    +0.000 C 
ATOM     28  O   UNL     1       5.001   3.323  19.699  0.00  0.00    +0.000 OA
ATOM     29  H   UNL     1       3.002   4.955  17.815  0.00  0.00    +0.000 HD
BRANCH  26  33
ATOM     30  C   UNL     1       7.006   5.131  15.228  0.00  0.00    +0.000 A 
ATOM     31  C   UNL     1       6.083   4.112  15.014  0.00  0.00    +0.000 A 
ATOM     32  C   UNL     1       5.036   3.900  15.912  0.00  0.00    +0.000 A 
ATOM     33  C   UNL     1       4.910   4.698  17.047  0.00  0.00    +0.000 A 
ATOM     34  C   UNL     1       5.835   5.724  17.263  0.00  0.00    +0.000 A 
ATOM     35  C   UNL     1       6.888   5.936  16.362  0.00  0.00    +0.000 A 
BRANCH  30  37
ATOM     36  C   UNL     1       7.592   4.995  12.945  0.00  0.00    +0.000 C 
ATOM     37  O   UNL     1       7.992   5.230  14.279  0.00  0.00    +0.000 OA
ENDBRANCH  30  37
ENDBRANCH  26  33
ENDBRANCH  23  27
ENDBRANCH   1  23
TORSDOF 6
ENDMDL
MODEL 6
REMARK VINA RESULT:      -8.1      2.947     11.287
REMARK  Name = 
REMARK  7 active torsions:
REMARK  status: ('A' for Active; 'I' for Inactive)
REMARK    1  A    between atoms: C_1  and  O_2
REMARK    2  A    between atoms: O_2  and  C_3
REMARK    3  A    between atoms: C_6  and  N_7
REMARK    4  A    between atoms: C_8  and  C_10
REMARK    5  A    between atoms: C_10  and  C_11
REMARK    6  A    between atoms: N_13  and  C_14
REMARK    7  A    between atoms: C_24  and  C_25
REMARK                            x       y       z     vdW  Elec       q    Type
REMARK                         _______ _______ _______ _____ _____    ______ ____
ROOT
ATOM      1  C   UNL     1       0.105  11.940  19.646  0.00  0.00    +0.000 C 
ATOM      2  O   UNL     1      -0.670  11.893  18.695  0.00  0.00    +0.000 OA
ATOM      3  N   UNL     1       0.874  10.921  20.138  0.00  0.00    +0.000 N 
ATOM      4  H   UNL     1       1.358  11.101  21.009  0.00  0.00    +0.000 HD
ENDROOT
BRANCH   3   5
ATOM      5  C   UNL     1       1.167   9.700  19.493  0.00  0.00    +0.000 A 
ATOM      6  C   UNL     1       1.382   9.577  18.100  0.00  0.00    +0.000 A 
ATOM      7  C   UNL     1       1.941   8.414  17.539  0.00  0.00    +0.000 A 
ATOM      8  C   UNL     1       2.301   7.404  18.405  0.00  0.00    +0.000 A 
ATOM      9  C   UNL     1       2.003   7.513  19.773  0.00  0.00    +0.000 A 
ATOM     10  C   UNL     1       1.390   8.608  20.330  0.00  0.00    +0.000 A 
ATOM     11  N   UNL     1       2.563   6.460  20.495  0.00  0.00    +0.000 N 
ATOM     12  C   UNL     1       3.446   5.766  19.695  0.00  0.00    +0.000 C 
ATOM     13  O   UNL     1       4.415   5.123  20.044  0.00  0.00    +0.000 OA
ATOM     14  C   UNL     1       2.995   6.113  18.307  0.00  0.00    +0.000 C 
ATOM     15  C   UNL     1       2.583   5.158  17.456  0.00  0.00    +0.000 C 
ATOM     16  H   UNL     1       2.565   6.359  21.496  0.00  0.00    +0.000 HD
BRANCH  15  17
ATOM     17  C   UNL     1       2.468   3.812  17.906  0.00  0.00    +0.000 A 
ATOM     18  C   UNL     1       1.453   2.998  18.376  0.00  0.00    +0.000 A 
ATOM     19  C   UNL     1       1.996   1.706  18.591  0.00  0.00    +0.000 A 
ATOM     20  C   UNL     1       3.312   1.747  18.199  0.00  0.00    +0.000 A 
ATOM     21  N   UNL     1       3.570   3.006  17.728  0.00  0.00    +0.000 N 
ATOM     22  H   UNL     1       4.429   3.290  17.275  0.00  0.00    +0.000 HD
ENDBRANCH  15  17
ENDBRANCH   3   5
BRANCH   1  23
ATOM     23  C   UNL     1       0.168  13.217  20.419  0.00  0.00    +0.000 C 
ATOM     24  C   UNL     1       0.540  14.480  19.635  0.00  0.00    +0.000 C 
ATOM     25  C   UNL     1       1.520  13.905  20.606  0.00  0.00    +0.000 C 
BRANCH  23  27
ATOM     26  N   UNL     1      -2.135  12.975  21.051  0.00  0.00    +0.000 N 
ATOM     27  C   UNL     1      -0.883  13.378  21.471  0.00  0.00    +0.000 C 
ATOM     28  O   UNL     1      -0.555  13.811  22.566  0.00  0.00    +0.000 OA
ATOM     29  H   UNL     1      -2.197  12.583  20.115  0.00  0.00    +0.000 HD
BRANCH  26  33
ATOM     30  C   UNL     1      -5.617  13.013  23.431  0.00  0.00    +0.000 A 
ATOM     31  C   UNL     1      -5.720  12.776  22.064  0.00  0.00    +0.000 A 
ATOM     32  C   UNL     1      -4.578  12.742  21.260  0.00  0.00    +0.000 A 
ATOM     33  C   UNL     1      -3.320  12.962  21.816  0.00  0.00    +0.000 A 
ATOM     34  C   UNL     1      -3.215  13.197  23.190  0.00  0.00    +0.000 A 
ATOM     35  C   UNL     1      -4.361  13.233  23.997  0.00  0.00    +0.000 A 
BRANCH  30  37
ATOM     36  C   UNL     1      -7.916  12.474  23.426  0.00  0.00    +0.000 C 
ATOM     37  O   UNL     1      -6.812  13.030  24.107  0.00  0.00    +0.000 OA
ENDBRANCH  30  37
ENDBRANCH  26  33
ENDBRANCH  23  27
ENDBRANCH   1  23
TORSDOF 6
ENDMDL
MODEL 7
REMARK VINA RESULT:      -8.0      0.910      1.323
REMARK  Name = 
REMARK  7 active torsions:
REMARK  status: ('A' for Active; 'I' for Inactive)
REMARK    1  A    between atoms: C_1  and  O_2
REMARK    2  A    between atoms: O_2  and  C_3
REMARK    3  A    between atoms: C_6  and  N_7
REMARK    4  A    between atoms: C_8  and  C_10
REMARK    5  A    between atoms: C_10  and  C_11
REMARK    6  A    between atoms: N_13  and  C_14
REMARK    7  A    between atoms: C_24  and  C_25
REMARK                            x       y       z     vdW  Elec       q    Type
REMARK                         _______ _______ _______ _____ _____    ______ ____
ROOT
ATOM      1  C   UNL     1       1.974   7.434  19.697  0.00  0.00    +0.000 C 
ATOM      2  O   UNL     1       2.378   8.074  18.730  0.00  0.00    +0.000 OA
ATOM      3  N   UNL     1       1.403   7.929  20.837  0.00  0.00    +0.000 N 
ATOM      4  H   UNL     1       1.246   7.268  21.587  0.00  0.00    +0.000 HD
ENDROOT
BRANCH   3   5
ATOM      5  C   UNL     1       0.891   9.231  21.025  0.00  0.00    +0.000 A 
ATOM      6  C   UNL     1       0.837  10.212  20.006  0.00  0.00    +0.000 A 
ATOM      7  C   UNL     1       0.075  11.385  20.150  0.00  0.00    +0.000 A 
ATOM      8  C   UNL     1      -0.647  11.532  21.315  0.00  0.00    +0.000 A 
ATOM      9  C   UNL     1      -0.515  10.588  22.347  0.00  0.00    +0.000 A 
ATOM     10  C   UNL     1       0.282   9.473  22.256  0.00  0.00    +0.000 A 
ATOM     11  N   UNL     1      -1.421  10.838  23.376  0.00  0.00    +0.000 N 
ATOM     12  C   UNL     1      -2.339  11.782  22.968  0.00  0.00    +0.000 C 
ATOM     13  O   UNL     1      -3.480  11.924  23.359  0.00  0.00    +0.000 OA
ATOM     14  C   UNL     1      -1.634  12.482  21.845  0.00  0.00    +0.000 C 
ATOM     15  C   UNL     1      -1.375  13.800  21.907  0.00  0.00    +0.000 C 
ATOM     16  H   UNL     1      -1.582  10.258  24.182  0.00  0.00    +0.000 HD
BRANCH  15  17
ATOM     17  C   UNL     1      -1.675  14.524  23.097  0.00  0.00    +0.000 A 
ATOM     18  C   UNL     1      -1.069  14.726  24.323  0.00  0.00    +0.000 A 
ATOM     19  C   UNL     1      -1.870  15.635  25.059  0.00  0.00    +0.000 A 
ATOM     20  C   UNL     1      -2.916  16.005  24.249  0.00  0.00    +0.000 A 
ATOM     21  N   UNL     1      -2.754  15.377  23.043  0.00  0.00    +0.000 N 
ATOM     22  H   UNL     1      -3.317  15.549  22.220  0.00  0.00    +0.000 HD
ENDBRANCH  15  17
ENDBRANCH   3   5
BRANCH   1  23
ATOM     23  C   UNL     1       2.195   5.956  19.685  0.00  0.00    +0.000 C 
ATOM     24  C   UNL     1       1.225   5.106  20.512  0.00  0.00    +0.000 C 
ATOM     25  C   UNL     1       2.638   5.261  20.971  0.00  0.00    +0.000 C 
BRANCH  23  27
ATOM     26  N   UNL     1       3.953   5.585  18.093  0.00  0.00    +0.000 N 
ATOM     27  C   UNL     1       2.614   5.386  18.367  0.00  0.00    +0.000 C 
ATOM     28  O   UNL     1       1.781   4.804  17.688  0.00  0.00    +0.000 OA
ATOM     29  H   UNL     1       4.502   6.044  18.814  0.00  0.00    +0.000 HD
BRANCH  26  33
ATOM     30  C   UNL     1       6.121   4.362  14.688  0.00  0.00    +0.000 A 
ATOM     31  C   UNL     1       5.697   3.412  15.612  0.00  0.00    +0.000 A 
ATOM     32  C   UNL     1       4.964   3.793  16.737  0.00  0.00    +0.000 A 
ATOM     33  C   UNL     1       4.660   5.135  16.958  0.00  0.00    +0.000 A 
ATOM     34  C   UNL     1       5.083   6.090  16.029  0.00  0.00    +0.000 A 
ATOM     35  C   UNL     1       5.821   5.708  14.900  0.00  0.00    +0.000 A 
BRANCH  30  37
ATOM     36  C   UNL     1       6.088   3.438  12.515  0.00  0.00    +0.000 C 
ATOM     37  O   UNL     1       6.841   3.862  13.631  0.00  0.00    +0.000 OA
ENDBRANCH  30  37
ENDBRANCH  26  33
ENDBRANCH  23  27
ENDBRANCH   1  23
TORSDOF 6
ENDMDL
MODEL 8
REMARK VINA RESULT:      -7.9      3.945      9.847
REMARK  Name = 
REMARK  7 active torsions:
REMARK  status: ('A' for Active; 'I' for Inactive)
REMARK    1  A    between atoms: C_1  and  O_2
REMARK    2  A    between atoms: O_2  and  C_3
REMARK    3  A    between atoms: C_6  and  N_7
REMARK    4  A    between atoms: C_8  and  C_10
REMARK    5  A    between atoms: C_10  and  C_11
REMARK    6  A    between atoms: N_13  and  C_14
REMARK    7  A    between atoms: C_24  and  C_25
REMARK                            x       y       z     vdW  Elec       q    Type
REMARK                         _______ _______ _______ _____ _____    ______ ____
ROOT
ATOM      1  C   UNL     1      -0.431  11.169  20.091  0.00  0.00    +0.000 C 
ATOM      2  O   UNL     1      -1.378  10.841  19.381  0.00  0.00    +0.000 OA
ATOM      3  N   UNL     1       0.709  10.452  20.332  0.00  0.00    +0.000 N 
ATOM      4  H   UNL     1       1.328  10.817  21.046  0.00  0.00    +0.000 HD
ENDROOT
BRANCH   3   5
ATOM      5  C   UNL     1       1.174   9.338  19.601  0.00  0.00    +0.000 A 
ATOM      6  C   UNL     1       1.510   9.382  18.228  0.00  0.00    +0.000 A 
ATOM      7  C   UNL     1       2.226   8.341  17.609  0.00  0.00    +0.000 A 
ATOM      8  C   UNL     1       2.618   7.284  18.402  0.00  0.00    +0.000 A 
ATOM      9  C   UNL     1       2.203   7.221  19.743  0.00  0.00    +0.000 A 
ATOM     10  C   UNL     1       1.440   8.190  20.346  0.00  0.00    +0.000 A 
ATOM     11  N   UNL     1       2.809   6.155  20.407  0.00  0.00    +0.000 N 
ATOM     12  C   UNL     1       3.818   5.634  19.625  0.00  0.00    +0.000 C 
ATOM     13  O   UNL     1       4.816   5.051  19.995  0.00  0.00    +0.000 OA
ATOM     14  C   UNL     1       3.445   6.081  18.243  0.00  0.00    +0.000 C 
ATOM     15  C   UNL     1       3.200   5.185  17.270  0.00  0.00    +0.000 C 
ATOM     16  H   UNL     1       2.742   5.950  21.389  0.00  0.00    +0.000 HD
BRANCH  15  17
ATOM     17  C   UNL     1       3.187   3.795  17.577  0.00  0.00    +0.000 A 
ATOM     18  C   UNL     1       4.108   2.764  17.589  0.00  0.00    +0.000 A 
ATOM     19  C   UNL     1       3.456   1.602  18.072  0.00  0.00    +0.000 A 
ATOM     20  C   UNL     1       2.169   1.961  18.393  0.00  0.00    +0.000 A 
ATOM     21  N   UNL     1       2.035   3.302  18.149  0.00  0.00    +0.000 N 
ATOM     22  H   UNL     1       1.227   3.857  18.396  0.00  0.00    +0.000 HD
ENDBRANCH  15  17
ENDBRANCH   3   5
BRANCH   1  23
ATOM     23  C   UNL     1      -0.552  12.450  20.851  0.00  0.00    +0.000 C 
ATOM     24  C   UNL     1      -0.812  12.337  22.357  0.00  0.00    +0.000 C 
ATOM     25  C   UNL     1      -1.902  12.827  21.461  0.00  0.00    +0.000 C 
BRANCH  23  27
ATOM     26  N   UNL     1       1.684  13.102  20.270  0.00  0.00    +0.000 N 
ATOM     27  C   UNL     1       0.382  13.536  20.421  0.00  0.00    +0.000 C 
ATOM     28  O   UNL     1      -0.070  14.656  20.230  0.00  0.00    +0.000 OA
ATOM     29  H   UNL     1       1.853  12.111  20.421  0.00  0.00    +0.000 HD
BRANCH  26  33
ATOM     30  C   UNL     1       4.918  15.413  18.861  0.00  0.00    +0.000 A 
ATOM     31  C   UNL     1       4.707  15.286  20.230  0.00  0.00    +0.000 A 
ATOM     32  C   UNL     1       3.653  14.512  20.718  0.00  0.00    +0.000 A 
ATOM     33  C   UNL     1       2.786  13.868  19.838  0.00  0.00    +0.000 A 
ATOM     34  C   UNL     1       2.999  13.992  18.462  0.00  0.00    +0.000 A 
ATOM     35  C   UNL     1       4.056  14.771  17.971  0.00  0.00    +0.000 A 
BRANCH  30  37
ATOM     36  C   UNL     1       6.331  17.217  19.432  0.00  0.00    +0.000 C 
ATOM     37  O   UNL     1       5.981  16.208  18.509  0.00  0.00    +0.000 OA
ENDBRANCH  30  37
ENDBRANCH  26  33
ENDBRANCH  23  27
ENDBRANCH   1  23
TORSDOF 6
ENDMDL
MODEL 9
REMARK VINA RESULT:      -7.9      1.792      2.435
REMARK  Name = 
REMARK  7 active torsions:
REMARK  status: ('A' for Active; 'I' for Inactive)
REMARK    1  A    between atoms: C_1  and  O_2
REMARK    2  A    between atoms: O_2  and  C_3
REMARK    3  A    between atoms: C_6  and  N_7
REMARK    4  A    between atoms: C_8  and  C_10
REMARK    5  A    between atoms: C_10  and  C_11
REMARK    6  A    between atoms: N_13  and  C_14
REMARK    7  A    between atoms: C_24  and  C_25
REMARK                            x       y       z     vdW  Elec       q    Type
REMARK                         _______ _______ _______ _____ _____    ______ ____
ROOT
ATOM      1  C   UNL     1       1.963   6.963  20.120  0.00  0.00    +0.000 C 
ATOM      2  O   UNL     1       2.203   7.706  19.172  0.00  0.00    +0.000 OA
ATOM      3  N   UNL     1       1.310   7.285  21.278  0.00  0.00    +0.000 N 
ATOM      4  H   UNL     1       1.314   6.583  22.007  0.00  0.00    +0.000 HD
ENDROOT
BRANCH   3   5
ATOM      5  C   UNL     1       0.525   8.435  21.511  0.00  0.00    +0.000 A 
ATOM      6  C   UNL     1       0.569   9.190  22.706  0.00  0.00    +0.000 A 
ATOM      7  C   UNL     1      -0.009  10.469  22.793  0.00  0.00    +0.000 A 
ATOM      8  C   UNL     1      -0.599  10.976  21.655  0.00  0.00    +0.000 A 
ATOM      9  C   UNL     1      -0.705  10.177  20.504  0.00  0.00    +0.000 A 
ATOM     10  C   UNL     1      -0.213   8.898  20.422  0.00  0.00    +0.000 A 
ATOM     11  N   UNL     1      -1.205  10.909  19.428  0.00  0.00    +0.000 N 
ATOM     12  C   UNL     1      -1.213  12.251  19.743  0.00  0.00    +0.000 C 
ATOM     13  O   UNL     1      -1.136  13.192  18.979  0.00  0.00    +0.000 OA
ATOM     14  C   UNL     1      -1.200  12.251  21.243  0.00  0.00    +0.000 C 
ATOM     15  C   UNL     1      -2.202  12.812  21.941  0.00  0.00    +0.000 C 
ATOM     16  H   UNL     1      -1.292  10.588  18.479  0.00  0.00    +0.000 HD
BRANCH  15  17
ATOM     17  C   UNL     1      -3.344  13.318  21.257  0.00  0.00    +0.000 A 
ATOM     18  C   UNL     1      -4.440  12.780  20.606  0.00  0.00    +0.000 A 
ATOM     19  C   UNL     1      -5.270  13.852  20.194  0.00  0.00    +0.000 A 
ATOM     20  C   UNL     1      -4.692  15.013  20.646  0.00  0.00    +0.000 A 
ATOM     21  N   UNL     1      -3.562  14.675  21.342  0.00  0.00    +0.000 N 
ATOM     22  H   UNL     1      -2.996  15.321  21.876  0.00  0.00    +0.000 HD
ENDBRANCH  15  17
ENDBRANCH   3   5
BRANCH   1  23
ATOM     23  C   UNL     1       2.506   5.572  20.059  0.00  0.00    +0.000 C 
ATOM     24  C   UNL     1       1.483   4.435  19.978  0.00  0.00    +0.000 C 
ATOM     25  C   UNL     1       2.265   4.629  21.236  0.00  0.00    +0.000 C 
BRANCH  23  27
ATOM     26  N   UNL     1       3.486   5.341  17.879  0.00  0.00    +0.000 N 
ATOM     27  C   UNL     1       3.743   5.408  19.234  0.00  0.00    +0.000 C 
ATOM     28  O   UNL     1       4.825   5.370  19.802  0.00  0.00    +0.000 OA
ATOM     29  H   UNL     1       2.516   5.451  17.594  0.00  0.00    +0.000 HD
BRANCH  26  33
ATOM     30  C   UNL     1       6.366   5.132  14.805  0.00  0.00    +0.000 A 
ATOM     31  C   UNL     1       5.905   3.961  15.397  0.00  0.00    +0.000 A 
ATOM     32  C   UNL     1       4.940   4.006  16.405  0.00  0.00    +0.000 A 
ATOM     33  C   UNL     1       4.435   5.229  16.842  0.00  0.00    +0.000 A 
ATOM     34  C   UNL     1       4.895   6.406  16.245  0.00  0.00    +0.000 A 
ATOM     35  C   UNL     1       5.866   6.362  15.235  0.00  0.00    +0.000 A 
BRANCH  30  37
ATOM     36  C   UNL     1       6.931   4.182  12.718  0.00  0.00    +0.000 C 
ATOM     37  O   UNL     1       7.320   4.954  13.834  0.00  0.00    +0.000 OA
ENDBRANCH  30  37
ENDBRANCH  26  33
ENDBRANCH  23  27
ENDBRANCH   1  23
TORSDOF 6
ENDMDL
