MODEL 1
REMARK VINA RESULT:      -7.8      0.000      0.000
REMARK  Name = 
REMARK  2 active torsions:
REMARK  status: ('A' for Active; 'I' for Inactive)
REMARK    1  A    between atoms: C_2  and  C_4
REMARK    2  A    between atoms: C_8  and  C_10
REMARK                            x       y       z     vdW  Elec       q    Type
REMARK                         _______ _______ _______ _____ _____    ______ ____
ROOT
ATOM      1  C   UNL     1       2.645   2.799  17.310  0.00  0.00    +0.000 C 
ATOM      2  C   UNL     1       3.844   3.548  16.704  0.00  0.00    +0.000 C 
ATOM      3  C   UNL     1       4.340   4.695  17.589  0.00  0.00    +0.000 C 
ATOM      4  N   UNL     1       3.246   5.565  18.030  0.00  0.00    +0.000 N 
ATOM      5  C   UNL     1       3.430   6.957  17.985  0.00  0.00    +0.000 C 
ATOM      6  O   UNL     1       4.405   7.479  17.449  0.00  0.00    +0.000 OA
ATOM      7  C   UNL     1       2.086   4.874  18.593  0.00  0.00    +0.000 C 
ATOM      8  C   UNL     1       1.552   3.818  17.635  0.00  0.00    +0.000 C 
ENDROOT
BRANCH   5   9
ATOM      9  C   UNL     1       2.393   7.864  18.558  0.00  0.00    +0.000 A 
ATOM     10  C   UNL     1       1.704   8.793  17.760  0.00  0.00    +0.000 A 
ATOM     11  C   UNL     1       0.880   9.762  18.336  0.00  0.00    +0.000 A 
ATOM     12  C   UNL     1       0.650   9.691  19.696  0.00  0.00    +0.000 A 
ATOM     13  C   UNL     1       1.219   8.681  20.479  0.00  0.00    +0.000 A 
ATOM     14  C   UNL     1       2.114   7.772  19.932  0.00  0.00    +0.000 A 
ATOM     15  C   UNL     1       0.749   8.787  21.897  0.00  0.00    +0.000 C 
ATOM     16  C   UNL     1      -0.474   9.704  21.732  0.00  0.00    +0.000 C 
ATOM     17  C   UNL     1      -0.174  10.615  20.534  0.00  0.00    +0.000 C 
ENDBRANCH   5   9
BRANCH   1  19
ATOM     18  N   UNL     1       4.106   1.267  18.565  0.00  0.00    +0.000 N 
ATOM     19  C   UNL     1       2.941   1.966  18.552  0.00  0.00    +0.000 C 
ATOM     20  O   UNL     1       2.165   1.847  19.499  0.00  0.00    +0.000 OA
ATOM     21  H   UNL     1       4.258   0.657  19.359  0.00  0.00    +0.000 HD
ATOM     22  H   UNL     1       4.684   1.130  17.747  0.00  0.00    +0.000 HD
ENDBRANCH   1  19
TORSDOF 2
ENDMDL
MODEL 2
REMARK VINA RESULT:      -7.6      3.530      5.271
REMARK  Name = 
REMARK  2 active torsions:
REMARK  status: ('A' for Active; 'I' for Inactive)
REMARK    1  A    between atoms: C_2  and  C_4
REMARK    2  A    between atoms: C_8  and  C_10
REMARK                            x       y       z     vdW  Elec       q    Type
REMARK                         _______ _______ _______ _____ _____    ______ ____
ROOT
ATOM      1  C   UNL     1       0.957   3.388  20.638  0.00  0.00    +0.000 C 
ATOM      2  C   UNL     1       0.921   2.624  19.303  0.00  0.00    +0.000 C 
ATOM      3  C   UNL     1       2.312   2.394  18.709  0.00  0.00    +0.000 C 
ATOM      4  N   UNL     1       3.111   3.622  18.680  0.00  0.00    +0.000 N 
ATOM      5  C   UNL     1       3.850   3.920  17.522  0.00  0.00    +0.000 C 
ATOM      6  O   UNL     1       3.736   3.277  16.481  0.00  0.00    +0.000 OA
ATOM      7  C   UNL     1       3.146   4.376  19.932  0.00  0.00    +0.000 C 
ATOM      8  C   UNL     1       1.741   4.685  20.433  0.00  0.00    +0.000 C 
ENDROOT
BRANCH   5   9
ATOM      9  C   UNL     1       4.781   5.085  17.512  0.00  0.00    +0.000 A 
ATOM     10  C   UNL     1       4.527   6.225  16.730  0.00  0.00    +0.000 A 
ATOM     11  C   UNL     1       5.493   7.222  16.580  0.00  0.00    +0.000 A 
ATOM     12  C   UNL     1       6.645   7.126  17.335  0.00  0.00    +0.000 A 
ATOM     13  C   UNL     1       6.845   6.067  18.227  0.00  0.00    +0.000 A 
ATOM     14  C   UNL     1       5.935   5.023  18.311  0.00  0.00    +0.000 A 
ATOM     15  C   UNL     1       8.132   6.244  18.973  0.00  0.00    +0.000 C 
ATOM     16  C   UNL     1       8.420   7.730  18.711  0.00  0.00    +0.000 C 
ATOM     17  C   UNL     1       7.818   8.052  17.337  0.00  0.00    +0.000 C 
ENDBRANCH   5   9
BRANCH   1  19
ATOM     18  N   UNL     1       0.670   2.151  22.746  0.00  0.00    +0.000 N 
ATOM     19  C   UNL     1       1.544   2.628  21.822  0.00  0.00    +0.000 C 
ATOM     20  O   UNL     1       2.751   2.481  22.012  0.00  0.00    +0.000 OA
ATOM     21  H   UNL     1       1.074   1.715  23.567  0.00  0.00    +0.000 HD
ATOM     22  H   UNL     1      -0.304   2.419  22.785  0.00  0.00    +0.000 HD
ENDBRANCH   1  19
TORSDOF 2
ENDMDL
MODEL 3
REMARK VINA RESULT:      -7.6      2.338      3.385
REMARK  Name = 
REMARK  2 active torsions:
REMARK  status: ('A' for Active; 'I' for Inactive)
REMARK    1  A    between atoms: C_2  and  C_4
REMARK    2  A    between atoms: C_8  and  C_10
REMARK                            x       y       z     vdW  Elec       q    Type
REMARK                         _______ _______ _______ _____ _____    ______ ____
ROOT
ATOM      1  C   UNL     1       7.134   5.444  17.059  0.00  0.00    +0.000 C 
ATOM      2  C   UNL     1       6.747   4.547  18.248  0.00  0.00    +0.000 C 
ATOM      3  C   UNL     1       5.235   4.344  18.375  0.00  0.00    +0.000 C 
ATOM      4  N   UNL     1       4.500   5.610  18.310  0.00  0.00    +0.000 N 
ATOM      5  C   UNL     1       3.457   5.833  19.226  0.00  0.00    +0.000 C 
ATOM      6  O   UNL     1       3.236   5.082  20.172  0.00  0.00    +0.000 OA
ATOM      7  C   UNL     1       4.864   6.488  17.199  0.00  0.00    +0.000 C 
ATOM      8  C   UNL     1       6.362   6.759  17.174  0.00  0.00    +0.000 C 
ENDROOT
BRANCH   5   9
ATOM      9  C   UNL     1       2.600   7.047  19.096  0.00  0.00    +0.000 A 
ATOM     10  C   UNL     1       2.442   7.710  17.866  0.00  0.00    +0.000 A 
ATOM     11  C   UNL     1       1.798   8.946  17.796  0.00  0.00    +0.000 A 
ATOM     12  C   UNL     1       1.196   9.429  18.941  0.00  0.00    +0.000 A 
ATOM     13  C   UNL     1       1.225   8.707  20.139  0.00  0.00    +0.000 A 
ATOM     14  C   UNL     1       1.944   7.525  20.243  0.00  0.00    +0.000 A 
ATOM     15  C   UNL     1       0.436   9.414  21.197  0.00  0.00    +0.000 C 
ATOM     16  C   UNL     1      -0.389  10.391  20.345  0.00  0.00    +0.000 C 
ATOM     17  C   UNL     1       0.468  10.723  19.116  0.00  0.00    +0.000 C 
ENDBRANCH   5   9
BRANCH   1  19
ATOM     18  N   UNL     1       7.439   5.513  14.618  0.00  0.00    +0.000 N 
ATOM     19  C   UNL     1       6.906   4.846  15.676  0.00  0.00    +0.000 C 
ATOM     20  O   UNL     1       6.224   3.844  15.464  0.00  0.00    +0.000 OA
ATOM     21  H   UNL     1       7.218   5.151  13.698  0.00  0.00    +0.000 HD
ATOM     22  H   UNL     1       7.813   6.450  14.680  0.00  0.00    +0.000 HD
ENDBRANCH   1  19
TORSDOF 2
ENDMDL
MODEL 4
REMARK VINA RESULT:      -7.5      3.359      6.892
REMARK  Name = 
REMARK  2 active torsions:
REMARK  status: ('A' for Active; 'I' for Inactive)
REMARK    1  A    between atoms: C_2  and  C_4
REMARK    2  A    between atoms: C_8  and  C_10
REMARK                            x       y       z     vdW  Elec       q    Type
REMARK                         _______ _______ _______ _____ _____    ______ ____
ROOT
ATOM      1  C   UNL     1       3.143   3.307  20.108  0.00  0.00    +0.000 C 
ATOM      2  C   UNL     1       3.195   4.844  20.160  0.00  0.00    +0.000 C 
ATOM      3  C   UNL     1       3.015   5.494  18.786  0.00  0.00    +0.000 C 
ATOM      4  N   UNL     1       3.888   4.896  17.773  0.00  0.00    +0.000 N 
ATOM      5  C   UNL     1       4.572   5.743  16.885  0.00  0.00    +0.000 C 
ATOM      6  O   UNL     1       4.591   6.965  17.019  0.00  0.00    +0.000 OA
ATOM      7  C   UNL     1       3.871   3.434  17.716  0.00  0.00    +0.000 C 
ATOM      8  C   UNL     1       4.166   2.824  19.079  0.00  0.00    +0.000 C 
ENDROOT
BRANCH   5   9
ATOM      9  C   UNL     1       5.355   5.163  15.756  0.00  0.00    +0.000 A 
ATOM     10  C   UNL     1       6.760   5.212  15.731  0.00  0.00    +0.000 A 
ATOM     11  C   UNL     1       7.470   4.841  14.588  0.00  0.00    +0.000 A 
ATOM     12  C   UNL     1       6.763   4.290  13.537  0.00  0.00    +0.000 A 
ATOM     13  C   UNL     1       5.378   4.103  13.608  0.00  0.00    +0.000 A 
ATOM     14  C   UNL     1       4.653   4.557  14.701  0.00  0.00    +0.000 A 
ATOM     15  C   UNL     1       4.876   3.420  12.374  0.00  0.00    +0.000 C 
ATOM     16  C   UNL     1       6.185   2.862  11.795  0.00  0.00    +0.000 C 
ATOM     17  C   UNL     1       7.295   3.834  12.216  0.00  0.00    +0.000 C 
ENDBRANCH   5   9
BRANCH   1  19
ATOM     18  N   UNL     1       0.711   3.187  20.466  0.00  0.00    +0.000 N 
ATOM     19  C   UNL     1       1.783   2.699  19.787  0.00  0.00    +0.000 C 
ATOM     20  O   UNL     1       1.616   1.764  19.006  0.00  0.00    +0.000 OA
ATOM     21  H   UNL     1      -0.175   2.725  20.303  0.00  0.00    +0.000 HD
ATOM     22  H   UNL     1       0.789   3.787  21.276  0.00  0.00    +0.000 HD
ENDBRANCH   1  19
TORSDOF 2
ENDMDL
MODEL 5
REMARK VINA RESULT:      -7.5      1.608      1.913
REMARK  Name = 
REMARK  2 active torsions:
REMARK  status: ('A' for Active; 'I' for Inactive)
REMARK    1  A    between atoms: C_2  and  C_4
REMARK    2  A    between atoms: C_8  and  C_10
REMARK                            x       y       z     vdW  Elec       q    Type
REMARK                         _______ _______ _______ _____ _____    ______ ____
ROOT
ATOM      1  C   UNL     1       2.066   3.212  19.734  0.00  0.00    +0.000 C 
ATOM      2  C   UNL     1       2.853   3.802  18.551  0.00  0.00    +0.000 C 
ATOM      3  C   UNL     1       3.464   5.170  18.864  0.00  0.00    +0.000 C 
ATOM      4  N   UNL     1       2.489   6.088  19.458  0.00  0.00    +0.000 N 
ATOM      5  C   UNL     1       2.446   7.417  19.001  0.00  0.00    +0.000 C 
ATOM      6  O   UNL     1       3.083   7.800  18.022  0.00  0.00    +0.000 OA
ATOM      7  C   UNL     1       1.715   5.544  20.573  0.00  0.00    +0.000 C 
ATOM      8  C   UNL     1       1.029   4.241  20.187  0.00  0.00    +0.000 C 
ENDROOT
BRANCH   5   9
ATOM      9  C   UNL     1       1.566   8.410  19.680  0.00  0.00    +0.000 A 
ATOM     10  C   UNL     1       0.949   9.456  18.971  0.00  0.00    +0.000 A 
ATOM     11  C   UNL     1       0.287  10.485  19.643  0.00  0.00    +0.000 A 
ATOM     12  C   UNL     1       0.132  10.371  21.010  0.00  0.00    +0.000 A 
ATOM     13  C   UNL     1       0.618   9.260  21.709  0.00  0.00    +0.000 A 
ATOM     14  C   UNL     1       1.360   8.281  21.065  0.00  0.00    +0.000 A 
ATOM     15  C   UNL     1       0.250   9.349  23.158  0.00  0.00    +0.000 C 
ATOM     16  C   UNL     1      -0.858  10.413  23.115  0.00  0.00    +0.000 C 
ATOM     17  C   UNL     1      -0.521  11.342  21.942  0.00  0.00    +0.000 C 
ENDBRANCH   5   9
BRANCH   1  19
ATOM     18  N   UNL     1       4.146   2.299  20.682  0.00  0.00    +0.000 N 
ATOM     19  C   UNL     1       2.899   2.777  20.934  0.00  0.00    +0.000 C 
ATOM     20  O   UNL     1       2.485   2.778  22.093  0.00  0.00    +0.000 OA
ATOM     21  H   UNL     1       4.661   1.941  21.477  0.00  0.00    +0.000 HD
ATOM     22  H   UNL     1       4.474   2.056  19.757  0.00  0.00    +0.000 HD
ENDBRANCH   1  19
TORSDOF 2
ENDMDL
MODEL 6
REMARK VINA RESULT:      -7.5      1.813      1.985
REMARK  Name = 
REMARK  2 active torsions:
REMARK  status: ('A' for Active; 'I' for Inactive)
REMARK    1  A    between atoms: C_2  and  C_4
REMARK    2  A    between atoms: C_8  and  C_10
REMARK                            x       y       z     vdW  Elec       q    Type
REMARK                         _______ _______ _______ _____ _____    ______ ____
ROOT
ATOM      1  C   UNL     1       1.865   2.597  20.044  0.00  0.00    +0.000 C 
ATOM      2  C   UNL     1       3.067   2.837  19.114  0.00  0.00    +0.000 C 
ATOM      3  C   UNL     1       3.762   4.175  19.371  0.00  0.00    +0.000 C 
ATOM      4  N   UNL     1       2.812   5.290  19.428  0.00  0.00    +0.000 N 
ATOM      5  C   UNL     1       3.131   6.484  18.758  0.00  0.00    +0.000 C 
ATOM      6  O   UNL     1       4.095   6.582  18.002  0.00  0.00    +0.000 OA
ATOM      7  C   UNL     1       1.651   5.079  20.291  0.00  0.00    +0.000 C 
ATOM      8  C   UNL     1       0.919   3.794  19.930  0.00  0.00    +0.000 C 
ENDROOT
BRANCH   5   9
ATOM      9  C   UNL     1       2.255   7.681  18.913  0.00  0.00    +0.000 A 
ATOM     10  C   UNL     1       1.895   8.479  17.813  0.00  0.00    +0.000 A 
ATOM     11  C   UNL     1       1.238   9.697  17.995  0.00  0.00    +0.000 A 
ATOM     12  C   UNL     1       0.825  10.026  19.271  0.00  0.00    +0.000 A 
ATOM     13  C   UNL     1       1.052   9.169  20.354  0.00  0.00    +0.000 A 
ATOM     14  C   UNL     1       1.788   8.003  20.199  0.00  0.00    +0.000 A 
ATOM     15  C   UNL     1       0.439   9.725  21.601  0.00  0.00    +0.000 C 
ATOM     16  C   UNL     1      -0.521  10.773  21.015  0.00  0.00    +0.000 C 
ATOM     17  C   UNL     1       0.124  11.270  19.715  0.00  0.00    +0.000 C 
ENDBRANCH   5   9
BRANCH   1  19
ATOM     18  N   UNL     1       1.170   2.422  22.398  0.00  0.00    +0.000 N 
ATOM     19  C   UNL     1       2.198   2.359  21.512  0.00  0.00    +0.000 C 
ATOM     20  O   UNL     1       3.338   2.176  21.936  0.00  0.00    +0.000 OA
ATOM     21  H   UNL     1       1.413   2.339  23.378  0.00  0.00    +0.000 HD
ATOM     22  H   UNL     1       0.255   2.786  22.167  0.00  0.00    +0.000 HD
ENDBRANCH   1  19
TORSDOF 2
ENDMDL
MODEL 7
REMARK VINA RESULT:      -7.4      2.628      7.022
REMARK  Name = 
REMARK  2 active torsions:
REMARK  status: ('A' for Active; 'I' for Inactive)
REMARK    1  A    between atoms: C_2  and  C_4
REMARK    2  A    between atoms: C_8  and  C_10
REMARK                            x       y       z     vdW  Elec       q    Type
REMARK                         _______ _______ _______ _____ _____    ______ ____
ROOT
ATOM      1  C   UNL     1       0.367  10.138  19.028  0.00  0.00    +0.000 C 
ATOM      2  C   UNL     1       0.164   9.250  20.268  0.00  0.00    +0.000 C 
ATOM      3  C   UNL     1       1.422   8.469  20.654  0.00  0.00    +0.000 C 
ATOM      4  N   UNL     1       2.017   7.777  19.507  0.00  0.00    +0.000 N 
ATOM      5  C   UNL     1       2.453   6.451  19.670  0.00  0.00    +0.000 C 
ATOM      6  O   UNL     1       2.218   5.797  20.684  0.00  0.00    +0.000 OA
ATOM      7  C   UNL     1       2.203   8.595  18.310  0.00  0.00    +0.000 C 
ATOM      8  C   UNL     1       0.902   9.267  17.890  0.00  0.00    +0.000 C 
ENDROOT
BRANCH   5   9
ATOM      9  C   UNL     1       3.188   5.768  18.567  0.00  0.00    +0.000 A 
ATOM     10  C   UNL     1       2.643   4.663  17.891  0.00  0.00    +0.000 A 
ATOM     11  C   UNL     1       3.414   3.917  16.997  0.00  0.00    +0.000 A 
ATOM     12  C   UNL     1       4.678   4.380  16.689  0.00  0.00    +0.000 A 
ATOM     13  C   UNL     1       5.178   5.561  17.249  0.00  0.00    +0.000 A 
ATOM     14  C   UNL     1       4.457   6.256  18.210  0.00  0.00    +0.000 A 
ATOM     15  C   UNL     1       6.531   5.876  16.691  0.00  0.00    +0.000 C 
ATOM     16  C   UNL     1       6.552   4.975  15.446  0.00  0.00    +0.000 C 
ATOM     17  C   UNL     1       5.687   3.753  15.782  0.00  0.00    +0.000 C 
ENDBRANCH   5   9
BRANCH   1  19
ATOM     18  N   UNL     1       1.890  11.837  18.103  0.00  0.00    +0.000 N 
ATOM     19  C   UNL     1       1.286  11.340  19.215  0.00  0.00    +0.000 C 
ATOM     20  O   UNL     1       1.555  11.835  20.308  0.00  0.00    +0.000 OA
ATOM     21  H   UNL     1       2.557  12.585  18.247  0.00  0.00    +0.000 HD
ATOM     22  H   UNL     1       1.903  11.356  17.213  0.00  0.00    +0.000 HD
ENDBRANCH   1  19
TORSDOF 2
ENDMDL
MODEL 8
REMARK VINA RESULT:      -7.3      3.966      6.729
REMARK  Name = 
REMARK  2 active torsions:
REMARK  status: ('A' for Active; 'I' for Inactive)
REMARK    1  A    between atoms: C_2  and  C_4
REMARK    2  A    between atoms: C_8  and  C_10
REMARK                            x       y       z     vdW  Elec       q    Type
REMARK                         _______ _______ _______ _____ _____    ______ ____
ROOT
ATOM      1  C   UNL     1       2.481   2.239  19.671  0.00  0.00    +0.000 C 
ATOM      2  C   UNL     1       3.227   3.317  20.476  0.00  0.00    +0.000 C 
ATOM      3  C   UNL     1       3.556   4.560  19.647  0.00  0.00    +0.000 C 
ATOM      4  N   UNL     1       4.186   4.220  18.368  0.00  0.00    +0.000 N 
ATOM      5  C   UNL     1       5.298   4.967  17.943  0.00  0.00    +0.000 C 
ATOM      6  O   UNL     1       5.858   5.788  18.664  0.00  0.00    +0.000 OA
ATOM      7  C   UNL     1       3.506   3.184  17.592  0.00  0.00    +0.000 C 
ATOM      8  C   UNL     1       3.297   1.921  18.417  0.00  0.00    +0.000 C 
ENDROOT
BRANCH   5   9
ATOM      9  C   UNL     1       5.872   4.739  16.585  0.00  0.00    +0.000 A 
ATOM     10  C   UNL     1       7.219   5.022  16.297  0.00  0.00    +0.000 A 
ATOM     11  C   UNL     1       7.694   4.988  14.985  0.00  0.00    +0.000 A 
ATOM     12  C   UNL     1       6.842   4.530  13.999  0.00  0.00    +0.000 A 
ATOM     13  C   UNL     1       5.542   4.110  14.298  0.00  0.00    +0.000 A 
ATOM     14  C   UNL     1       5.030   4.231  15.582  0.00  0.00    +0.000 A 
ATOM     15  C   UNL     1       4.862   3.591  13.069  0.00  0.00    +0.000 C 
ATOM     16  C   UNL     1       6.066   3.370  12.139  0.00  0.00    +0.000 C 
ATOM     17  C   UNL     1       7.115   4.418  12.533  0.00  0.00    +0.000 C 
ENDBRANCH   5   9
BRANCH   1  19
ATOM     18  N   UNL     1       0.348   3.387  20.105  0.00  0.00    +0.000 N 
ATOM     19  C   UNL     1       1.052   2.582  19.267  0.00  0.00    +0.000 C 
ATOM     20  O   UNL     1       0.492   2.125  18.271  0.00  0.00    +0.000 OA
ATOM     21  H   UNL     1      -0.623   3.546  19.868  0.00  0.00    +0.000 HD
ATOM     22  H   UNL     1       0.650   3.618  21.042  0.00  0.00    +0.000 HD
ENDBRANCH   1  19
TORSDOF 2
ENDMDL
MODEL 9
REMARK VINA RESULT:      -7.3      1.264      1.453
REMARK  Name = 
REMARK  2 active torsions:
REMARK  status: ('A' for Active; 'I' for Inactive)
REMARK    1  A    between atoms: C_2  and  C_4
REMARK    2  A    between atoms: C_8  and  C_10
REMARK                            x       y       z     vdW  Elec       q    Type
REMARK                         _______ _______ _______ _____ _____    ______ ____
ROOT
ATOM      1  C   UNL     1       2.914   3.621  18.413  0.00  0.00    +0.000 C 
ATOM      2  C   UNL     1       3.495   4.473  17.272  0.00  0.00    +0.000 C 
ATOM      3  C   UNL     1       3.905   5.876  17.725  0.00  0.00    +0.000 C 
ATOM      4  N   UNL     1       2.849   6.539  18.494  0.00  0.00    +0.000 N 
ATOM      5  C   UNL     1       2.558   7.887  18.220  0.00  0.00    +0.000 C 
ATOM      6  O   UNL     1       3.041   8.487  17.263  0.00  0.00    +0.000 OA
ATOM      7  C   UNL     1       2.266   5.742  19.573  0.00  0.00    +0.000 C 
ATOM      8  C   UNL     1       1.767   4.398  19.061  0.00  0.00    +0.000 C 
ENDROOT
BRANCH   5   9
ATOM      9  C   UNL     1       1.589   8.628  19.079  0.00  0.00    +0.000 A 
ATOM     10  C   UNL     1       0.613   9.476  18.526  0.00  0.00    +0.000 A 
ATOM     11  C   UNL     1      -0.158  10.308  19.340  0.00  0.00    +0.000 A 
ATOM     12  C   UNL     1      -0.034  10.170  20.709  0.00  0.00    +0.000 A 
ATOM     13  C   UNL     1       0.834   9.227  21.271  0.00  0.00    +0.000 A 
ATOM     14  C   UNL     1       1.673   8.464  20.472  0.00  0.00    +0.000 A 
ATOM     15  C   UNL     1       0.719   9.232  22.764  0.00  0.00    +0.000 C 
ATOM     16  C   UNL     1      -0.612   9.977  22.953  0.00  0.00    +0.000 C 
ATOM     17  C   UNL     1      -0.734  10.951  21.774  0.00  0.00    +0.000 C 
ENDBRANCH   5   9
BRANCH   1  19
ATOM     18  N   UNL     1       5.224   3.272  19.187  0.00  0.00    +0.000 N 
ATOM     19  C   UNL     1       3.902   3.191  19.491  0.00  0.00    +0.000 C 
ATOM     20  O   UNL     1       3.570   2.725  20.580  0.00  0.00    +0.000 OA
ATOM     21  H   UNL     1       5.869   2.912  19.879  0.00  0.00    +0.000 HD
ATOM     22  H   UNL     1       5.573   3.425  18.250  0.00  0.00    +0.000 HD
ENDBRANCH   1  19
TORSDOF 2
ENDMDL
