MODEL 1
REMARK VINA RESULT:      -8.1      0.000      0.000
REMARK  Name = 
REMARK  6 active torsions:
REMARK  status: ('A' for Active; 'I' for Inactive)
REMARK    1  A    between atoms: C_2  and  C_3
REMARK    2  A    between atoms: C_3  and  C_25
REMARK    3  A    between atoms: C_4  and  C_5
REMARK    4  A    between atoms: C_8  and  N_9
REMARK    5  A    between atoms: N_12  and  C_13
REMARK    6  A    between atoms: C_13  and  C_14
REMARK                            x       y       z     vdW  Elec       q    Type
REMARK                         _______ _______ _______ _____ _____    ______ ____
ROOT
ATOM      1  C   UNL     1       0.698   9.206  19.758  0.00  0.00    +0.000 A 
ATOM      2  C   UNL     1       1.286   8.232  20.562  0.00  0.00    +0.000 A 
ATOM      3  C   UNL     1       2.229   7.364  20.015  0.00  0.00    +0.000 A 
ATOM      4  C   UNL     1       2.603   7.440  18.666  0.00  0.00    +0.000 A 
ATOM      5  C   UNL     1       2.007   8.440  17.885  0.00  0.00    +0.000 A 
ATOM      6  C   UNL     1       1.064   9.318  18.421  0.00  0.00    +0.000 A 
ENDROOT
BRANCH   4   7
ATOM      7  N   UNL     1       3.518   6.549  18.142  0.00  0.00    +0.000 N 
ATOM      8  C   UNL     1       4.110   6.725  16.808  0.00  0.00    +0.000 C 
ATOM      9  C   UNL     1       5.655   6.786  16.871  0.00  0.00    +0.000 C 
ATOM     10  N   UNL     1       6.296   5.696  17.654  0.00  0.00    +0.000 NA
ATOM     11  C   UNL     1       5.688   5.721  19.008  0.00  0.00    +0.000 C 
ATOM     12  C   UNL     1       4.151   5.565  19.035  0.00  0.00    +0.000 C 
BRANCH  10  13
ATOM     13  C   UNL     1       6.105   4.407  16.964  0.00  0.00    +0.000 C 
BRANCH  13  14
ATOM     14  C   UNL     1       6.406   4.429  15.480  0.00  0.00    +0.000 A 
ATOM     15  C   UNL     1       7.543   5.102  15.002  0.00  0.00    +0.000 A 
ATOM     16  C   UNL     1       7.847   5.102  13.641  0.00  0.00    +0.000 A 
ATOM     17  C   UNL     1       7.016   4.426  12.757  0.00  0.00    +0.000 A 
ATOM     18  F   UNL     1       7.312   4.416  11.452  0.00  0.00    +0.000 F 
ATOM     19  C   UNL     1       5.885   3.755  13.208  0.00  0.00    +0.000 A 
ATOM     20  C   UNL     1       5.577   3.756  14.570  0.00  0.00    +0.000 A 
ENDBRANCH  13  14
ENDBRANCH  10  13
ENDBRANCH   4   7
BRANCH   1  22
ATOM     21  C   UNL     1      -0.216  11.408  20.555  0.00  0.00    +0.000 C 
ATOM     22  C   UNL     1      -0.328  10.077  20.319  0.00  0.00    +0.000 C 
BRANCH  21  23
ATOM     23  C   UNL     1      -1.356  11.960  21.211  0.00  0.00    +0.000 A 
ATOM     24  N   UNL     1      -1.541  11.988  22.524  0.00  0.00    +0.000 NA
ATOM     25  C   UNL     1      -2.794  12.457  22.744  0.00  0.00    +0.000 A 
ATOM     26  C   UNL     1      -3.475  12.604  23.957  0.00  0.00    +0.000 A 
ATOM     27  C   UNL     1      -4.788  13.071  23.928  0.00  0.00    +0.000 A 
ATOM     28  C   UNL     1      -5.393  13.395  22.711  0.00  0.00    +0.000 A 
ATOM     29  C   UNL     1      -4.714  13.269  21.486  0.00  0.00    +0.000 A 
ATOM     30  C   UNL     1      -3.405  12.783  21.539  0.00  0.00    +0.000 A 
ATOM     31  N   UNL     1      -2.449  12.501  20.577  0.00  0.00    +0.000 N 
ATOM     32  H   UNL     1      -2.565  12.629  19.581  0.00  0.00    +0.000 HD
ENDBRANCH  21  23
BRANCH  21  34
ATOM     33  N   UNL     1       2.204  12.562  19.816  0.00  0.00    +0.000 NA
ATOM     34  C   UNL     1       1.107  12.039  20.151  0.00  0.00    +0.000 C 
ENDBRANCH  21  34
ENDBRANCH   1  22
TORSDOF 6
ENDMDL
MODEL 2
REMARK VINA RESULT:      -8.0      1.819      2.760
REMARK  Name = 
REMARK  6 active torsions:
REMARK  status: ('A' for Active; 'I' for Inactive)
REMARK    1  A    between atoms: C_2  and  C_3
REMARK    2  A    between atoms: C_3  and  C_25
REMARK    3  A    between atoms: C_4  and  C_5
REMARK    4  A    between atoms: C_8  and  N_9
REMARK    5  A    between atoms: N_12  and  C_13
REMARK    6  A    between atoms: C_13  and  C_14
REMARK                            x       y       z     vdW  Elec       q    Type
REMARK                         _______ _______ _______ _____ _____    ______ ____
ROOT
ATOM      1  C   UNL     1      -0.245  10.465  21.129  0.00  0.00    +0.000 A 
ATOM      2  C   UNL     1       0.231   9.577  22.092  0.00  0.00    +0.000 A 
ATOM      3  C   UNL     1       1.040   8.510  21.705  0.00  0.00    +0.000 A 
ATOM      4  C   UNL     1       1.390   8.302  20.363  0.00  0.00    +0.000 A 
ATOM      5  C   UNL     1       0.910   9.220  19.419  0.00  0.00    +0.000 A 
ATOM      6  C   UNL     1       0.101  10.294  19.793  0.00  0.00    +0.000 A 
ENDROOT
BRANCH   4   7
ATOM      7  N   UNL     1       2.169   7.220  20.003  0.00  0.00    +0.000 N 
ATOM      8  C   UNL     1       2.106   5.936  20.716  0.00  0.00    +0.000 C 
ATOM      9  C   UNL     1       1.748   4.769  19.765  0.00  0.00    +0.000 C 
ATOM     10  N   UNL     1       2.556   4.705  18.518  0.00  0.00    +0.000 NA
ATOM     11  C   UNL     1       2.423   6.022  17.848  0.00  0.00    +0.000 C 
ATOM     12  C   UNL     1       2.856   7.234  18.702  0.00  0.00    +0.000 C 
BRANCH  10  13
ATOM     13  C   UNL     1       3.953   4.367  18.845  0.00  0.00    +0.000 C 
BRANCH  13  14
ATOM     14  C   UNL     1       4.933   4.531  17.702  0.00  0.00    +0.000 A 
ATOM     15  C   UNL     1       6.109   5.279  17.884  0.00  0.00    +0.000 A 
ATOM     16  C   UNL     1       7.033   5.410  16.848  0.00  0.00    +0.000 A 
ATOM     17  C   UNL     1       6.784   4.792  15.630  0.00  0.00    +0.000 A 
ATOM     18  F   UNL     1       7.675   4.908  14.638  0.00  0.00    +0.000 F 
ATOM     19  C   UNL     1       5.626   4.049  15.427  0.00  0.00    +0.000 A 
ATOM     20  C   UNL     1       4.698   3.918  16.462  0.00  0.00    +0.000 A 
ENDBRANCH  13  14
ENDBRANCH  10  13
ENDBRANCH   4   7
BRANCH   1  22
ATOM     21  C   UNL     1      -0.790  12.843  21.737  0.00  0.00    +0.000 C 
ATOM     22  C   UNL     1      -1.136  11.548  21.529  0.00  0.00    +0.000 C 
BRANCH  21  23
ATOM     23  C   UNL     1      -1.867  13.640  22.227  0.00  0.00    +0.000 A 
ATOM     24  N   UNL     1      -1.745  14.643  23.085  0.00  0.00    +0.000 NA
ATOM     25  C   UNL     1      -2.996  15.050  23.410  0.00  0.00    +0.000 A 
ATOM     26  C   UNL     1      -3.390  16.029  24.328  0.00  0.00    +0.000 A 
ATOM     27  C   UNL     1      -4.753  16.243  24.527  0.00  0.00    +0.000 A 
ATOM     28  C   UNL     1      -5.694  15.501  23.808  0.00  0.00    +0.000 A 
ATOM     29  C   UNL     1      -5.312  14.526  22.869  0.00  0.00    +0.000 A 
ATOM     30  C   UNL     1      -3.940  14.318  22.700  0.00  0.00    +0.000 A 
ATOM     31  N   UNL     1      -3.192  13.455  21.915  0.00  0.00    +0.000 N 
ATOM     32  H   UNL     1      -3.571  12.778  21.266  0.00  0.00    +0.000 HD
ENDBRANCH  21  23
BRANCH  21  34
ATOM     33  N   UNL     1       1.882  13.464  21.277  0.00  0.00    +0.000 NA
ATOM     34  C   UNL     1       0.671  13.182  21.486  0.00  0.00    +0.000 C 
ENDBRANCH  21  34
ENDBRANCH   1  22
TORSDOF 6
ENDMDL
MODEL 3
REMARK VINA RESULT:      -7.9      1.244      1.700
REMARK  Name = 
REMARK  6 active torsions:
REMARK  status: ('A' for Active; 'I' for Inactive)
REMARK    1  A    between atoms: C_2  and  C_3
REMARK    2  A    between atoms: C_3  and  C_25
REMARK    3  A    between atoms: C_4  and  C_5
REMARK    4  A    between atoms: C_8  and  N_9
REMARK    5  A    between atoms: N_12  and  C_13
REMARK    6  A    between atoms: C_13  and  C_14
REMARK                            x       y       z     vdW  Elec       q    Type
REMARK                         _______ _______ _______ _____ _____    ______ ____
ROOT
ATOM      1  C   UNL     1       0.840   9.715  19.766  0.00  0.00    +0.000 A 
ATOM      2  C   UNL     1       1.131   8.577  20.515  0.00  0.00    +0.000 A 
ATOM      3  C   UNL     1       1.957   7.591  19.978  0.00  0.00    +0.000 A 
ATOM      4  C   UNL     1       2.505   7.711  18.692  0.00  0.00    +0.000 A 
ATOM      5  C   UNL     1       2.207   8.874  17.969  0.00  0.00    +0.000 A 
ATOM      6  C   UNL     1       1.385   9.870  18.496  0.00  0.00    +0.000 A 
ENDROOT
BRANCH   4   7
ATOM      7  N   UNL     1       3.295   6.706  18.173  0.00  0.00    +0.000 N 
ATOM      8  C   UNL     1       4.048   6.867  16.920  0.00  0.00    +0.000 C 
ATOM      9  C   UNL     1       5.563   6.633  17.127  0.00  0.00    +0.000 C 
ATOM     10  N   UNL     1       5.912   5.387  17.861  0.00  0.00    +0.000 NA
ATOM     11  C   UNL     1       5.179   5.424  19.150  0.00  0.00    +0.000 C 
ATOM     12  C   UNL     1       3.645   5.557  19.024  0.00  0.00    +0.000 C 
BRANCH  10  13
ATOM     13  C   UNL     1       5.568   4.212  17.040  0.00  0.00    +0.000 C 
BRANCH  13  14
ATOM     14  C   UNL     1       6.062   4.268  15.609  0.00  0.00    +0.000 A 
ATOM     15  C   UNL     1       5.284   3.721  14.573  0.00  0.00    +0.000 A 
ATOM     16  C   UNL     1       5.714   3.794  13.249  0.00  0.00    +0.000 A 
ATOM     17  C   UNL     1       6.920   4.417  12.958  0.00  0.00    +0.000 A 
ATOM     18  F   UNL     1       7.330   4.498  11.686  0.00  0.00    +0.000 F 
ATOM     19  C   UNL     1       7.707   4.963  13.967  0.00  0.00    +0.000 A 
ATOM     20  C   UNL     1       7.280   4.889  15.293  0.00  0.00    +0.000 A 
ENDBRANCH  13  14
ENDBRANCH  10  13
ENDBRANCH   4   7
BRANCH   1  22
ATOM     21  C   UNL     1      -1.238  11.130  19.759  0.00  0.00    +0.000 C 
ATOM     22  C   UNL     1      -0.067  10.719  20.308  0.00  0.00    +0.000 C 
BRANCH  21  23
ATOM     23  C   UNL     1      -1.845  12.206  20.473  0.00  0.00    +0.000 A 
ATOM     24  N   UNL     1      -1.799  12.372  21.788  0.00  0.00    +0.000 NA
ATOM     25  C   UNL     1      -2.607  13.417  22.090  0.00  0.00    +0.000 A 
ATOM     26  C   UNL     1      -2.942  13.932  23.347  0.00  0.00    +0.000 A 
ATOM     27  C   UNL     1      -3.838  14.998  23.411  0.00  0.00    +0.000 A 
ATOM     28  C   UNL     1      -4.371  15.540  22.238  0.00  0.00    +0.000 A 
ATOM     29  C   UNL     1      -4.030  15.044  20.967  0.00  0.00    +0.000 A 
ATOM     30  C   UNL     1      -3.142  13.964  20.930  0.00  0.00    +0.000 A 
ATOM     31  N   UNL     1      -2.603  13.202  19.906  0.00  0.00    +0.000 N 
ATOM     32  H   UNL     1      -2.783  13.337  18.920  0.00  0.00    +0.000 HD
ENDBRANCH  21  23
BRANCH  21  34
ATOM     33  N   UNL     1      -1.975   9.853  17.402  0.00  0.00    +0.000 NA
ATOM     34  C   UNL     1      -1.641  10.432  18.470  0.00  0.00    +0.000 C 
ENDBRANCH  21  34
ENDBRANCH   1  22
TORSDOF 6
ENDMDL
MODEL 4
REMARK VINA RESULT:      -7.9      1.197      1.667
REMARK  Name = 
REMARK  6 active torsions:
REMARK  status: ('A' for Active; 'I' for Inactive)
REMARK    1  A    between atoms: C_2  and  C_3
REMARK    2  A    between atoms: C_3  and  C_25
REMARK    3  A    between atoms: C_4  and  C_5
REMARK    4  A    between atoms: C_8  and  N_9
REMARK    5  A    between atoms: N_12  and  C_13
REMARK    6  A    between atoms: C_13  and  C_14
REMARK                            x       y       z     vdW  Elec       q    Type
REMARK                         _______ _______ _______ _____ _____    ______ ____
ROOT
ATOM      1  C   UNL     1       0.740   9.505  20.495  0.00  0.00    +0.000 A 
ATOM      2  C   UNL     1       0.989   9.630  19.130  0.00  0.00    +0.000 A 
ATOM      3  C   UNL     1       1.749   8.661  18.477  0.00  0.00    +0.000 A 
ATOM      4  C   UNL     1       2.278   7.557  19.161  0.00  0.00    +0.000 A 
ATOM      5  C   UNL     1       1.998   7.450  20.530  0.00  0.00    +0.000 A 
ATOM      6  C   UNL     1       1.235   8.411  21.196  0.00  0.00    +0.000 A 
ENDROOT
BRANCH   4   7
ATOM      7  N   UNL     1       3.053   6.628  18.496  0.00  0.00    +0.000 N 
ATOM      8  C   UNL     1       3.654   6.903  17.183  0.00  0.00    +0.000 C 
ATOM      9  C   UNL     1       5.192   6.739  17.211  0.00  0.00    +0.000 C 
ATOM     10  N   UNL     1       5.678   5.472  17.822  0.00  0.00    +0.000 NA
ATOM     11  C   UNL     1       5.090   5.394  19.182  0.00  0.00    +0.000 C 
ATOM     12  C   UNL     1       3.548   5.452  19.230  0.00  0.00    +0.000 C 
BRANCH  10  13
ATOM     13  C   UNL     1       5.301   4.331  16.969  0.00  0.00    +0.000 C 
BRANCH  13  14
ATOM     14  C   UNL     1       5.842   4.386  15.555  0.00  0.00    +0.000 A 
ATOM     15  C   UNL     1       7.108   4.945  15.307  0.00  0.00    +0.000 A 
ATOM     16  C   UNL     1       7.629   4.972  14.014  0.00  0.00    +0.000 A 
ATOM     17  C   UNL     1       6.887   4.439  12.968  0.00  0.00    +0.000 A 
ATOM     18  F   UNL     1       7.391   4.454  11.728  0.00  0.00    +0.000 F 
ATOM     19  C   UNL     1       5.632   3.882  13.191  0.00  0.00    +0.000 A 
ATOM     20  C   UNL     1       5.107   3.856  14.484  0.00  0.00    +0.000 A 
ENDBRANCH  13  14
ENDBRANCH  10  13
ENDBRANCH   4   7
BRANCH   1  22
ATOM     21  C   UNL     1       0.268  11.875  21.189  0.00  0.00    +0.000 C 
ATOM     22  C   UNL     1      -0.010  10.547  21.187  0.00  0.00    +0.000 C 
BRANCH  21  23
ATOM     23  C   UNL     1      -0.588  12.626  22.050  0.00  0.00    +0.000 A 
ATOM     24  N   UNL     1      -0.226  13.702  22.734  0.00  0.00    +0.000 NA
ATOM     25  C   UNL     1      -1.267  14.038  23.534  0.00  0.00    +0.000 A 
ATOM     26  C   UNL     1      -1.346  15.057  24.490  0.00  0.00    +0.000 A 
ATOM     27  C   UNL     1      -2.520  15.183  25.231  0.00  0.00    +0.000 A 
ATOM     28  C   UNL     1      -3.592  14.315  25.004  0.00  0.00    +0.000 A 
ATOM     29  C   UNL     1      -3.533  13.298  24.034  0.00  0.00    +0.000 A 
ATOM     30  C   UNL     1      -2.339  13.182  23.316  0.00  0.00    +0.000 A 
ATOM     31  N   UNL     1      -1.897  12.316  22.328  0.00  0.00    +0.000 N 
ATOM     32  H   UNL     1      -2.437  11.562  21.927  0.00  0.00    +0.000 HD
ENDBRANCH  21  23
BRANCH  21  34
ATOM     33  N   UNL     1       2.451  12.650  19.652  0.00  0.00    +0.000 NA
ATOM     34  C   UNL     1       1.462  12.299  20.348  0.00  0.00    +0.000 C 
ENDBRANCH  21  34
ENDBRANCH   1  22
TORSDOF 6
ENDMDL
MODEL 5
REMARK VINA RESULT:      -7.9      1.901      3.148
REMARK  Name = 
REMARK  6 active torsions:
REMARK  status: ('A' for Active; 'I' for Inactive)
REMARK    1  A    between atoms: C_2  and  C_3
REMARK    2  A    between atoms: C_3  and  C_25
REMARK    3  A    between atoms: C_4  and  C_5
REMARK    4  A    between atoms: C_8  and  N_9
REMARK    5  A    between atoms: N_12  and  C_13
REMARK    6  A    between atoms: C_13  and  C_14
REMARK                            x       y       z     vdW  Elec       q    Type
REMARK                         _______ _______ _______ _____ _____    ______ ____
ROOT
ATOM      1  C   UNL     1      -0.353  10.283  21.465  0.00  0.00    +0.000 A 
ATOM      2  C   UNL     1       0.055  10.264  20.133  0.00  0.00    +0.000 A 
ATOM      3  C   UNL     1       0.879   9.235  19.679  0.00  0.00    +0.000 A 
ATOM      4  C   UNL     1       1.315   8.211  20.534  0.00  0.00    +0.000 A 
ATOM      5  C   UNL     1       0.875   8.249  21.864  0.00  0.00    +0.000 A 
ATOM      6  C   UNL     1       0.048   9.271  22.330  0.00  0.00    +0.000 A 
ENDROOT
BRANCH   4   7
ATOM      7  N   UNL     1       2.155   7.220  20.066  0.00  0.00    +0.000 N 
ATOM      8  C   UNL     1       2.156   5.863  20.630  0.00  0.00    +0.000 C 
ATOM      9  C   UNL     1       1.870   4.793  19.549  0.00  0.00    +0.000 C 
ATOM     10  N   UNL     1       2.691   4.913  18.314  0.00  0.00    +0.000 NA
ATOM     11  C   UNL     1       2.491   6.288  17.794  0.00  0.00    +0.000 C 
ATOM     12  C   UNL     1       2.851   7.418  18.785  0.00  0.00    +0.000 C 
BRANCH  10  13
ATOM     13  C   UNL     1       4.101   4.615  18.621  0.00  0.00    +0.000 C 
BRANCH  13  14
ATOM     14  C   UNL     1       5.049   4.738  17.446  0.00  0.00    +0.000 A 
ATOM     15  C   UNL     1       4.814   4.001  16.272  0.00  0.00    +0.000 A 
ATOM     16  C   UNL     1       5.663   4.130  15.173  0.00  0.00    +0.000 A 
ATOM     17  C   UNL     1       6.744   4.997  15.245  0.00  0.00    +0.000 A 
ATOM     18  F   UNL     1       7.553   5.131  14.187  0.00  0.00    +0.000 F 
ATOM     19  C   UNL     1       6.996   5.735  16.397  0.00  0.00    +0.000 A 
ATOM     20  C   UNL     1       6.150   5.606  17.500  0.00  0.00    +0.000 A 
ENDBRANCH  13  14
ENDBRANCH  10  13
ENDBRANCH   4   7
BRANCH   1  22
ATOM     21  C   UNL     1      -0.787  12.687  22.061  0.00  0.00    +0.000 C 
ATOM     22  C   UNL     1      -1.169  11.390  21.950  0.00  0.00    +0.000 C 
BRANCH  21  23
ATOM     23  C   UNL     1      -1.778  13.513  22.672  0.00  0.00    +0.000 A 
ATOM     24  N   UNL     1      -2.963  13.796  22.150  0.00  0.00    +0.000 NA
ATOM     25  C   UNL     1      -3.549  14.714  22.956  0.00  0.00    +0.000 A 
ATOM     26  C   UNL     1      -4.772  15.373  22.791  0.00  0.00    +0.000 A 
ATOM     27  C   UNL     1      -5.148  16.322  23.741  0.00  0.00    +0.000 A 
ATOM     28  C   UNL     1      -4.321  16.588  24.835  0.00  0.00    +0.000 A 
ATOM     29  C   UNL     1      -3.097  15.921  25.023  0.00  0.00    +0.000 A 
ATOM     30  C   UNL     1      -2.734  14.987  24.048  0.00  0.00    +0.000 A 
ATOM     31  N   UNL     1      -1.628  14.171  23.869  0.00  0.00    +0.000 N 
ATOM     32  H   UNL     1      -0.835  14.116  24.493  0.00  0.00    +0.000 HD
ENDBRANCH  21  23
BRANCH  21  34
ATOM     33  N   UNL     1       1.793  13.260  21.199  0.00  0.00    +0.000 NA
ATOM     34  C   UNL     1       0.624  13.000  21.590  0.00  0.00    +0.000 C 
ENDBRANCH  21  34
ENDBRANCH   1  22
TORSDOF 6
ENDMDL
MODEL 6
REMARK VINA RESULT:      -7.9      0.902      1.310
REMARK  Name = 
REMARK  6 active torsions:
REMARK  status: ('A' for Active; 'I' for Inactive)
REMARK    1  A    between atoms: C_2  and  C_3
REMARK    2  A    between atoms: C_3  and  C_25
REMARK    3  A    between atoms: C_4  and  C_5
REMARK    4  A    between atoms: C_8  and  N_9
REMARK    5  A    between atoms: N_12  and  C_13
REMARK    6  A    between atoms: C_13  and  C_14
REMARK                            x       y       z     vdW  Elec       q    Type
REMARK                         _______ _______ _______ _____ _____    ______ ____
ROOT
ATOM      1  C   UNL     1       0.522   9.589  20.220  0.00  0.00    +0.000 A 
ATOM      2  C   UNL     1       1.080   8.567  20.984  0.00  0.00    +0.000 A 
ATOM      3  C   UNL     1       1.918   7.632  20.379  0.00  0.00    +0.000 A 
ATOM      4  C   UNL     1       2.215   7.689  19.010  0.00  0.00    +0.000 A 
ATOM      5  C   UNL     1       1.653   8.738  18.269  0.00  0.00    +0.000 A 
ATOM      6  C   UNL     1       0.815   9.682  18.863  0.00  0.00    +0.000 A 
ENDROOT
BRANCH   4   7
ATOM      7  N   UNL     1       3.025   6.733  18.429  0.00  0.00    +0.000 N 
ATOM      8  C   UNL     1       3.714   6.959  17.151  0.00  0.00    +0.000 C 
ATOM      9  C   UNL     1       5.245   6.786  17.287  0.00  0.00    +0.000 C 
ATOM     10  N   UNL     1       5.679   5.538  17.970  0.00  0.00    +0.000 NA
ATOM     11  C   UNL     1       5.001   5.510  19.290  0.00  0.00    +0.000 C 
ATOM     12  C   UNL     1       3.459   5.579  19.233  0.00  0.00    +0.000 C 
BRANCH  10  13
ATOM     13  C   UNL     1       5.349   4.371  17.132  0.00  0.00    +0.000 C 
BRANCH  13  14
ATOM     14  C   UNL     1       5.899   4.423  15.722  0.00  0.00    +0.000 A 
ATOM     15  C   UNL     1       7.151   5.014  15.476  0.00  0.00    +0.000 A 
ATOM     16  C   UNL     1       7.681   5.039  14.186  0.00  0.00    +0.000 A 
ATOM     17  C   UNL     1       6.961   4.473  13.143  0.00  0.00    +0.000 A 
ATOM     18  F   UNL     1       7.473   4.487  11.906  0.00  0.00    +0.000 F 
ATOM     19  C   UNL     1       5.720   3.885  13.363  0.00  0.00    +0.000 A 
ATOM     20  C   UNL     1       5.186   3.861  14.652  0.00  0.00    +0.000 A 
ENDBRANCH  13  14
ENDBRANCH  10  13
ENDBRANCH   4   7
BRANCH   1  22
ATOM     21  C   UNL     1      -0.161  11.846  21.091  0.00  0.00    +0.000 C 
ATOM     22  C   UNL     1      -0.397  10.534  20.843  0.00  0.00    +0.000 C 
BRANCH  21  23
ATOM     23  C   UNL     1      -1.217  12.480  21.812  0.00  0.00    +0.000 A 
ATOM     24  N   UNL     1      -2.456  12.638  21.368  0.00  0.00    +0.000 NA
ATOM     25  C   UNL     1      -3.113  13.403  22.272  0.00  0.00    +0.000 A 
ATOM     26  C   UNL     1      -4.420  13.900  22.217  0.00  0.00    +0.000 A 
ATOM     27  C   UNL     1      -4.866  14.713  23.258  0.00  0.00    +0.000 A 
ATOM     28  C   UNL     1      -4.023  15.004  24.334  0.00  0.00    +0.000 A 
ATOM     29  C   UNL     1      -2.713  14.497  24.411  0.00  0.00    +0.000 A 
ATOM     30  C   UNL     1      -2.284  13.699  23.346  0.00  0.00    +0.000 A 
ATOM     31  N   UNL     1      -1.091  13.059  23.052  0.00  0.00    +0.000 N 
ATOM     32  H   UNL     1      -0.264  13.064  23.634  0.00  0.00    +0.000 HD
ENDBRANCH  21  23
BRANCH  21  34
ATOM     33  N   UNL     1       2.308  12.805  20.244  0.00  0.00    +0.000 NA
ATOM     34  C   UNL     1       1.189  12.371  20.628  0.00  0.00    +0.000 C 
ENDBRANCH  21  34
ENDBRANCH   1  22
TORSDOF 6
ENDMDL
MODEL 7
REMARK VINA RESULT:      -7.8      1.249      1.682
REMARK  Name = 
REMARK  6 active torsions:
REMARK  status: ('A' for Active; 'I' for Inactive)
REMARK    1  A    between atoms: C_2  and  C_3
REMARK    2  A    between atoms: C_3  and  C_25
REMARK    3  A    between atoms: C_4  and  C_5
REMARK    4  A    between atoms: C_8  and  N_9
REMARK    5  A    between atoms: N_12  and  C_13
REMARK    6  A    between atoms: C_13  and  C_14
REMARK                            x       y       z     vdW  Elec       q    Type
REMARK                         _______ _______ _______ _____ _____    ______ ____
ROOT
ATOM      1  C   UNL     1       0.973   9.422  19.644  0.00  0.00    +0.000 A 
ATOM      2  C   UNL     1       1.510   9.568  18.367  0.00  0.00    +0.000 A 
ATOM      3  C   UNL     1       2.370   8.593  17.865  0.00  0.00    +0.000 A 
ATOM      4  C   UNL     1       2.718   7.461  18.617  0.00  0.00    +0.000 A 
ATOM      5  C   UNL     1       2.150   7.333  19.892  0.00  0.00    +0.000 A 
ATOM      6  C   UNL     1       1.284   8.300  20.405  0.00  0.00    +0.000 A 
ENDROOT
BRANCH   4   7
ATOM      7  N   UNL     1       3.596   6.526  18.108  0.00  0.00    +0.000 N 
ATOM      8  C   UNL     1       4.284   6.714  16.822  0.00  0.00    +0.000 C 
ATOM      9  C   UNL     1       5.822   6.654  16.982  0.00  0.00    +0.000 C 
ATOM     10  N   UNL     1       6.329   5.485  17.750  0.00  0.00    +0.000 NA
ATOM     11  C   UNL     1       5.639   5.498  19.063  0.00  0.00    +0.000 C 
ATOM     12  C   UNL     1       4.097   5.460  18.989  0.00  0.00    +0.000 C 
BRANCH  10  13
ATOM     13  C   UNL     1       6.089   4.246  16.989  0.00  0.00    +0.000 C 
BRANCH  13  14
ATOM     14  C   UNL     1       6.379   4.343  15.506  0.00  0.00    +0.000 A 
ATOM     15  C   UNL     1       7.479   5.091  15.051  0.00  0.00    +0.000 A 
ATOM     16  C   UNL     1       7.774   5.161  13.690  0.00  0.00    +0.000 A 
ATOM     17  C   UNL     1       6.972   4.482  12.783  0.00  0.00    +0.000 A 
ATOM     18  F   UNL     1       7.261   4.539  11.476  0.00  0.00    +0.000 F 
ATOM     19  C   UNL     1       5.879   3.737  13.210  0.00  0.00    +0.000 A 
ATOM     20  C   UNL     1       5.579   3.667  14.572  0.00  0.00    +0.000 A 
ENDBRANCH  13  14
ENDBRANCH  10  13
ENDBRANCH   4   7
BRANCH   1  22
ATOM     21  C   UNL     1      -0.994  10.987  19.606  0.00  0.00    +0.000 C 
ATOM     22  C   UNL     1       0.116  10.469  20.188  0.00  0.00    +0.000 C 
BRANCH  21  23
ATOM     23  C   UNL     1      -1.555  12.076  20.338  0.00  0.00    +0.000 A 
ATOM     24  N   UNL     1      -1.376  12.298  21.633  0.00  0.00    +0.000 NA
ATOM     25  C   UNL     1      -2.177  13.334  21.978  0.00  0.00    +0.000 A 
ATOM     26  C   UNL     1      -2.393  13.893  23.243  0.00  0.00    +0.000 A 
ATOM     27  C   UNL     1      -3.309  14.937  23.359  0.00  0.00    +0.000 A 
ATOM     28  C   UNL     1      -3.978  15.416  22.229  0.00  0.00    +0.000 A 
ATOM     29  C   UNL     1      -3.758  14.876  20.950  0.00  0.00    +0.000 A 
ATOM     30  C   UNL     1      -2.848  13.818  20.862  0.00  0.00    +0.000 A 
ATOM     31  N   UNL     1      -2.397  13.028  19.816  0.00  0.00    +0.000 N 
ATOM     32  H   UNL     1      -2.684  13.116  18.851  0.00  0.00    +0.000 HD
ENDBRANCH  21  23
BRANCH  21  34
ATOM     33  N   UNL     1      -1.711   9.861  17.167  0.00  0.00    +0.000 NA
ATOM     34  C   UNL     1      -1.386  10.371  18.272  0.00  0.00    +0.000 C 
ENDBRANCH  21  34
ENDBRANCH   1  22
TORSDOF 6
ENDMDL
MODEL 8
REMARK VINA RESULT:      -7.7      1.356      2.048
REMARK  Name = 
REMARK  6 active torsions:
REMARK  status: ('A' for Active; 'I' for Inactive)
REMARK    1  A    between atoms: C_2  and  C_3
REMARK    2  A    between atoms: C_3  and  C_25
REMARK    3  A    between atoms: C_4  and  C_5
REMARK    4  A    between atoms: C_8  and  N_9
REMARK    5  A    between atoms: N_12  and  C_13
REMARK    6  A    between atoms: C_13  and  C_14
REMARK                            x       y       z     vdW  Elec       q    Type
REMARK                         _______ _______ _______ _____ _____    ______ ____
ROOT
ATOM      1  C   UNL     1       0.948   9.650  19.831  0.00  0.00    +0.000 A 
ATOM      2  C   UNL     1       1.247   8.487  20.538  0.00  0.00    +0.000 A 
ATOM      3  C   UNL     1       2.044   7.508  19.948  0.00  0.00    +0.000 A 
ATOM      4  C   UNL     1       2.555   7.659  18.650  0.00  0.00    +0.000 A 
ATOM      5  C   UNL     1       2.251   8.846  17.970  0.00  0.00    +0.000 A 
ATOM      6  C   UNL     1       1.457   9.836  18.550  0.00  0.00    +0.000 A 
ENDROOT
BRANCH   4   7
ATOM      7  N   UNL     1       3.317   6.661  18.078  0.00  0.00    +0.000 N 
ATOM      8  C   UNL     1       4.065   6.863  16.829  0.00  0.00    +0.000 C 
ATOM      9  C   UNL     1       5.576   6.582  17.013  0.00  0.00    +0.000 C 
ATOM     10  N   UNL     1       5.899   5.295  17.685  0.00  0.00    +0.000 NA
ATOM     11  C   UNL     1       5.175   5.289  18.980  0.00  0.00    +0.000 C 
ATOM     12  C   UNL     1       3.644   5.465  18.872  0.00  0.00    +0.000 C 
BRANCH  10  13
ATOM     13  C   UNL     1       5.521   4.169  16.812  0.00  0.00    +0.000 C 
BRANCH  13  14
ATOM     14  C   UNL     1       6.067   4.244  15.402  0.00  0.00    +0.000 A 
ATOM     15  C   UNL     1       5.387   3.607  14.348  0.00  0.00    +0.000 A 
ATOM     16  C   UNL     1       5.864   3.697  13.041  0.00  0.00    +0.000 A 
ATOM     17  C   UNL     1       7.018   4.425  12.785  0.00  0.00    +0.000 A 
ATOM     18  F   UNL     1       7.471   4.521  11.529  0.00  0.00    +0.000 F 
ATOM     19  C   UNL     1       7.707   5.061  13.812  0.00  0.00    +0.000 A 
ATOM     20  C   UNL     1       7.234   4.971  15.122  0.00  0.00    +0.000 A 
ENDBRANCH  13  14
ENDBRANCH  10  13
ENDBRANCH   4   7
BRANCH   1  22
ATOM     21  C   UNL     1      -1.110  11.090  19.927  0.00  0.00    +0.000 C 
ATOM     22  C   UNL     1       0.070  10.648  20.429  0.00  0.00    +0.000 C 
BRANCH  21  23
ATOM     23  C   UNL     1      -1.683  12.152  20.690  0.00  0.00    +0.000 A 
ATOM     24  N   UNL     1      -2.171  13.277  20.185  0.00  0.00    +0.000 NA
ATOM     25  C   UNL     1      -2.487  14.081  21.229  0.00  0.00    +0.000 A 
ATOM     26  C   UNL     1      -2.969  15.395  21.209  0.00  0.00    +0.000 A 
ATOM     27  C   UNL     1      -3.181  16.043  22.425  0.00  0.00    +0.000 A 
ATOM     28  C   UNL     1      -2.929  15.379  23.629  0.00  0.00    +0.000 A 
ATOM     29  C   UNL     1      -2.461  14.053  23.664  0.00  0.00    +0.000 A 
ATOM     30  C   UNL     1      -2.240  13.431  22.431  0.00  0.00    +0.000 A 
ATOM     31  N   UNL     1      -1.770  12.181  22.061  0.00  0.00    +0.000 N 
ATOM     32  H   UNL     1      -1.498  11.446  22.699  0.00  0.00    +0.000 HD
ENDBRANCH  21  23
BRANCH  21  34
ATOM     33  N   UNL     1      -1.932   9.895  17.554  0.00  0.00    +0.000 NA
ATOM     34  C   UNL     1      -1.559  10.437  18.629  0.00  0.00    +0.000 C 
ENDBRANCH  21  34
ENDBRANCH   1  22
TORSDOF 6
ENDMDL
MODEL 9
REMARK VINA RESULT:      -7.7      1.773      2.839
REMARK  Name = 
REMARK  6 active torsions:
REMARK  status: ('A' for Active; 'I' for Inactive)
REMARK    1  A    between atoms: C_2  and  C_3
REMARK    2  A    between atoms: C_3  and  C_25
REMARK    3  A    between atoms: C_4  and  C_5
REMARK    4  A    between atoms: C_8  and  N_9
REMARK    5  A    between atoms: N_12  and  C_13
REMARK    6  A    between atoms: C_13  and  C_14
REMARK                            x       y       z     vdW  Elec       q    Type
REMARK                         _______ _______ _______ _____ _____    ______ ____
ROOT
ATOM      1  C   UNL     1      -0.406  10.322  20.832  0.00  0.00    +0.000 A 
ATOM      2  C   UNL     1       0.113  10.197  19.545  0.00  0.00    +0.000 A 
ATOM      3  C   UNL     1       0.964   9.135  19.244  0.00  0.00    +0.000 A 
ATOM      4  C   UNL     1       1.319   8.181  20.210  0.00  0.00    +0.000 A 
ATOM      5  C   UNL     1       0.769   8.323  21.491  0.00  0.00    +0.000 A 
ATOM      6  C   UNL     1      -0.087   9.380  21.805  0.00  0.00    +0.000 A 
ENDROOT
BRANCH   4   7
ATOM      7  N   UNL     1       2.187   7.155  19.894  0.00  0.00    +0.000 N 
ATOM      8  C   UNL     1       2.261   5.918  20.684  0.00  0.00    +0.000 C 
ATOM      9  C   UNL     1       1.992   4.666  19.815  0.00  0.00    +0.000 C 
ATOM     10  N   UNL     1       2.774   4.599  18.552  0.00  0.00    +0.000 NA
ATOM     11  C   UNL     1       2.503   5.854  17.808  0.00  0.00    +0.000 C 
ATOM     12  C   UNL     1       2.840   7.151  18.575  0.00  0.00    +0.000 C 
BRANCH  10  13
ATOM     13  C   UNL     1       4.203   4.412  18.859  0.00  0.00    +0.000 C 
BRANCH  13  14
ATOM     14  C   UNL     1       5.135   4.570  17.676  0.00  0.00    +0.000 A 
ATOM     15  C   UNL     1       5.034   3.697  16.578  0.00  0.00    +0.000 A 
ATOM     16  C   UNL     1       5.866   3.852  15.470  0.00  0.00    +0.000 A 
ATOM     17  C   UNL     1       6.798   4.881  15.457  0.00  0.00    +0.000 A 
ATOM     18  F   UNL     1       7.590   5.039  14.389  0.00  0.00    +0.000 F 
ATOM     19  C   UNL     1       6.916   5.755  16.532  0.00  0.00    +0.000 A 
ATOM     20  C   UNL     1       6.087   5.600  17.643  0.00  0.00    +0.000 A 
ENDBRANCH  13  14
ENDBRANCH  10  13
ENDBRANCH   4   7
BRANCH   1  22
ATOM     21  C   UNL     1      -0.836  12.731  21.405  0.00  0.00    +0.000 C 
ATOM     22  C   UNL     1      -1.251  11.463  21.159  0.00  0.00    +0.000 C 
BRANCH  21  23
ATOM     23  C   UNL     1      -1.895  13.601  21.803  0.00  0.00    +0.000 A 
ATOM     24  N   UNL     1      -2.131  13.996  23.047  0.00  0.00    +0.000 NA
ATOM     25  C   UNL     1      -3.295  14.690  23.034  0.00  0.00    +0.000 A 
ATOM     26  C   UNL     1      -3.995  15.247  24.110  0.00  0.00    +0.000 A 
ATOM     27  C   UNL     1      -5.208  15.886  23.853  0.00  0.00    +0.000 A 
ATOM     28  C   UNL     1      -5.694  15.973  22.546  0.00  0.00    +0.000 A 
ATOM     29  C   UNL     1      -4.992  15.433  21.453  0.00  0.00    +0.000 A 
ATOM     30  C   UNL     1      -3.787  14.783  21.739  0.00  0.00    +0.000 A 
ATOM     31  N   UNL     1      -2.850  14.120  20.962  0.00  0.00    +0.000 N 
ATOM     32  H   UNL     1      -2.899  14.003  19.959  0.00  0.00    +0.000 HD
ENDBRANCH  21  23
BRANCH  21  34
ATOM     33  N   UNL     1       1.901  13.166  21.184  0.00  0.00    +0.000 NA
ATOM     34  C   UNL     1       0.661  12.969  21.284  0.00  0.00    +0.000 C 
ENDBRANCH  21  34
ENDBRANCH   1  22
TORSDOF 6
ENDMDL
