MODEL 1
REMARK VINA RESULT:      -7.7      0.000      0.000
REMARK  Name = 
REMARK  11 active torsions:
REMARK  status: ('A' for Active; 'I' for Inactive)
REMARK    1  A    between atoms: C_1  and  N_2
REMARK    2  A    between atoms: N_2  and  C_3
REMARK    3  A    between atoms: C_3  and  C_4
REMARK    4  A    between atoms: C_4  and  N_5
REMARK    5  A    between atoms: C_8  and  C_9
REMARK    6  A    between atoms: C_14  and  C_15
REMARK    7  A    between atoms: C_18  and  O_19
REMARK    8  A    between atoms: O_19  and  C_20
REMARK    9  A    between atoms: C_21  and  O_22
REMARK   10  A    between atoms: O_22  and  C_23
REMARK   11  A    between atoms: C_25  and  C_26
REMARK                            x       y       z     vdW  Elec       q    Type
REMARK                         _______ _______ _______ _____ _____    ______ ____
ROOT
ATOM      1  C   UNL     1      -0.158  11.344  21.791  0.00  0.00    +0.000 A 
ATOM      2  C   UNL     1      -0.211  10.371  22.801  0.00  0.00    +0.000 A 
ATOM      3  C   UNL     1       0.253   9.057  22.605  0.00  0.00    +0.000 A 
ATOM      4  C   UNL     1       0.799   8.746  21.356  0.00  0.00    +0.000 A 
ATOM      5  N   UNL     1       1.356   7.589  20.872  0.00  0.00    +0.000 N 
ATOM      6  C   UNL     1       1.855   7.766  19.593  0.00  0.00    +0.000 A 
ATOM      7  C   UNL     1       1.516   9.060  19.211  0.00  0.00    +0.000 A 
ATOM      8  C   UNL     1       1.822   9.798  17.950  0.00  0.00    +0.000 C 
ATOM      9  C   UNL     1       0.852   9.666  20.323  0.00  0.00    +0.000 A 
ATOM     10  C   UNL     1       0.323  10.951  20.534  0.00  0.00    +0.000 A 
ATOM     11  H   UNL     1       1.428   6.732  21.399  0.00  0.00    +0.000 HD
ENDROOT
BRANCH   1  15
ATOM     12  N   UNL     1      -3.507  13.109  21.303  0.00  0.00    +0.000 NA
ATOM     13  C   UNL     1      -3.122  12.479  22.574  0.00  0.00    +0.000 C 
ATOM     14  C   UNL     1      -1.755  12.925  23.103  0.00  0.00    +0.000 C 
ATOM     15  C   UNL     1      -0.628  12.772  22.070  0.00  0.00    +0.000 C 
ATOM     16  C   UNL     1      -1.088  13.513  20.802  0.00  0.00    +0.000 C 
ATOM     17  C   UNL     1      -2.439  13.002  20.292  0.00  0.00    +0.000 C 
BRANCH  12  18
ATOM     18  C   UNL     1      -4.749  12.486  20.771  0.00  0.00    +0.000 C 
BRANCH  18  19
ATOM     19  C   UNL     1      -4.684  12.195  19.255  0.00  0.00    +0.000 C 
BRANCH  19  21
ATOM     20  C   UNL     1      -5.838  12.415  17.170  0.00  0.00    +0.000 C 
ATOM     21  N   UNL     1      -5.607  13.029  18.474  0.00  0.00    +0.000 NA
ATOM     22  H   UNL     1      -6.494  13.108  18.972  0.00  0.00    +0.000 HD
ENDBRANCH  19  21
ENDBRANCH  18  19
ENDBRANCH  12  18
ENDBRANCH   1  15
BRANCH   6  23
ATOM     23  C   UNL     1       2.618   6.719  18.905  0.00  0.00    +0.000 A 
ATOM     24  C   UNL     1       3.513   7.030  17.885  0.00  0.00    +0.000 A 
ATOM     25  C   UNL     1       4.304   6.036  17.313  0.00  0.00    +0.000 A 
ATOM     26  C   UNL     1       4.181   4.697  17.705  0.00  0.00    +0.000 A 
ATOM     27  C   UNL     1       3.244   4.353  18.695  0.00  0.00    +0.000 A 
ATOM     28  C   UNL     1       2.490   5.374  19.294  0.00  0.00    +0.000 A 
BRANCH  26  29
ATOM     29  O   UNL     1       5.055   3.887  17.027  0.00  0.00    +0.000 OA
ATOM     30  C   UNL     1       6.090   4.484  16.265  0.00  0.00    +0.000 C 
ENDBRANCH  26  29
BRANCH  27  31
ATOM     31  O   UNL     1       3.108   3.034  19.039  0.00  0.00    +0.000 OA
ATOM     32  C   UNL     1       3.940   2.512  20.066  0.00  0.00    +0.000 C 
ENDBRANCH  27  31
ENDBRANCH   6  23
TORSDOF 7
ENDMDL
MODEL 2
REMARK VINA RESULT:      -7.7      1.075      1.208
REMARK  Name = 
REMARK  11 active torsions:
REMARK  status: ('A' for Active; 'I' for Inactive)
REMARK    1  A    between atoms: C_1  and  N_2
REMARK    2  A    between atoms: N_2  and  C_3
REMARK    3  A    between atoms: C_3  and  C_4
REMARK    4  A    between atoms: C_4  and  N_5
REMARK    5  A    between atoms: C_8  and  C_9
REMARK    6  A    between atoms: C_14  and  C_15
REMARK    7  A    between atoms: C_18  and  O_19
REMARK    8  A    between atoms: O_19  and  C_20
REMARK    9  A    between atoms: C_21  and  O_22
REMARK   10  A    between atoms: O_22  and  C_23
REMARK   11  A    between atoms: C_25  and  C_26
REMARK                            x       y       z     vdW  Elec       q    Type
REMARK                         _______ _______ _______ _____ _____    ______ ____
ROOT
ATOM      1  C   UNL     1      -0.146  11.266  21.799  0.00  0.00    +0.000 A 
ATOM      2  C   UNL     1      -0.186  10.228  22.744  0.00  0.00    +0.000 A 
ATOM      3  C   UNL     1       0.284   8.933  22.459  0.00  0.00    +0.000 A 
ATOM      4  C   UNL     1       0.825   8.708  21.190  0.00  0.00    +0.000 A 
ATOM      5  N   UNL     1       1.386   7.588  20.628  0.00  0.00    +0.000 N 
ATOM      6  C   UNL     1       1.876   7.852  19.360  0.00  0.00    +0.000 A 
ATOM      7  C   UNL     1       1.527   9.167  19.066  0.00  0.00    +0.000 A 
ATOM      8  C   UNL     1       1.822   9.987  17.854  0.00  0.00    +0.000 C 
ATOM      9  C   UNL     1       0.866   9.694  20.218  0.00  0.00    +0.000 A 
ATOM     10  C   UNL     1       0.331  10.959  20.516  0.00  0.00    +0.000 A 
ATOM     11  H   UNL     1       1.467   6.699  21.097  0.00  0.00    +0.000 HD
ENDROOT
BRANCH   1  15
ATOM     12  N   UNL     1      -3.443  13.109  21.258  0.00  0.00    +0.000 NA
ATOM     13  C   UNL     1      -3.145  12.365  22.490  0.00  0.00    +0.000 C 
ATOM     14  C   UNL     1      -1.812  12.745  23.142  0.00  0.00    +0.000 C 
ATOM     15  C   UNL     1      -0.622  12.669  22.173  0.00  0.00    +0.000 C 
ATOM     16  C   UNL     1      -0.994  13.526  20.950  0.00  0.00    +0.000 C 
ATOM     17  C   UNL     1      -2.314  13.079  20.311  0.00  0.00    +0.000 C 
BRANCH  12  18
ATOM     18  C   UNL     1      -4.653  12.551  20.595  0.00  0.00    +0.000 C 
BRANCH  18  19
ATOM     19  C   UNL     1      -5.970  12.943  21.303  0.00  0.00    +0.000 C 
BRANCH  19  21
ATOM     20  C   UNL     1      -7.464  11.181  20.676  0.00  0.00    +0.000 C 
ATOM     21  N   UNL     1      -6.726  11.779  21.784  0.00  0.00    +0.000 NA
ATOM     22  H   UNL     1      -6.078  11.091  22.169  0.00  0.00    +0.000 HD
ENDBRANCH  19  21
ENDBRANCH  18  19
ENDBRANCH  12  18
ENDBRANCH   1  15
BRANCH   6  23
ATOM     23  C   UNL     1       2.641   6.857  18.601  0.00  0.00    +0.000 A 
ATOM     24  C   UNL     1       3.704   7.234  17.785  0.00  0.00    +0.000 A 
ATOM     25  C   UNL     1       4.484   6.268  17.151  0.00  0.00    +0.000 A 
ATOM     26  C   UNL     1       4.189   4.904  17.272  0.00  0.00    +0.000 A 
ATOM     27  C   UNL     1       3.086   4.505  18.048  0.00  0.00    +0.000 A 
ATOM     28  C   UNL     1       2.341   5.489  18.717  0.00  0.00    +0.000 A 
BRANCH  26  29
ATOM     29  O   UNL     1       5.081   4.128  16.581  0.00  0.00    +0.000 OA
ATOM     30  C   UNL     1       6.461   4.448  16.647  0.00  0.00    +0.000 C 
ENDBRANCH  26  29
BRANCH  27  31
ATOM     31  O   UNL     1       2.786   3.171  18.124  0.00  0.00    +0.000 OA
ATOM     32  C   UNL     1       2.158   2.684  19.302  0.00  0.00    +0.000 C 
ENDBRANCH  27  31
ENDBRANCH   6  23
TORSDOF 7
ENDMDL
MODEL 3
REMARK VINA RESULT:      -7.7      4.048      9.794
REMARK  Name = 
REMARK  11 active torsions:
REMARK  status: ('A' for Active; 'I' for Inactive)
REMARK    1  A    between atoms: C_1  and  N_2
REMARK    2  A    between atoms: N_2  and  C_3
REMARK    3  A    between atoms: C_3  and  C_4
REMARK    4  A    between atoms: C_4  and  N_5
REMARK    5  A    between atoms: C_8  and  C_9
REMARK    6  A    between atoms: C_14  and  C_15
REMARK    7  A    between atoms: C_18  and  O_19
REMARK    8  A    between atoms: O_19  and  C_20
REMARK    9  A    between atoms: C_21  and  O_22
REMARK   10  A    between atoms: O_22  and  C_23
REMARK   11  A    between atoms: C_25  and  C_26
REMARK                            x       y       z     vdW  Elec       q    Type
REMARK                         _______ _______ _______ _____ _____    ______ ____
ROOT
ATOM      1  C   UNL     1       3.247   5.958  18.450  0.00  0.00    +0.000 A 
ATOM      2  C   UNL     1       2.838   5.249  19.590  0.00  0.00    +0.000 A 
ATOM      3  C   UNL     1       2.034   5.830  20.589  0.00  0.00    +0.000 A 
ATOM      4  C   UNL     1       1.628   7.155  20.400  0.00  0.00    +0.000 A 
ATOM      5  N   UNL     1       0.832   7.977  21.158  0.00  0.00    +0.000 N 
ATOM      6  C   UNL     1       0.623   9.194  20.532  0.00  0.00    +0.000 A 
ATOM      7  C   UNL     1       1.396   9.182  19.374  0.00  0.00    +0.000 A 
ATOM      8  C   UNL     1       1.536  10.215  18.306  0.00  0.00    +0.000 C 
ATOM      9  C   UNL     1       2.025   7.900  19.302  0.00  0.00    +0.000 A 
ATOM     10  C   UNL     1       2.878   7.308  18.355  0.00  0.00    +0.000 A 
ATOM     11  H   UNL     1       0.418   7.710  22.038  0.00  0.00    +0.000 HD
ENDROOT
BRANCH   1  15
ATOM     12  N   UNL     1       6.969   6.022  17.607  0.00  0.00    +0.000 NA
ATOM     13  C   UNL     1       6.371   4.997  18.475  0.00  0.00    +0.000 C 
ATOM     14  C   UNL     1       5.157   4.292  17.862  0.00  0.00    +0.000 C 
ATOM     15  C   UNL     1       4.077   5.266  17.368  0.00  0.00    +0.000 C 
ATOM     16  C   UNL     1       4.777   6.256  16.420  0.00  0.00    +0.000 C 
ATOM     17  C   UNL     1       5.958   6.964  17.094  0.00  0.00    +0.000 C 
BRANCH  12  18
ATOM     18  C   UNL     1       8.015   6.780  18.345  0.00  0.00    +0.000 C 
BRANCH  18  19
ATOM     19  C   UNL     1       8.052   8.281  17.978  0.00  0.00    +0.000 C 
BRANCH  19  21
ATOM     20  C   UNL     1       9.091  10.403  18.364  0.00  0.00    +0.000 C 
ATOM     21  N   UNL     1       8.835   9.081  18.929  0.00  0.00    +0.000 NA
ATOM     22  H   UNL     1       8.310   9.181  19.798  0.00  0.00    +0.000 HD
ENDBRANCH  19  21
ENDBRANCH  18  19
ENDBRANCH  12  18
ENDBRANCH   1  15
BRANCH   6  23
ATOM     23  C   UNL     1      -0.300  10.197  21.072  0.00  0.00    +0.000 A 
ATOM     24  C   UNL     1      -0.379  10.441  22.441  0.00  0.00    +0.000 A 
ATOM     25  C   UNL     1      -1.187  11.467  22.929  0.00  0.00    +0.000 A 
ATOM     26  C   UNL     1      -1.979  12.237  22.068  0.00  0.00    +0.000 A 
ATOM     27  C   UNL     1      -1.957  11.970  20.688  0.00  0.00    +0.000 A 
ATOM     28  C   UNL     1      -1.101  10.965  20.210  0.00  0.00    +0.000 A 
BRANCH  26  29
ATOM     29  O   UNL     1      -2.686  13.193  22.749  0.00  0.00    +0.000 OA
ATOM     30  C   UNL     1      -1.995  14.318  23.266  0.00  0.00    +0.000 C 
ENDBRANCH  26  29
BRANCH  27  31
ATOM     31  O   UNL     1      -2.767  12.705  19.865  0.00  0.00    +0.000 OA
ATOM     32  C   UNL     1      -3.613  12.014  18.955  0.00  0.00    +0.000 C 
ENDBRANCH  27  31
ENDBRANCH   6  23
TORSDOF 7
ENDMDL
MODEL 4
REMARK VINA RESULT:      -7.5      3.154      4.868
REMARK  Name = 
REMARK  11 active torsions:
REMARK  status: ('A' for Active; 'I' for Inactive)
REMARK    1  A    between atoms: C_1  and  N_2
REMARK    2  A    between atoms: N_2  and  C_3
REMARK    3  A    between atoms: C_3  and  C_4
REMARK    4  A    between atoms: C_4  and  N_5
REMARK    5  A    between atoms: C_8  and  C_9
REMARK    6  A    between atoms: C_14  and  C_15
REMARK    7  A    between atoms: C_18  and  O_19
REMARK    8  A    between atoms: O_19  and  C_20
REMARK    9  A    between atoms: C_21  and  O_22
REMARK   10  A    between atoms: O_22  and  C_23
REMARK   11  A    between atoms: C_25  and  C_26
REMARK                            x       y       z     vdW  Elec       q    Type
REMARK                         _______ _______ _______ _____ _____    ______ ____
ROOT
ATOM      1  C   UNL     1       0.185  11.716  20.455  0.00  0.00    +0.000 A 
ATOM      2  C   UNL     1       0.008  11.291  21.782  0.00  0.00    +0.000 A 
ATOM      3  C   UNL     1       0.325   9.987  22.202  0.00  0.00    +0.000 A 
ATOM      4  C   UNL     1       0.853   9.111  21.247  0.00  0.00    +0.000 A 
ATOM      5  N   UNL     1       1.284   7.813  21.347  0.00  0.00    +0.000 N 
ATOM      6  C   UNL     1       1.820   7.366  20.151  0.00  0.00    +0.000 A 
ATOM      7  C   UNL     1       1.634   8.389  19.227  0.00  0.00    +0.000 A 
ATOM      8  C   UNL     1       2.040   8.470  17.793  0.00  0.00    +0.000 C 
ATOM      9  C   UNL     1       1.024   9.479  19.923  0.00  0.00    +0.000 A 
ATOM     10  C   UNL     1       0.639  10.771  19.524  0.00  0.00    +0.000 A 
ATOM     11  H   UNL     1       1.252   7.269  22.196  0.00  0.00    +0.000 HD
ENDROOT
BRANCH   1  15
ATOM     12  N   UNL     1       2.404  14.700  19.597  0.00  0.00    +0.000 NA
ATOM     13  C   UNL     1       1.859  13.798  18.573  0.00  0.00    +0.000 C 
ATOM     14  C   UNL     1       0.343  13.595  18.663  0.00  0.00    +0.000 C 
ATOM     15  C   UNL     1      -0.126  13.160  20.059  0.00  0.00    +0.000 C 
ATOM     16  C   UNL     1       0.434  14.192  21.054  0.00  0.00    +0.000 C 
ATOM     17  C   UNL     1       1.956  14.327  20.951  0.00  0.00    +0.000 C 
BRANCH  12  18
ATOM     18  C   UNL     1       3.892  14.694  19.554  0.00  0.00    +0.000 C 
BRANCH  18  19
ATOM     19  C   UNL     1       4.464  15.245  18.229  0.00  0.00    +0.000 C 
BRANCH  19  21
ATOM     20  C   UNL     1       6.811  14.873  17.935  0.00  0.00    +0.000 C 
ATOM     21  N   UNL     1       5.476  14.361  17.634  0.00  0.00    +0.000 NA
ATOM     22  H   UNL     1       5.378  13.424  18.025  0.00  0.00    +0.000 HD
ENDBRANCH  19  21
ENDBRANCH  18  19
ENDBRANCH  12  18
ENDBRANCH   1  15
BRANCH   6  23
ATOM     23  C   UNL     1       2.471   6.057  20.033  0.00  0.00    +0.000 A 
ATOM     24  C   UNL     1       1.855   4.900  20.503  0.00  0.00    +0.000 A 
ATOM     25  C   UNL     1       2.442   3.654  20.293  0.00  0.00    +0.000 A 
ATOM     26  C   UNL     1       3.685   3.535  19.657  0.00  0.00    +0.000 A 
ATOM     27  C   UNL     1       4.349   4.696  19.224  0.00  0.00    +0.000 A 
ATOM     28  C   UNL     1       3.721   5.939  19.402  0.00  0.00    +0.000 A 
BRANCH  26  29
ATOM     29  O   UNL     1       4.074   2.227  19.543  0.00  0.00    +0.000 OA
ATOM     30  C   UNL     1       3.619   1.471  18.434  0.00  0.00    +0.000 C 
ENDBRANCH  26  29
BRANCH  27  31
ATOM     31  O   UNL     1       5.581   4.567  18.640  0.00  0.00    +0.000 OA
ATOM     32  C   UNL     1       6.623   5.439  19.058  0.00  0.00    +0.000 C 
ENDBRANCH  27  31
ENDBRANCH   6  23
TORSDOF 7
ENDMDL
MODEL 5
REMARK VINA RESULT:      -7.5      1.259      1.616
REMARK  Name = 
REMARK  11 active torsions:
REMARK  status: ('A' for Active; 'I' for Inactive)
REMARK    1  A    between atoms: C_1  and  N_2
REMARK    2  A    between atoms: N_2  and  C_3
REMARK    3  A    between atoms: C_3  and  C_4
REMARK    4  A    between atoms: C_4  and  N_5
REMARK    5  A    between atoms: C_8  and  C_9
REMARK    6  A    between atoms: C_14  and  C_15
REMARK    7  A    between atoms: C_18  and  O_19
REMARK    8  A    between atoms: O_19  and  C_20
REMARK    9  A    between atoms: C_21  and  O_22
REMARK   10  A    between atoms: O_22  and  C_23
REMARK   11  A    between atoms: C_25  and  C_26
REMARK                            x       y       z     vdW  Elec       q    Type
REMARK                         _______ _______ _______ _____ _____    ______ ____
ROOT
ATOM      1  C   UNL     1       0.055  11.186  21.572  0.00  0.00    +0.000 A 
ATOM      2  C   UNL     1      -0.064  10.277  22.635  0.00  0.00    +0.000 A 
ATOM      3  C   UNL     1       0.359   8.938  22.532  0.00  0.00    +0.000 A 
ATOM      4  C   UNL     1       0.932   8.535  21.321  0.00  0.00    +0.000 A 
ATOM      5  N   UNL     1       1.462   7.333  20.924  0.00  0.00    +0.000 N 
ATOM      6  C   UNL     1       2.007   7.417  19.654  0.00  0.00    +0.000 A 
ATOM      7  C   UNL     1       1.726   8.698  19.187  0.00  0.00    +0.000 A 
ATOM      8  C   UNL     1       2.098   9.348  17.896  0.00  0.00    +0.000 C 
ATOM      9  C   UNL     1       1.050   9.390  20.238  0.00  0.00    +0.000 A 
ATOM     10  C   UNL     1       0.561  10.703  20.357  0.00  0.00    +0.000 A 
ATOM     11  H   UNL     1       1.488   6.507  21.503  0.00  0.00    +0.000 HD
ENDROOT
BRANCH   1  15
ATOM     12  N   UNL     1      -3.155  13.066  20.719  0.00  0.00    +0.000 NA
ATOM     13  C   UNL     1      -2.910  12.476  22.043  0.00  0.00    +0.000 C 
ATOM     14  C   UNL     1      -1.576  12.888  22.673  0.00  0.00    +0.000 C 
ATOM     15  C   UNL     1      -0.372  12.643  21.752  0.00  0.00    +0.000 C 
ATOM     16  C   UNL     1      -0.685  13.347  20.420  0.00  0.00    +0.000 C 
ATOM     17  C   UNL     1      -2.009  12.871  19.812  0.00  0.00    +0.000 C 
BRANCH  12  18
ATOM     18  C   UNL     1      -4.373  12.473  20.104  0.00  0.00    +0.000 C 
BRANCH  18  19
ATOM     19  C   UNL     1      -5.559  12.362  21.088  0.00  0.00    +0.000 C 
BRANCH  19  21
ATOM     20  C   UNL     1      -7.822  11.680  20.710  0.00  0.00    +0.000 C 
ATOM     21  N   UNL     1      -6.842  12.737  20.479  0.00  0.00    +0.000 NA
ATOM     22  H   UNL     1      -7.175  13.604  20.901  0.00  0.00    +0.000 HD
ENDBRANCH  19  21
ENDBRANCH  18  19
ENDBRANCH  12  18
ENDBRANCH   1  15
BRANCH   6  23
ATOM     23  C   UNL     1       2.753   6.306  19.055  0.00  0.00    +0.000 A 
ATOM     24  C   UNL     1       2.209   5.547  18.022  0.00  0.00    +0.000 A 
ATOM     25  C   UNL     1       2.970   4.561  17.395  0.00  0.00    +0.000 A 
ATOM     26  C   UNL     1       4.273   4.271  17.821  0.00  0.00    +0.000 A 
ATOM     27  C   UNL     1       4.820   4.988  18.899  0.00  0.00    +0.000 A 
ATOM     28  C   UNL     1       4.057   6.010  19.486  0.00  0.00    +0.000 A 
BRANCH  26  29
ATOM     29  O   UNL     1       4.844   3.279  17.067  0.00  0.00    +0.000 OA
ATOM     30  C   UNL     1       5.639   3.640  15.951  0.00  0.00    +0.000 C 
ENDBRANCH  26  29
BRANCH  27  31
ATOM     31  O   UNL     1       6.079   4.665  19.329  0.00  0.00    +0.000 OA
ATOM     32  C   UNL     1       7.131   5.595  19.106  0.00  0.00    +0.000 C 
ENDBRANCH  27  31
ENDBRANCH   6  23
TORSDOF 7
ENDMDL
MODEL 6
REMARK VINA RESULT:      -7.5      2.103      3.364
REMARK  Name = 
REMARK  11 active torsions:
REMARK  status: ('A' for Active; 'I' for Inactive)
REMARK    1  A    between atoms: C_1  and  N_2
REMARK    2  A    between atoms: N_2  and  C_3
REMARK    3  A    between atoms: C_3  and  C_4
REMARK    4  A    between atoms: C_4  and  N_5
REMARK    5  A    between atoms: C_8  and  C_9
REMARK    6  A    between atoms: C_14  and  C_15
REMARK    7  A    between atoms: C_18  and  O_19
REMARK    8  A    between atoms: O_19  and  C_20
REMARK    9  A    between atoms: C_21  and  O_22
REMARK   10  A    between atoms: O_22  and  C_23
REMARK   11  A    between atoms: C_25  and  C_26
REMARK                            x       y       z     vdW  Elec       q    Type
REMARK                         _______ _______ _______ _____ _____    ______ ____
ROOT
ATOM      1  C   UNL     1      -0.550  10.782  21.438  0.00  0.00    +0.000 A 
ATOM      2  C   UNL     1      -0.147  10.076  22.583  0.00  0.00    +0.000 A 
ATOM      3  C   UNL     1       0.705   8.958  22.516  0.00  0.00    +0.000 A 
ATOM      4  C   UNL     1       1.166   8.573  21.253  0.00  0.00    +0.000 A 
ATOM      5  N   UNL     1       2.016   7.568  20.865  0.00  0.00    +0.000 N 
ATOM      6  C   UNL     1       2.265   7.616  19.503  0.00  0.00    +0.000 A 
ATOM      7  C   UNL     1       1.465   8.633  18.990  0.00  0.00    +0.000 A 
ATOM      8  C   UNL     1       1.347   9.145  17.593  0.00  0.00    +0.000 C 
ATOM      9  C   UNL     1       0.778   9.225  20.094  0.00  0.00    +0.000 A 
ATOM     10  C   UNL     1      -0.123  10.300  20.192  0.00  0.00    +0.000 A 
ATOM     11  H   UNL     1       2.438   6.907  21.499  0.00  0.00    +0.000 HD
ENDROOT
BRANCH   1  15
ATOM     12  N   UNL     1       0.001  14.458  20.573  0.00  0.00    +0.000 NA
ATOM     13  C   UNL     1      -0.638  13.513  19.645  0.00  0.00    +0.000 C 
ATOM     14  C   UNL     1      -1.805  12.731  20.256  0.00  0.00    +0.000 C 
ATOM     15  C   UNL     1      -1.436  12.021  21.568  0.00  0.00    +0.000 C 
ATOM     16  C   UNL     1      -0.839  13.094  22.497  0.00  0.00    +0.000 C 
ATOM     17  C   UNL     1       0.349  13.818  21.854  0.00  0.00    +0.000 C 
BRANCH  12  18
ATOM     18  C   UNL     1       1.230  15.033  19.963  0.00  0.00    +0.000 C 
BRANCH  18  19
ATOM     19  C   UNL     1       2.529  14.364  20.464  0.00  0.00    +0.000 C 
BRANCH  19  21
ATOM     20  C   UNL     1       2.925  14.425  18.104  0.00  0.00    +0.000 C 
ATOM     21  N   UNL     1       3.546  14.233  19.412  0.00  0.00    +0.000 NA
ATOM     22  H   UNL     1       4.268  14.940  19.550  0.00  0.00    +0.000 HD
ENDBRANCH  19  21
ENDBRANCH  18  19
ENDBRANCH  12  18
ENDBRANCH   1  15
BRANCH   6  23
ATOM     23  C   UNL     1       3.246   6.734  18.862  0.00  0.00    +0.000 A 
ATOM     24  C   UNL     1       3.799   7.050  17.624  0.00  0.00    +0.000 A 
ATOM     25  C   UNL     1       4.804   6.254  17.077  0.00  0.00    +0.000 A 
ATOM     26  C   UNL     1       5.241   5.091  17.725  0.00  0.00    +0.000 A 
ATOM     27  C   UNL     1       4.656   4.725  18.949  0.00  0.00    +0.000 A 
ATOM     28  C   UNL     1       3.680   5.564  19.509  0.00  0.00    +0.000 A 
BRANCH  26  29
ATOM     29  O   UNL     1       6.238   4.464  17.024  0.00  0.00    +0.000 OA
ATOM     30  C   UNL     1       6.477   4.850  15.681  0.00  0.00    +0.000 C 
ENDBRANCH  26  29
BRANCH  27  31
ATOM     31  O   UNL     1       5.066   3.565  19.551  0.00  0.00    +0.000 OA
ATOM     32  C   UNL     1       4.086   2.592  19.885  0.00  0.00    +0.000 C 
ENDBRANCH  27  31
ENDBRANCH   6  23
TORSDOF 7
ENDMDL
MODEL 7
REMARK VINA RESULT:      -7.4      1.733      2.199
REMARK  Name = 
REMARK  11 active torsions:
REMARK  status: ('A' for Active; 'I' for Inactive)
REMARK    1  A    between atoms: C_1  and  N_2
REMARK    2  A    between atoms: N_2  and  C_3
REMARK    3  A    between atoms: C_3  and  C_4
REMARK    4  A    between atoms: C_4  and  N_5
REMARK    5  A    between atoms: C_8  and  C_9
REMARK    6  A    between atoms: C_14  and  C_15
REMARK    7  A    between atoms: C_18  and  O_19
REMARK    8  A    between atoms: O_19  and  C_20
REMARK    9  A    between atoms: C_21  and  O_22
REMARK   10  A    between atoms: O_22  and  C_23
REMARK   11  A    between atoms: C_25  and  C_26
REMARK                            x       y       z     vdW  Elec       q    Type
REMARK                         _______ _______ _______ _____ _____    ______ ____
ROOT
ATOM      1  C   UNL     1      -0.919  11.889  21.623  0.00  0.00    +0.000 A 
ATOM      2  C   UNL     1      -0.808  11.141  22.806  0.00  0.00    +0.000 A 
ATOM      3  C   UNL     1      -0.196   9.874  22.840  0.00  0.00    +0.000 A 
ATOM      4  C   UNL     1       0.328   9.379  21.642  0.00  0.00    +0.000 A 
ATOM      5  N   UNL     1       1.000   8.216  21.358  0.00  0.00    +0.000 N 
ATOM      6  C   UNL     1       1.417   8.185  20.038  0.00  0.00    +0.000 A 
ATOM      7  C   UNL     1       0.907   9.330  19.433  0.00  0.00    +0.000 A 
ATOM      8  C   UNL     1       1.065   9.825  18.035  0.00  0.00    +0.000 C 
ATOM      9  C   UNL     1       0.223  10.070  20.447  0.00  0.00    +0.000 A 
ATOM     10  C   UNL     1      -0.449  11.305  20.437  0.00  0.00    +0.000 A 
ATOM     11  H   UNL     1       1.200   7.498  22.036  0.00  0.00    +0.000 HD
ENDROOT
BRANCH   1  15
ATOM     12  N   UNL     1      -4.033  13.295  23.323  0.00  0.00    +0.000 NA
ATOM     13  C   UNL     1      -2.697  13.365  23.934  0.00  0.00    +0.000 C 
ATOM     14  C   UNL     1      -1.624  13.967  23.021  0.00  0.00    +0.000 C 
ATOM     15  C   UNL     1      -1.546  13.283  21.647  0.00  0.00    +0.000 C 
ATOM     16  C   UNL     1      -2.967  13.314  21.058  0.00  0.00    +0.000 C 
ATOM     17  C   UNL     1      -3.995  12.665  21.991  0.00  0.00    +0.000 C 
BRANCH  12  18
ATOM     18  C   UNL     1      -4.965  12.535  24.199  0.00  0.00    +0.000 C 
BRANCH  18  19
ATOM     19  C   UNL     1      -6.433  12.999  24.074  0.00  0.00    +0.000 C 
BRANCH  19  21
ATOM     20  C   UNL     1      -7.914  11.982  22.492  0.00  0.00    +0.000 C 
ATOM     21  N   UNL     1      -7.365  11.888  23.842  0.00  0.00    +0.000 NA
ATOM     22  H   UNL     1      -6.867  11.003  23.943  0.00  0.00    +0.000 HD
ENDBRANCH  19  21
ENDBRANCH  18  19
ENDBRANCH  12  18
ENDBRANCH   1  15
BRANCH   6  23
ATOM     23  C   UNL     1       2.271   7.111  19.519  0.00  0.00    +0.000 A 
ATOM     24  C   UNL     1       3.079   7.308  18.402  0.00  0.00    +0.000 A 
ATOM     25  C   UNL     1       3.959   6.311  17.983  0.00  0.00    +0.000 A 
ATOM     26  C   UNL     1       4.015   5.073  18.636  0.00  0.00    +0.000 A 
ATOM     27  C   UNL     1       3.169   4.834  19.733  0.00  0.00    +0.000 A 
ATOM     28  C   UNL     1       2.323   5.867  20.170  0.00  0.00    +0.000 A 
BRANCH  26  29
ATOM     29  O   UNL     1       4.950   4.245  18.073  0.00  0.00    +0.000 OA
ATOM     30  C   UNL     1       4.786   3.846  16.723  0.00  0.00    +0.000 C 
ENDBRANCH  26  29
BRANCH  27  31
ATOM     31  O   UNL     1       3.207   3.605  20.335  0.00  0.00    +0.000 OA
ATOM     32  C   UNL     1       2.041   2.793  20.292  0.00  0.00    +0.000 C 
ENDBRANCH  27  31
ENDBRANCH   6  23
TORSDOF 7
ENDMDL
MODEL 8
REMARK VINA RESULT:      -7.4      1.722      2.838
REMARK  Name = 
REMARK  11 active torsions:
REMARK  status: ('A' for Active; 'I' for Inactive)
REMARK    1  A    between atoms: C_1  and  N_2
REMARK    2  A    between atoms: N_2  and  C_3
REMARK    3  A    between atoms: C_3  and  C_4
REMARK    4  A    between atoms: C_4  and  N_5
REMARK    5  A    between atoms: C_8  and  C_9
REMARK    6  A    between atoms: C_14  and  C_15
REMARK    7  A    between atoms: C_18  and  O_19
REMARK    8  A    between atoms: O_19  and  C_20
REMARK    9  A    between atoms: C_21  and  O_22
REMARK   10  A    between atoms: O_22  and  C_23
REMARK   11  A    between atoms: C_25  and  C_26
REMARK                            x       y       z     vdW  Elec       q    Type
REMARK                         _______ _______ _______ _____ _____    ______ ____
ROOT
ATOM      1  C   UNL     1       0.458  11.459  20.313  0.00  0.00    +0.000 A 
ATOM      2  C   UNL     1       0.233  11.031  21.631  0.00  0.00    +0.000 A 
ATOM      3  C   UNL     1       0.521   9.721  22.056  0.00  0.00    +0.000 A 
ATOM      4  C   UNL     1       1.068   8.843  21.116  0.00  0.00    +0.000 A 
ATOM      5  N   UNL     1       1.480   7.538  21.224  0.00  0.00    +0.000 N 
ATOM      6  C   UNL     1       2.049   7.089  20.044  0.00  0.00    +0.000 A 
ATOM      7  C   UNL     1       1.905   8.118  19.118  0.00  0.00    +0.000 A 
ATOM      8  C   UNL     1       2.359   8.199  17.699  0.00  0.00    +0.000 C 
ATOM      9  C   UNL     1       1.287   9.213  19.799  0.00  0.00    +0.000 A 
ATOM     10  C   UNL     1       0.930  10.511  19.393  0.00  0.00    +0.000 A 
ATOM     11  H   UNL     1       1.414   6.992  22.069  0.00  0.00    +0.000 HD
ENDROOT
BRANCH   1  15
ATOM     12  N   UNL     1      -2.618  13.690  20.663  0.00  0.00    +0.000 NA
ATOM     13  C   UNL     1      -1.534  13.673  21.656  0.00  0.00    +0.000 C 
ATOM     14  C   UNL     1      -0.138  13.878  21.060  0.00  0.00    +0.000 C 
ATOM     15  C   UNL     1       0.178  12.907  19.912  0.00  0.00    +0.000 C 
ATOM     16  C   UNL     1      -0.970  13.040  18.895  0.00  0.00    +0.000 C 
ATOM     17  C   UNL     1      -2.340  12.786  19.533  0.00  0.00    +0.000 C 
BRANCH  12  18
ATOM     18  C   UNL     1      -3.907  13.302  21.296  0.00  0.00    +0.000 C 
BRANCH  18  19
ATOM     19  C   UNL     1      -3.832  13.234  22.838  0.00  0.00    +0.000 C 
BRANCH  19  21
ATOM     20  C   UNL     1      -4.750  12.376  24.875  0.00  0.00    +0.000 C 
ATOM     21  N   UNL     1      -4.833  12.329  23.418  0.00  0.00    +0.000 NA
ATOM     22  H   UNL     1      -5.764  12.621  23.123  0.00  0.00    +0.000 HD
ENDBRANCH  19  21
ENDBRANCH  18  19
ENDBRANCH  12  18
ENDBRANCH   1  15
BRANCH   6  23
ATOM     23  C   UNL     1       2.688   5.773  19.943  0.00  0.00    +0.000 A 
ATOM     24  C   UNL     1       1.981   4.605  20.217  0.00  0.00    +0.000 A 
ATOM     25  C   UNL     1       2.573   3.359  20.017  0.00  0.00    +0.000 A 
ATOM     26  C   UNL     1       3.903   3.249  19.592  0.00  0.00    +0.000 A 
ATOM     27  C   UNL     1       4.652   4.416  19.363  0.00  0.00    +0.000 A 
ATOM     28  C   UNL     1       4.024   5.662  19.523  0.00  0.00    +0.000 A 
BRANCH  26  29
ATOM     29  O   UNL     1       4.283   1.940  19.450  0.00  0.00    +0.000 OA
ATOM     30  C   UNL     1       3.741   1.181  18.383  0.00  0.00    +0.000 C 
ENDBRANCH  26  29
BRANCH  27  31
ATOM     31  O   UNL     1       5.963   4.292  18.987  0.00  0.00    +0.000 OA
ATOM     32  C   UNL     1       6.782   5.453  18.991  0.00  0.00    +0.000 C 
ENDBRANCH  27  31
ENDBRANCH   6  23
TORSDOF 7
ENDMDL
MODEL 9
REMARK VINA RESULT:      -7.4      2.362      3.861
REMARK  Name = 
REMARK  11 active torsions:
REMARK  status: ('A' for Active; 'I' for Inactive)
REMARK    1  A    between atoms: C_1  and  N_2
REMARK    2  A    between atoms: N_2  and  C_3
REMARK    3  A    between atoms: C_3  and  C_4
REMARK    4  A    between atoms: C_4  and  N_5
REMARK    5  A    between atoms: C_8  and  C_9
REMARK    6  A    between atoms: C_14  and  C_15
REMARK    7  A    between atoms: C_18  and  O_19
REMARK    8  A    between atoms: O_19  and  C_20
REMARK    9  A    between atoms: C_21  and  O_22
REMARK   10  A    between atoms: O_22  and  C_23
REMARK   11  A    between atoms: C_25  and  C_26
REMARK                            x       y       z     vdW  Elec       q    Type
REMARK                         _______ _______ _______ _____ _____    ______ ____
ROOT
ATOM      1  C   UNL     1      -0.229  10.432  21.192  0.00  0.00    +0.000 A 
ATOM      2  C   UNL     1       0.051   9.559  22.256  0.00  0.00    +0.000 A 
ATOM      3  C   UNL     1       0.835   8.402  22.094  0.00  0.00    +0.000 A 
ATOM      4  C   UNL     1       1.356   8.149  20.821  0.00  0.00    +0.000 A 
ATOM      5  N   UNL     1       2.166   7.144  20.355  0.00  0.00    +0.000 N 
ATOM      6  C   UNL     1       2.509   7.346  19.029  0.00  0.00    +0.000 A 
ATOM      7  C   UNL     1       1.811   8.474  18.607  0.00  0.00    +0.000 A 
ATOM      8  C   UNL     1       1.821   9.166  17.285  0.00  0.00    +0.000 C 
ATOM      9  C   UNL     1       1.089   8.968  19.737  0.00  0.00    +0.000 A 
ATOM     10  C   UNL     1       0.251  10.083  19.921  0.00  0.00    +0.000 A 
ATOM     11  H   UNL     1       2.501   6.380  20.921  0.00  0.00    +0.000 HD
ENDROOT
BRANCH   1  15
ATOM     12  N   UNL     1       0.130  14.010  19.913  0.00  0.00    +0.000 NA
ATOM     13  C   UNL     1      -0.727  13.015  19.253  0.00  0.00    +0.000 C 
ATOM     14  C   UNL     1      -1.716  12.319  20.194  0.00  0.00    +0.000 C 
ATOM     15  C   UNL     1      -1.042  11.704  21.430  0.00  0.00    +0.000 C 
ATOM     16  C   UNL     1      -0.223  12.827  22.091  0.00  0.00    +0.000 C 
ATOM     17  C   UNL     1       0.777  13.462  21.119  0.00  0.00    +0.000 C 
BRANCH  12  18
ATOM     18  C   UNL     1       1.176  14.497  18.974  0.00  0.00    +0.000 C 
BRANCH  18  19
ATOM     19  C   UNL     1       1.869  13.360  18.191  0.00  0.00    +0.000 C 
BRANCH  19  21
ATOM     20  C   UNL     1       3.736  14.786  18.648  0.00  0.00    +0.000 C 
ATOM     21  N   UNL     1       3.253  13.683  17.822  0.00  0.00    +0.000 NA
ATOM     22  H   UNL     1       3.843  12.864  17.974  0.00  0.00    +0.000 HD
ENDBRANCH  19  21
ENDBRANCH  18  19
ENDBRANCH  12  18
ENDBRANCH   1  15
BRANCH   6  23
ATOM     23  C   UNL     1       3.474   6.486  18.337  0.00  0.00    +0.000 A 
ATOM     24  C   UNL     1       3.207   5.138  18.113  0.00  0.00    +0.000 A 
ATOM     25  C   UNL     1       4.089   4.359  17.365  0.00  0.00    +0.000 A 
ATOM     26  C   UNL     1       5.286   4.892  16.871  0.00  0.00    +0.000 A 
ATOM     27  C   UNL     1       5.601   6.236  17.134  0.00  0.00    +0.000 A 
ATOM     28  C   UNL     1       4.679   7.018  17.847  0.00  0.00    +0.000 A 
BRANCH  26  29
ATOM     29  O   UNL     1       5.999   3.963  16.158  0.00  0.00    +0.000 OA
ATOM     30  C   UNL     1       5.941   3.996  14.742  0.00  0.00    +0.000 C 
ENDBRANCH  26  29
BRANCH  27  31
ATOM     31  O   UNL     1       6.794   6.731  16.678  0.00  0.00    +0.000 OA
ATOM     32  C   UNL     1       7.547   7.579  17.535  0.00  0.00    +0.000 C 
ENDBRANCH  27  31
ENDBRANCH   6  23
TORSDOF 7
ENDMDL
