MODEL 1
REMARK VINA RESULT:      -7.5      0.000      0.000
REMARK  Name = 
REMARK  12 active torsions:
REMARK  status: ('A' for Active; 'I' for Inactive)
REMARK    1  A    between atoms: C_1  and  C_2
REMARK    2  A    between atoms: C_2  and  C_3
REMARK    3  A    between atoms: C_3  and  O_4
REMARK    4  A    between atoms: C_3  and  C_5
REMARK    5  A    between atoms: C_3  and  C_11
REMARK    6  A    between atoms: N_7  and  C_8
REMARK    7  A    between atoms: C_8  and  C_9
REMARK    8  A    between atoms: C_8  and  C_10
REMARK    9  A    between atoms: C_17  and  C_18
REMARK   10  A    between atoms: C_18  and  O_19
REMARK   11  A    between atoms: O_19  and  C_20
REMARK   12  A    between atoms: C_20  and  C_21
REMARK                            x       y       z     vdW  Elec       q    Type
REMARK                         _______ _______ _______ _____ _____    ______ ____
ROOT
ATOM      1  C   UNL     1       0.815  10.484  19.643  0.00  0.00    +0.000 A 
ATOM      2  C   UNL     1       1.738   9.646  18.843  0.00  0.00    +0.000 A 
ATOM      3  C   UNL     1       1.980   8.378  19.187  0.00  0.00    +0.000 A 
ATOM      4  N   UNL     1       1.390   7.824  20.298  0.00  0.00    +0.000 N 
ATOM      5  C   UNL     1       0.554   8.500  21.141  0.00  0.00    +0.000 A 
ATOM      6  O   UNL     1       0.075   7.973  22.142  0.00  0.00    +0.000 OA
ATOM      7  C   UNL     1       0.243   9.938  20.757  0.00  0.00    +0.000 A 
ATOM      8  C   UNL     1       1.770   6.418  20.474  0.00  0.00    +0.000 C 
ATOM      9  C   UNL     1       2.700   6.191  19.325  0.00  0.00    +0.000 A 
ATOM     10  C   UNL     1       3.403   5.066  18.948  0.00  0.00    +0.000 A 
ATOM     11  C   UNL     1       4.219   5.160  17.810  0.00  0.00    +0.000 A 
ATOM     12  C   UNL     1       4.965   4.055  17.364  0.00  0.00    +0.000 A 
ATOM     13  C   UNL     1       5.773   4.158  16.234  0.00  0.00    +0.000 A 
ATOM     14  C   UNL     1       5.840   5.362  15.544  0.00  0.00    +0.000 A 
ATOM     15  C   UNL     1       5.097   6.464  15.985  0.00  0.00    +0.000 A 
ATOM     16  C   UNL     1       4.281   6.397  17.105  0.00  0.00    +0.000 A 
ATOM     17  N   UNL     1       3.587   7.493  17.479  0.00  0.00    +0.000 NA
ATOM     18  C   UNL     1       2.822   7.351  18.568  0.00  0.00    +0.000 A 
ENDROOT
BRANCH   1  19
ATOM     19  C   UNL     1       0.590  11.920  19.095  0.00  0.00    +0.000 C 
BRANCH  19  20
ATOM     20  C   UNL     1      -0.917  12.038  18.604  0.00  0.00    +0.000 C 
ATOM     21  O   UNL     1      -1.700  12.856  19.088  0.00  0.00    +0.000 OA
ATOM     22  N   UNL     1      -1.305  11.175  17.590  0.00  0.00    +0.000 N 
ATOM     23  H   UNL     1      -0.583  10.704  17.040  0.00  0.00    +0.000 HD
BRANCH  22  24
ATOM     24  C   UNL     1      -2.669  11.202  17.049  0.00  0.00    +0.000 C 
ATOM     25  C   UNL     1      -2.708  10.866  15.558  0.00  0.00    +0.000 C 
ATOM     26  C   UNL     1      -3.562  10.235  17.820  0.00  0.00    +0.000 C 
ENDBRANCH  22  24
ENDBRANCH  19  20
BRANCH  19  28
ATOM     27  C   UNL     1       2.568  13.355  18.207  0.00  0.00    +0.000 C 
ATOM     28  C   UNL     1       1.501  12.310  17.897  0.00  0.00    +0.000 C 
ENDBRANCH  19  28
BRANCH  19  29
ATOM     29  O   UNL     1       0.938  12.896  20.074  0.00  0.00    +0.000 OA
ATOM     30  H   UNL     1       0.266  12.890  20.773  0.00  0.00    +0.000 HD
ENDBRANCH  19  29
ENDBRANCH   1  19
BRANCH   7  31
ATOM     31  C   UNL     1      -0.692  10.579  21.762  0.00  0.00    +0.000 C 
BRANCH  31  32
ATOM     32  O   UNL     1      -0.089  11.702  22.434  0.00  0.00    +0.000 OA
BRANCH  32  33
ATOM     33  C   UNL     1      -0.893  12.752  22.716  0.00  0.00    +0.000 C 
ATOM     34  C   UNL     1      -2.268  12.295  23.119  0.00  0.00    +0.000 C 
ATOM     35  O   UNL     1      -0.566  13.938  22.640  0.00  0.00    +0.000 OA
ENDBRANCH  32  33
ENDBRANCH  31  32
ENDBRANCH   7  31
TORSDOF 8
ENDMDL
MODEL 2
REMARK VINA RESULT:      -6.9      3.708      8.429
REMARK  Name = 
REMARK  12 active torsions:
REMARK  status: ('A' for Active; 'I' for Inactive)
REMARK    1  A    between atoms: C_1  and  C_2
REMARK    2  A    between atoms: C_2  and  C_3
REMARK    3  A    between atoms: C_3  and  O_4
REMARK    4  A    between atoms: C_3  and  C_5
REMARK    5  A    between atoms: C_3  and  C_11
REMARK    6  A    between atoms: N_7  and  C_8
REMARK    7  A    between atoms: C_8  and  C_9
REMARK    8  A    between atoms: C_8  and  C_10
REMARK    9  A    between atoms: C_17  and  C_18
REMARK   10  A    between atoms: C_18  and  O_19
REMARK   11  A    between atoms: O_19  and  C_20
REMARK   12  A    between atoms: C_20  and  C_21
REMARK                            x       y       z     vdW  Elec       q    Type
REMARK                         _______ _______ _______ _____ _____    ______ ____
ROOT
ATOM      1  C   UNL     1       3.833   5.633  18.174  0.00  0.00    +0.000 A 
ATOM      2  C   UNL     1       3.236   6.988  18.141  0.00  0.00    +0.000 A 
ATOM      3  C   UNL     1       2.430   7.403  19.123  0.00  0.00    +0.000 A 
ATOM      4  N   UNL     1       2.125   6.578  20.179  0.00  0.00    +0.000 N 
ATOM      5  C   UNL     1       2.576   5.294  20.307  0.00  0.00    +0.000 A 
ATOM      6  O   UNL     1       2.251   4.581  21.254  0.00  0.00    +0.000 OA
ATOM      7  C   UNL     1       3.515   4.808  19.215  0.00  0.00    +0.000 A 
ATOM      8  C   UNL     1       1.251   7.240  21.154  0.00  0.00    +0.000 C 
ATOM      9  C   UNL     1       1.039   8.584  20.534  0.00  0.00    +0.000 A 
ATOM     10  C   UNL     1       0.296   9.663  20.962  0.00  0.00    +0.000 A 
ATOM     11  C   UNL     1       0.279  10.806  20.148  0.00  0.00    +0.000 A 
ATOM     12  C   UNL     1      -0.456  11.946  20.518  0.00  0.00    +0.000 A 
ATOM     13  C   UNL     1      -0.467  13.076  19.703  0.00  0.00    +0.000 A 
ATOM     14  C   UNL     1       0.254  13.073  18.516  0.00  0.00    +0.000 A 
ATOM     15  C   UNL     1       0.988  11.941  18.144  0.00  0.00    +0.000 A 
ATOM     16  C   UNL     1       1.024  10.799  18.932  0.00  0.00    +0.000 A 
ATOM     17  N   UNL     1       1.752   9.739  18.521  0.00  0.00    +0.000 NA
ATOM     18  C   UNL     1       1.737   8.676  19.334  0.00  0.00    +0.000 A 
ENDROOT
BRANCH   1  19
ATOM     19  C   UNL     1       4.790   5.309  16.993  0.00  0.00    +0.000 C 
BRANCH  19  20
ATOM     20  C   UNL     1       6.281   5.303  17.544  0.00  0.00    +0.000 C 
ATOM     21  O   UNL     1       6.990   4.297  17.500  0.00  0.00    +0.000 OA
ATOM     22  N   UNL     1       6.749   6.498  18.070  0.00  0.00    +0.000 N 
ATOM     23  H   UNL     1       6.245   7.362  17.857  0.00  0.00    +0.000 HD
BRANCH  22  24
ATOM     24  C   UNL     1       8.114   6.613  18.597  0.00  0.00    +0.000 C 
ATOM     25  C   UNL     1       8.556   8.069  18.748  0.00  0.00    +0.000 C 
ATOM     26  C   UNL     1       8.224   5.898  19.940  0.00  0.00    +0.000 C 
ENDBRANCH  22  24
ENDBRANCH  19  20
BRANCH  19  28
ATOM     27  C   UNL     1       5.467   5.883  14.549  0.00  0.00    +0.000 C 
ATOM     28  C   UNL     1       4.734   6.320  15.814  0.00  0.00    +0.000 C 
ENDBRANCH  19  28
BRANCH  19  29
ATOM     29  O   UNL     1       4.420   4.084  16.364  0.00  0.00    +0.000 OA
ATOM     30  H   UNL     1       3.532   4.184  15.986  0.00  0.00    +0.000 HD
ENDBRANCH  19  29
ENDBRANCH   1  19
BRANCH   7  31
ATOM     31  C   UNL     1       3.948   3.378  19.467  0.00  0.00    +0.000 C 
BRANCH  31  32
ATOM     32  O   UNL     1       3.476   2.475  18.448  0.00  0.00    +0.000 OA
BRANCH  32  33
ATOM     33  C   UNL     1       2.178   2.586  18.084  0.00  0.00    +0.000 C 
ATOM     34  C   UNL     1       1.265   2.002  19.127  0.00  0.00    +0.000 C 
ATOM     35  O   UNL     1       1.777   3.083  17.030  0.00  0.00    +0.000 OA
ENDBRANCH  32  33
ENDBRANCH  31  32
ENDBRANCH   7  31
TORSDOF 8
ENDMDL
MODEL 3
REMARK VINA RESULT:      -6.8      1.242      1.401
REMARK  Name = 
REMARK  12 active torsions:
REMARK  status: ('A' for Active; 'I' for Inactive)
REMARK    1  A    between atoms: C_1  and  C_2
REMARK    2  A    between atoms: C_2  and  C_3
REMARK    3  A    between atoms: C_3  and  O_4
REMARK    4  A    between atoms: C_3  and  C_5
REMARK    5  A    between atoms: C_3  and  C_11
REMARK    6  A    between atoms: N_7  and  C_8
REMARK    7  A    between atoms: C_8  and  C_9
REMARK    8  A    between atoms: C_8  and  C_10
REMARK    9  A    between atoms: C_17  and  C_18
REMARK   10  A    between atoms: C_18  and  O_19
REMARK   11  A    between atoms: O_19  and  C_20
REMARK   12  A    between atoms: C_20  and  C_21
REMARK                            x       y       z     vdW  Elec       q    Type
REMARK                         _______ _______ _______ _____ _____    ______ ____
ROOT
ATOM      1  C   UNL     1       0.005  11.094  19.905  0.00  0.00    +0.000 A 
ATOM      2  C   UNL     1       0.945  10.252  19.130  0.00  0.00    +0.000 A 
ATOM      3  C   UNL     1       1.323   9.054  19.585  0.00  0.00    +0.000 A 
ATOM      4  N   UNL     1       0.860   8.580  20.789  0.00  0.00    +0.000 N 
ATOM      5  C   UNL     1       0.023   9.274  21.617  0.00  0.00    +0.000 A 
ATOM      6  O   UNL     1      -0.340   8.823  22.701  0.00  0.00    +0.000 OA
ATOM      7  C   UNL     1      -0.441  10.629  21.109  0.00  0.00    +0.000 A 
ATOM      8  C   UNL     1       1.376   7.238  21.082  0.00  0.00    +0.000 C 
ATOM      9  C   UNL     1       2.246   6.963  19.897  0.00  0.00    +0.000 A 
ATOM     10  C   UNL     1       3.021   5.866  19.588  0.00  0.00    +0.000 A 
ATOM     11  C   UNL     1       3.749   5.901  18.389  0.00  0.00    +0.000 A 
ATOM     12  C   UNL     1       4.562   4.819  18.005  0.00  0.00    +0.000 A 
ATOM     13  C   UNL     1       5.281   4.862  16.814  0.00  0.00    +0.000 A 
ATOM     14  C   UNL     1       5.193   5.985  15.999  0.00  0.00    +0.000 A 
ATOM     15  C   UNL     1       4.384   7.063  16.376  0.00  0.00    +0.000 A 
ATOM     16  C   UNL     1       3.652   7.053  17.555  0.00  0.00    +0.000 A 
ATOM     17  N   UNL     1       2.888   8.123  17.863  0.00  0.00    +0.000 NA
ATOM     18  C   UNL     1       2.212   8.039  19.016  0.00  0.00    +0.000 A 
ENDROOT
BRANCH   1  19
ATOM     19  C   UNL     1      -0.385  12.437  19.228  0.00  0.00    +0.000 C 
BRANCH  19  20
ATOM     20  C   UNL     1      -1.664  12.187  18.317  0.00  0.00    +0.000 C 
ATOM     21  O   UNL     1      -1.578  12.029  17.099  0.00  0.00    +0.000 OA
ATOM     22  N   UNL     1      -2.887  12.145  18.970  0.00  0.00    +0.000 N 
ATOM     23  H   UNL     1      -2.901  12.017  19.985  0.00  0.00    +0.000 HD
BRANCH  22  24
ATOM     24  C   UNL     1      -4.134  11.909  18.233  0.00  0.00    +0.000 C 
ATOM     25  C   UNL     1      -4.335  10.432  17.892  0.00  0.00    +0.000 C 
ATOM     26  C   UNL     1      -5.327  12.419  19.037  0.00  0.00    +0.000 C 
ENDBRANCH  22  24
ENDBRANCH  19  20
BRANCH  19  28
ATOM     27  C   UNL     1       1.665  14.023  19.019  0.00  0.00    +0.000 C 
ATOM     28  C   UNL     1       0.717  13.053  18.321  0.00  0.00    +0.000 C 
ENDBRANCH  19  28
BRANCH  19  29
ATOM     29  O   UNL     1      -0.583  13.457  20.204  0.00  0.00    +0.000 OA
ATOM     30  H   UNL     1       0.279  13.713  20.567  0.00  0.00    +0.000 HD
ENDBRANCH  19  29
ENDBRANCH   1  19
BRANCH   7  31
ATOM     31  C   UNL     1      -1.363  11.298  22.109  0.00  0.00    +0.000 C 
BRANCH  31  32
ATOM     32  O   UNL     1      -0.662  12.211  22.976  0.00  0.00    +0.000 OA
BRANCH  32  33
ATOM     33  C   UNL     1      -1.345  13.298  23.401  0.00  0.00    +0.000 C 
ATOM     34  C   UNL     1      -2.830  13.094  23.279  0.00  0.00    +0.000 C 
ATOM     35  O   UNL     1      -0.834  14.338  23.821  0.00  0.00    +0.000 OA
ENDBRANCH  32  33
ENDBRANCH  31  32
ENDBRANCH   7  31
TORSDOF 8
ENDMDL
MODEL 4
REMARK VINA RESULT:      -6.8      1.619      2.984
REMARK  Name = 
REMARK  12 active torsions:
REMARK  status: ('A' for Active; 'I' for Inactive)
REMARK    1  A    between atoms: C_1  and  C_2
REMARK    2  A    between atoms: C_2  and  C_3
REMARK    3  A    between atoms: C_3  and  O_4
REMARK    4  A    between atoms: C_3  and  C_5
REMARK    5  A    between atoms: C_3  and  C_11
REMARK    6  A    between atoms: N_7  and  C_8
REMARK    7  A    between atoms: C_8  and  C_9
REMARK    8  A    between atoms: C_8  and  C_10
REMARK    9  A    between atoms: C_17  and  C_18
REMARK   10  A    between atoms: C_18  and  O_19
REMARK   11  A    between atoms: O_19  and  C_20
REMARK   12  A    between atoms: C_20  and  C_21
REMARK                            x       y       z     vdW  Elec       q    Type
REMARK                         _______ _______ _______ _____ _____    ______ ____
ROOT
ATOM      1  C   UNL     1       0.420  10.822  19.936  0.00  0.00    +0.000 A 
ATOM      2  C   UNL     1       1.343   9.965  19.156  0.00  0.00    +0.000 A 
ATOM      3  C   UNL     1       1.599   8.711  19.540  0.00  0.00    +0.000 A 
ATOM      4  N   UNL     1       1.025   8.191  20.675  0.00  0.00    +0.000 N 
ATOM      5  C   UNL     1       0.191   8.889  21.503  0.00  0.00    +0.000 A 
ATOM      6  O   UNL     1      -0.274   8.392  22.527  0.00  0.00    +0.000 OA
ATOM      7  C   UNL     1      -0.136  10.309  21.074  0.00  0.00    +0.000 A 
ATOM      8  C   UNL     1       1.419   6.795  20.895  0.00  0.00    +0.000 C 
ATOM      9  C   UNL     1       2.340   6.536  19.746  0.00  0.00    +0.000 A 
ATOM     10  C   UNL     1       3.048   5.405  19.401  0.00  0.00    +0.000 A 
ATOM     11  C   UNL     1       3.853   5.467  18.252  0.00  0.00    +0.000 A 
ATOM     12  C   UNL     1       4.604   4.354  17.836  0.00  0.00    +0.000 A 
ATOM     13  C   UNL     1       5.400   4.424  16.695  0.00  0.00    +0.000 A 
ATOM     14  C   UNL     1       5.449   5.605  15.964  0.00  0.00    +0.000 A 
ATOM     15  C   UNL     1       4.701   6.715  16.374  0.00  0.00    +0.000 A 
ATOM     16  C   UNL     1       3.897   6.680  17.504  0.00  0.00    +0.000 A 
ATOM     17  N   UNL     1       3.197   7.782  17.847  0.00  0.00    +0.000 NA
ATOM     18  C   UNL     1       2.444   7.671  18.948  0.00  0.00    +0.000 A 
ENDROOT
BRANCH   1  19
ATOM     19  C   UNL     1       0.177  12.236  19.341  0.00  0.00    +0.000 C 
BRANCH  19  20
ATOM     20  C   UNL     1       1.116  13.268  20.102  0.00  0.00    +0.000 C 
ATOM     21  O   UNL     1       1.944  12.905  20.937  0.00  0.00    +0.000 OA
ATOM     22  N   UNL     1       0.961  14.605  19.768  0.00  0.00    +0.000 N 
ATOM     23  H   UNL     1       0.468  14.844  18.905  0.00  0.00    +0.000 HD
BRANCH  22  24
ATOM     24  C   UNL     1       1.782  15.647  20.398  0.00  0.00    +0.000 C 
ATOM     25  C   UNL     1       2.418  16.583  19.371  0.00  0.00    +0.000 C 
ATOM     26  C   UNL     1       0.944  16.454  21.385  0.00  0.00    +0.000 C 
ENDBRANCH  22  24
ENDBRANCH  19  20
BRANCH  19  28
ATOM     27  C   UNL     1      -2.315  11.998  18.639  0.00  0.00    +0.000 C 
ATOM     28  C   UNL     1      -1.283  12.754  19.469  0.00  0.00    +0.000 C 
ENDBRANCH  19  28
BRANCH  19  29
ATOM     29  O   UNL     1       0.377  12.232  17.929  0.00  0.00    +0.000 OA
ATOM     30  H   UNL     1      -0.019  13.035  17.556  0.00  0.00    +0.000 HD
ENDBRANCH  19  29
ENDBRANCH   1  19
BRANCH   7  31
ATOM     31  C   UNL     1      -1.067  10.977  22.065  0.00  0.00    +0.000 C 
BRANCH  31  32
ATOM     32  O   UNL     1      -0.403  11.993  22.842  0.00  0.00    +0.000 OA
BRANCH  32  33
ATOM     33  C   UNL     1      -1.123  13.095  23.151  0.00  0.00    +0.000 C 
ATOM     34  C   UNL     1      -2.598  12.849  22.989  0.00  0.00    +0.000 C 
ATOM     35  O   UNL     1      -0.649  14.177  23.504  0.00  0.00    +0.000 OA
ENDBRANCH  32  33
ENDBRANCH  31  32
ENDBRANCH   7  31
TORSDOF 8
ENDMDL
MODEL 5
REMARK VINA RESULT:      -6.6      1.901      2.744
REMARK  Name = 
REMARK  12 active torsions:
REMARK  status: ('A' for Active; 'I' for Inactive)
REMARK    1  A    between atoms: C_1  and  C_2
REMARK    2  A    between atoms: C_2  and  C_3
REMARK    3  A    between atoms: C_3  and  O_4
REMARK    4  A    between atoms: C_3  and  C_5
REMARK    5  A    between atoms: C_3  and  C_11
REMARK    6  A    between atoms: N_7  and  C_8
REMARK    7  A    between atoms: C_8  and  C_9
REMARK    8  A    between atoms: C_8  and  C_10
REMARK    9  A    between atoms: C_17  and  C_18
REMARK   10  A    between atoms: C_18  and  O_19
REMARK   11  A    between atoms: O_19  and  C_20
REMARK   12  A    between atoms: C_20  and  C_21
REMARK                            x       y       z     vdW  Elec       q    Type
REMARK                         _______ _______ _______ _____ _____    ______ ____
ROOT
ATOM      1  C   UNL     1      -0.923  11.672  20.045  0.00  0.00    +0.000 A 
ATOM      2  C   UNL     1      -0.019  10.667  19.441  0.00  0.00    +0.000 A 
ATOM      3  C   UNL     1       0.470   9.662  20.173  0.00  0.00    +0.000 A 
ATOM      4  N   UNL     1       0.157   9.544  21.506  0.00  0.00    +0.000 N 
ATOM      5  C   UNL     1      -0.631  10.425  22.191  0.00  0.00    +0.000 A 
ATOM      6  O   UNL     1      -0.858  10.298  23.392  0.00  0.00    +0.000 OA
ATOM      7  C   UNL     1      -1.220  11.563  21.374  0.00  0.00    +0.000 A 
ATOM      8  C   UNL     1       0.776   8.358  22.109  0.00  0.00    +0.000 C 
ATOM      9  C   UNL     1       1.537   7.775  20.961  0.00  0.00    +0.000 A 
ATOM     10  C   UNL     1       2.339   6.656  20.892  0.00  0.00    +0.000 A 
ATOM     11  C   UNL     1       2.941   6.361  19.659  0.00  0.00    +0.000 A 
ATOM     12  C   UNL     1       3.772   5.237  19.511  0.00  0.00    +0.000 A 
ATOM     13  C   UNL     1       4.365   4.953  18.283  0.00  0.00    +0.000 A 
ATOM     14  C   UNL     1       4.132   5.789  17.198  0.00  0.00    +0.000 A 
ATOM     15  C   UNL     1       3.304   6.909  17.341  0.00  0.00    +0.000 A 
ATOM     16  C   UNL     1       2.696   7.221  18.548  0.00  0.00    +0.000 A 
ATOM     17  N   UNL     1       1.907   8.314  18.623  0.00  0.00    +0.000 NA
ATOM     18  C   UNL     1       1.354   8.549  19.820  0.00  0.00    +0.000 A 
ENDROOT
BRANCH   1  19
ATOM     19  C   UNL     1      -1.455  12.752  19.062  0.00  0.00    +0.000 C 
BRANCH  19  20
ATOM     20  C   UNL     1      -2.567  12.087  18.141  0.00  0.00    +0.000 C 
ATOM     21  O   UNL     1      -2.300  11.599  17.043  0.00  0.00    +0.000 OA
ATOM     22  N   UNL     1      -3.859  12.077  18.645  0.00  0.00    +0.000 N 
ATOM     23  H   UNL     1      -4.001  12.245  19.644  0.00  0.00    +0.000 HD
BRANCH  22  24
ATOM     24  C   UNL     1      -4.966  11.479  17.888  0.00  0.00    +0.000 C 
ATOM     25  C   UNL     1      -5.904  10.665  18.778  0.00  0.00    +0.000 C 
ATOM     26  C   UNL     1      -5.755  12.565  17.161  0.00  0.00    +0.000 C 
ENDBRANCH  22  24
ENDBRANCH  19  20
BRANCH  19  28
ATOM     27  C   UNL     1       0.623  14.293  18.800  0.00  0.00    +0.000 C 
ATOM     28  C   UNL     1      -0.378  13.363  18.122  0.00  0.00    +0.000 C 
ENDBRANCH  19  28
BRANCH  19  29
ATOM     29  O   UNL     1      -1.925  13.895  19.772  0.00  0.00    +0.000 OA
ATOM     30  H   UNL     1      -1.298  14.623  19.642  0.00  0.00    +0.000 HD
ENDBRANCH  19  29
ENDBRANCH   1  19
BRANCH   7  31
ATOM     31  C   UNL     1      -2.074  12.469  22.239  0.00  0.00    +0.000 C 
BRANCH  31  32
ATOM     32  O   UNL     1      -3.436  12.547  21.774  0.00  0.00    +0.000 OA
BRANCH  32  33
ATOM     33  C   UNL     1      -4.402  12.610  22.717  0.00  0.00    +0.000 C 
ATOM     34  C   UNL     1      -5.643  13.274  22.186  0.00  0.00    +0.000 C 
ATOM     35  O   UNL     1      -4.293  12.198  23.874  0.00  0.00    +0.000 OA
ENDBRANCH  32  33
ENDBRANCH  31  32
ENDBRANCH   7  31
TORSDOF 8
ENDMDL
MODEL 6
REMARK VINA RESULT:      -6.5      1.720      2.671
REMARK  Name = 
REMARK  12 active torsions:
REMARK  status: ('A' for Active; 'I' for Inactive)
REMARK    1  A    between atoms: C_1  and  C_2
REMARK    2  A    between atoms: C_2  and  C_3
REMARK    3  A    between atoms: C_3  and  O_4
REMARK    4  A    between atoms: C_3  and  C_5
REMARK    5  A    between atoms: C_3  and  C_11
REMARK    6  A    between atoms: N_7  and  C_8
REMARK    7  A    between atoms: C_8  and  C_9
REMARK    8  A    between atoms: C_8  and  C_10
REMARK    9  A    between atoms: C_17  and  C_18
REMARK   10  A    between atoms: C_18  and  O_19
REMARK   11  A    between atoms: O_19  and  C_20
REMARK   12  A    between atoms: C_20  and  C_21
REMARK                            x       y       z     vdW  Elec       q    Type
REMARK                         _______ _______ _______ _____ _____    ______ ____
ROOT
ATOM      1  C   UNL     1       0.040  11.024  19.584  0.00  0.00    +0.000 A 
ATOM      2  C   UNL     1       1.016  10.149  18.896  0.00  0.00    +0.000 A 
ATOM      3  C   UNL     1       1.369   8.973  19.423  0.00  0.00    +0.000 A 
ATOM      4  N   UNL     1       0.846   8.554  20.623  0.00  0.00    +0.000 N 
ATOM      5  C   UNL     1      -0.029   9.284  21.377  0.00  0.00    +0.000 A 
ATOM      6  O   UNL     1      -0.446   8.883  22.461  0.00  0.00    +0.000 OA
ATOM      7  C   UNL     1      -0.466  10.614  20.786  0.00  0.00    +0.000 A 
ATOM      8  C   UNL     1       1.345   7.227  21.002  0.00  0.00    +0.000 C 
ATOM      9  C   UNL     1       2.272   6.899  19.875  0.00  0.00    +0.000 A 
ATOM     10  C   UNL     1       3.059   5.789  19.656  0.00  0.00    +0.000 A 
ATOM     11  C   UNL     1       3.845   5.769  18.493  0.00  0.00    +0.000 A 
ATOM     12  C   UNL     1       4.674   4.672  18.200  0.00  0.00    +0.000 A 
ATOM     13  C   UNL     1       5.451   4.661  17.045  0.00  0.00    +0.000 A 
ATOM     14  C   UNL     1       5.405   5.745  16.176  0.00  0.00    +0.000 A 
ATOM     15  C   UNL     1       4.580   6.839  16.463  0.00  0.00    +0.000 A 
ATOM     16  C   UNL     1       3.792   6.883  17.604  0.00  0.00    +0.000 A 
ATOM     17  N   UNL     1       3.015   7.964  17.825  0.00  0.00    +0.000 NA
ATOM     18  C   UNL     1       2.283   7.933  18.945  0.00  0.00    +0.000 A 
ENDROOT
BRANCH   1  19
ATOM     19  C   UNL     1      -0.314  12.335  18.828  0.00  0.00    +0.000 C 
BRANCH  19  20
ATOM     20  C   UNL     1      -0.219  13.546  19.853  0.00  0.00    +0.000 C 
ATOM     21  O   UNL     1       0.762  13.713  20.578  0.00  0.00    +0.000 OA
ATOM     22  N   UNL     1      -1.300  14.415  19.882  0.00  0.00    +0.000 N 
ATOM     23  H   UNL     1      -1.963  14.404  19.104  0.00  0.00    +0.000 HD
BRANCH  22  24
ATOM     24  C   UNL     1      -1.317  15.576  20.780  0.00  0.00    +0.000 C 
ATOM     25  C   UNL     1      -0.732  16.826  20.124  0.00  0.00    +0.000 C 
ATOM     26  C   UNL     1      -2.742  15.858  21.249  0.00  0.00    +0.000 C 
ENDBRANCH  22  24
ENDBRANCH  19  20
BRANCH  19  28
ATOM     27  C   UNL     1      -2.177  11.068  17.530  0.00  0.00    +0.000 C 
ATOM     28  C   UNL     1      -1.738  12.363  18.206  0.00  0.00    +0.000 C 
ENDBRANCH  19  28
BRANCH  19  29
ATOM     29  O   UNL     1       0.523  12.501  17.685  0.00  0.00    +0.000 OA
ATOM     30  H   UNL     1       1.101  13.266  17.831  0.00  0.00    +0.000 HD
ENDBRANCH  19  29
ENDBRANCH   1  19
BRANCH   7  31
ATOM     31  C   UNL     1      -1.434  11.328  21.707  0.00  0.00    +0.000 C 
BRANCH  31  32
ATOM     32  O   UNL     1      -0.778  11.907  22.852  0.00  0.00    +0.000 OA
BRANCH  32  33
ATOM     33  C   UNL     1      -1.351  13.003  23.397  0.00  0.00    +0.000 C 
ATOM     34  C   UNL     1      -2.848  12.874  23.440  0.00  0.00    +0.000 C 
ATOM     35  O   UNL     1      -0.742  13.998  23.797  0.00  0.00    +0.000 OA
ENDBRANCH  32  33
ENDBRANCH  31  32
ENDBRANCH   7  31
TORSDOF 8
ENDMDL
MODEL 7
REMARK VINA RESULT:      -6.4      1.951      3.444
REMARK  Name = 
REMARK  12 active torsions:
REMARK  status: ('A' for Active; 'I' for Inactive)
REMARK    1  A    between atoms: C_1  and  C_2
REMARK    2  A    between atoms: C_2  and  C_3
REMARK    3  A    between atoms: C_3  and  O_4
REMARK    4  A    between atoms: C_3  and  C_5
REMARK    5  A    between atoms: C_3  and  C_11
REMARK    6  A    between atoms: N_7  and  C_8
REMARK    7  A    between atoms: C_8  and  C_9
REMARK    8  A    between atoms: C_8  and  C_10
REMARK    9  A    between atoms: C_17  and  C_18
REMARK   10  A    between atoms: C_18  and  O_19
REMARK   11  A    between atoms: O_19  and  C_20
REMARK   12  A    between atoms: C_20  and  C_21
REMARK                            x       y       z     vdW  Elec       q    Type
REMARK                         _______ _______ _______ _____ _____    ______ ____
ROOT
ATOM      1  C   UNL     1       0.723  11.292  19.784  0.00  0.00    +0.000 A 
ATOM      2  C   UNL     1       1.507  10.231  19.110  0.00  0.00    +0.000 A 
ATOM      3  C   UNL     1       1.587   9.005  19.633  0.00  0.00    +0.000 A 
ATOM      4  N   UNL     1       0.957   8.701  20.816  0.00  0.00    +0.000 N 
ATOM      5  C   UNL     1       0.239   9.598  21.556  0.00  0.00    +0.000 A 
ATOM      6  O   UNL     1      -0.281   9.289  22.626  0.00  0.00    +0.000 OA
ATOM      7  C   UNL     1       0.111  10.993  20.969  0.00  0.00    +0.000 A 
ATOM      8  C   UNL     1       1.152   7.297  21.193  0.00  0.00    +0.000 C 
ATOM      9  C   UNL     1       2.015   6.783  20.086  0.00  0.00    +0.000 A 
ATOM     10  C   UNL     1       2.554   5.532  19.873  0.00  0.00    +0.000 A 
ATOM     11  C   UNL     1       3.347   5.351  18.729  0.00  0.00    +0.000 A 
ATOM     12  C   UNL     1       3.929   4.103  18.445  0.00  0.00    +0.000 A 
ATOM     13  C   UNL     1       4.716   3.933  17.308  0.00  0.00    +0.000 A 
ATOM     14  C   UNL     1       4.924   5.006  16.450  0.00  0.00    +0.000 A 
ATOM     15  C   UNL     1       4.344   6.249  16.729  0.00  0.00    +0.000 A 
ATOM     16  C   UNL     1       3.555   6.455  17.851  0.00  0.00    +0.000 A 
ATOM     17  N   UNL     1       3.021   7.676  18.065  0.00  0.00    +0.000 NA
ATOM     18  C   UNL     1       2.271   7.796  19.167  0.00  0.00    +0.000 A 
ENDROOT
BRANCH   1  19
ATOM     19  C   UNL     1       0.676  12.651  19.033  0.00  0.00    +0.000 C 
BRANCH  19  20
ATOM     20  C   UNL     1       1.266  13.774  19.992  0.00  0.00    +0.000 C 
ATOM     21  O   UNL     1       0.550  14.625  20.518  0.00  0.00    +0.000 OA
ATOM     22  N   UNL     1       2.635  13.739  20.213  0.00  0.00    +0.000 N 
ATOM     23  H   UNL     1       3.150  12.886  19.983  0.00  0.00    +0.000 HD
BRANCH  22  24
ATOM     24  C   UNL     1       3.288  14.718  21.090  0.00  0.00    +0.000 C 
ATOM     25  C   UNL     1       4.408  14.094  21.922  0.00  0.00    +0.000 C 
ATOM     26  C   UNL     1       3.842  15.877  20.265  0.00  0.00    +0.000 C 
ENDBRANCH  22  24
ENDBRANCH  19  20
BRANCH  19  28
ATOM     27  C   UNL     1      -1.608  12.026  17.961  0.00  0.00    +0.000 C 
ATOM     28  C   UNL     1      -0.745  13.108  18.603  0.00  0.00    +0.000 C 
ENDBRANCH  19  28
BRANCH  19  29
ATOM     29  O   UNL     1       1.360  12.564  17.785  0.00  0.00    +0.000 OA
ATOM     30  H   UNL     1       2.288  12.338  17.954  0.00  0.00    +0.000 HD
ENDBRANCH  19  29
ENDBRANCH   1  19
BRANCH   7  31
ATOM     31  C   UNL     1      -0.706  11.892  21.874  0.00  0.00    +0.000 C 
BRANCH  31  32
ATOM     32  O   UNL     1      -2.103  11.905  21.520  0.00  0.00    +0.000 OA
BRANCH  32  33
ATOM     33  C   UNL     1      -2.950  12.498  22.391  0.00  0.00    +0.000 C 
ATOM     34  C   UNL     1      -2.213  13.397  23.346  0.00  0.00    +0.000 C 
ATOM     35  O   UNL     1      -4.170  12.325  22.426  0.00  0.00    +0.000 OA
ENDBRANCH  32  33
ENDBRANCH  31  32
ENDBRANCH   7  31
TORSDOF 8
ENDMDL
MODEL 8
REMARK VINA RESULT:      -6.4      1.859      2.946
REMARK  Name = 
REMARK  12 active torsions:
REMARK  status: ('A' for Active; 'I' for Inactive)
REMARK    1  A    between atoms: C_1  and  C_2
REMARK    2  A    between atoms: C_2  and  C_3
REMARK    3  A    between atoms: C_3  and  O_4
REMARK    4  A    between atoms: C_3  and  C_5
REMARK    5  A    between atoms: C_3  and  C_11
REMARK    6  A    between atoms: N_7  and  C_8
REMARK    7  A    between atoms: C_8  and  C_9
REMARK    8  A    between atoms: C_8  and  C_10
REMARK    9  A    between atoms: C_17  and  C_18
REMARK   10  A    between atoms: C_18  and  O_19
REMARK   11  A    between atoms: O_19  and  C_20
REMARK   12  A    between atoms: C_20  and  C_21
REMARK                            x       y       z     vdW  Elec       q    Type
REMARK                         _______ _______ _______ _____ _____    ______ ____
ROOT
ATOM      1  C   UNL     1       0.620  11.184  19.628  0.00  0.00    +0.000 A 
ATOM      2  C   UNL     1       1.486  10.227  18.901  0.00  0.00    +0.000 A 
ATOM      3  C   UNL     1       1.679   8.990  19.369  0.00  0.00    +0.000 A 
ATOM      4  N   UNL     1       1.090   8.580  20.541  0.00  0.00    +0.000 N 
ATOM      5  C   UNL     1       0.304   9.377  21.325  0.00  0.00    +0.000 A 
ATOM      6  O   UNL     1      -0.176   8.977  22.384  0.00  0.00    +0.000 OA
ATOM      7  C   UNL     1       0.049  10.781  20.802  0.00  0.00    +0.000 A 
ATOM      8  C   UNL     1       1.411   7.183  20.853  0.00  0.00    +0.000 C 
ATOM      9  C   UNL     1       2.304   6.797  19.717  0.00  0.00    +0.000 A 
ATOM     10  C   UNL     1       2.947   5.609  19.445  0.00  0.00    +0.000 A 
ATOM     11  C   UNL     1       3.741   5.549  18.289  0.00  0.00    +0.000 A 
ATOM     12  C   UNL     1       4.427   4.371  17.944  0.00  0.00    +0.000 A 
ATOM     13  C   UNL     1       5.213   4.321  16.796  0.00  0.00    +0.000 A 
ATOM     14  C   UNL     1       5.317   5.445  15.985  0.00  0.00    +0.000 A 
ATOM     15  C   UNL     1       4.634   6.619  16.324  0.00  0.00    +0.000 A 
ATOM     16  C   UNL     1       3.842   6.704  17.459  0.00  0.00    +0.000 A 
ATOM     17  N   UNL     1       3.206   7.864  17.732  0.00  0.00    +0.000 NA
ATOM     18  C   UNL     1       2.460   7.869  18.843  0.00  0.00    +0.000 A 
ENDROOT
BRANCH   1  19
ATOM     19  C   UNL     1       0.446  12.566  18.940  0.00  0.00    +0.000 C 
BRANCH  19  20
ATOM     20  C   UNL     1       0.756  13.701  20.008  0.00  0.00    +0.000 C 
ATOM     21  O   UNL     1       1.858  13.809  20.546  0.00  0.00    +0.000 OA
ATOM     22  N   UNL     1      -0.281  14.574  20.299  0.00  0.00    +0.000 N 
ATOM     23  H   UNL     1      -1.078  14.624  19.660  0.00  0.00    +0.000 HD
BRANCH  22  24
ATOM     24  C   UNL     1      -0.107  15.668  21.262  0.00  0.00    +0.000 C 
ATOM     25  C   UNL     1       0.201  16.999  20.577  0.00  0.00    +0.000 C 
ATOM     26  C   UNL     1      -1.354  15.811  22.130  0.00  0.00    +0.000 C 
ENDBRANCH  22  24
ENDBRANCH  19  20
BRANCH  19  28
ATOM     27  C   UNL     1      -1.663  11.631  17.740  0.00  0.00    +0.000 C 
ATOM     28  C   UNL     1      -0.976  12.837  18.373  0.00  0.00    +0.000 C 
ENDBRANCH  19  28
BRANCH  19  29
ATOM     29  O   UNL     1       1.262  12.657  17.773  0.00  0.00    +0.000 OA
ATOM     30  H   UNL     1       1.085  11.888  17.209  0.00  0.00    +0.000 HD
ENDBRANCH  19  29
ENDBRANCH   1  19
BRANCH   7  31
ATOM     31  C   UNL     1      -0.834  11.564  21.752  0.00  0.00    +0.000 C 
BRANCH  31  32
ATOM     32  O   UNL     1      -2.082  11.955  21.147  0.00  0.00    +0.000 OA
BRANCH  32  33
ATOM     33  C   UNL     1      -3.004  12.523  21.957  0.00  0.00    +0.000 C 
ATOM     34  C   UNL     1      -4.000  13.329  21.170  0.00  0.00    +0.000 C 
ATOM     35  O   UNL     1      -3.030  12.421  23.185  0.00  0.00    +0.000 OA
ENDBRANCH  32  33
ENDBRANCH  31  32
ENDBRANCH   7  31
TORSDOF 8
ENDMDL
MODEL 9
REMARK VINA RESULT:      -6.3      2.021      3.329
REMARK  Name = 
REMARK  12 active torsions:
REMARK  status: ('A' for Active; 'I' for Inactive)
REMARK    1  A    between atoms: C_1  and  C_2
REMARK    2  A    between atoms: C_2  and  C_3
REMARK    3  A    between atoms: C_3  and  O_4
REMARK    4  A    between atoms: C_3  and  C_5
REMARK    5  A    between atoms: C_3  and  C_11
REMARK    6  A    between atoms: N_7  and  C_8
REMARK    7  A    between atoms: C_8  and  C_9
REMARK    8  A    between atoms: C_8  and  C_10
REMARK    9  A    between atoms: C_17  and  C_18
REMARK   10  A    between atoms: C_18  and  O_19
REMARK   11  A    between atoms: O_19  and  C_20
REMARK   12  A    between atoms: C_20  and  C_21
REMARK                            x       y       z     vdW  Elec       q    Type
REMARK                         _______ _______ _______ _____ _____    ______ ____
ROOT
ATOM      1  C   UNL     1       0.824  11.287  19.915  0.00  0.00    +0.000 A 
ATOM      2  C   UNL     1       1.524  10.144  19.284  0.00  0.00    +0.000 A 
ATOM      3  C   UNL     1       1.514   8.937  19.858  0.00  0.00    +0.000 A 
ATOM      4  N   UNL     1       0.867   8.731  21.054  0.00  0.00    +0.000 N 
ATOM      5  C   UNL     1       0.222   9.709  21.756  0.00  0.00    +0.000 A 
ATOM      6  O   UNL     1      -0.316   9.485  22.839  0.00  0.00    +0.000 OA
ATOM      7  C   UNL     1       0.196  11.085  21.111  0.00  0.00    +0.000 A 
ATOM      8  C   UNL     1       0.958   7.333  21.488  0.00  0.00    +0.000 C 
ATOM      9  C   UNL     1       1.776   6.711  20.402  0.00  0.00    +0.000 A 
ATOM     10  C   UNL     1       2.218   5.415  20.241  0.00  0.00    +0.000 A 
ATOM     11  C   UNL     1       2.991   5.128  19.105  0.00  0.00    +0.000 A 
ATOM     12  C   UNL     1       3.477   3.829  18.872  0.00  0.00    +0.000 A 
ATOM     13  C   UNL     1       4.244   3.553  17.742  0.00  0.00    +0.000 A 
ATOM     14  C   UNL     1       4.528   4.571  16.840  0.00  0.00    +0.000 A 
ATOM     15  C   UNL     1       4.044   5.865  17.068  0.00  0.00    +0.000 A 
ATOM     16  C   UNL     1       3.277   6.175  18.181  0.00  0.00    +0.000 A 
ATOM     17  N   UNL     1       2.838   7.441  18.344  0.00  0.00    +0.000 NA
ATOM     18  C   UNL     1       2.103   7.663  19.441  0.00  0.00    +0.000 A 
ENDROOT
BRANCH   1  19
ATOM     19  C   UNL     1       0.876  12.614  19.108  0.00  0.00    +0.000 C 
BRANCH  19  20
ATOM     20  C   UNL     1       1.588  13.717  20.003  0.00  0.00    +0.000 C 
ATOM     21  O   UNL     1       2.691  13.529  20.517  0.00  0.00    +0.000 OA
ATOM     22  N   UNL     1       0.905  14.912  20.169  0.00  0.00    +0.000 N 
ATOM     23  H   UNL     1       0.137  15.134  19.532  0.00  0.00    +0.000 HD
BRANCH  22  24
ATOM     24  C   UNL     1       1.471  16.008  20.965  0.00  0.00    +0.000 C 
ATOM     25  C   UNL     1       1.350  17.359  20.261  0.00  0.00    +0.000 C 
ATOM     26  C   UNL     1       0.792  16.074  22.330  0.00  0.00    +0.000 C 
ENDBRANCH  22  24
ENDBRANCH  19  20
BRANCH  19  28
ATOM     27  C   UNL     1      -1.442  12.178  18.013  0.00  0.00    +0.000 C 
ATOM     28  C   UNL     1      -0.512  13.178  18.693  0.00  0.00    +0.000 C 
ENDBRANCH  19  28
BRANCH  19  29
ATOM     29  O   UNL     1       1.515  12.416  17.848  0.00  0.00    +0.000 OA
ATOM     30  H   UNL     1       2.424  12.116  18.004  0.00  0.00    +0.000 HD
ENDBRANCH  19  29
ENDBRANCH   1  19
BRANCH   7  31
ATOM     31  C   UNL     1      -0.547  12.079  21.979  0.00  0.00    +0.000 C 
BRANCH  31  32
ATOM     32  O   UNL     1      -1.977  11.943  21.869  0.00  0.00    +0.000 OA
BRANCH  32  33
ATOM     33  C   UNL     1      -2.725  12.536  22.827  0.00  0.00    +0.000 C 
ATOM     34  C   UNL     1      -2.072  13.794  23.330  0.00  0.00    +0.000 C 
ATOM     35  O   UNL     1      -3.797  12.107  23.259  0.00  0.00    +0.000 OA
ENDBRANCH  32  33
ENDBRANCH  31  32
ENDBRANCH   7  31
TORSDOF 8
ENDMDL
