MODEL 1
REMARK VINA RESULT:      -7.0      0.000      0.000
REMARK  Name = 
REMARK  9 active torsions:
REMARK  status: ('A' for Active; 'I' for Inactive)
REMARK    1  A    between atoms: C_1  and  C_2
REMARK    2  A    between atoms: C_2  and  C_3
REMARK    3  A    between atoms: C_6  and  C_7
REMARK    4  A    between atoms: C_7  and  C_8
REMARK    5  A    between atoms: C_8  and  P_9
REMARK    6  A    between atoms: P_9  and  O_11
REMARK    7  A    between atoms: P_9  and  O_12
REMARK    8  A    between atoms: C_14  and  C_15
REMARK    9  A    between atoms: C_17  and  C_18
REMARK                            x       y       z     vdW  Elec       q    Type
REMARK                         _______ _______ _______ _____ _____    ______ ____
ROOT
ATOM      1  C   UNL     1       7.153   4.691  17.625  0.00  0.00    +0.000 C 
ATOM      2  C   UNL     1       6.263   4.865  16.396  0.00  0.00    +0.000 C 
ATOM      3  C   UNL     1       7.091   4.724  15.123  0.00  0.00    +0.000 C 
ATOM      4  O   UNL     1       5.261   3.855  16.397  0.00  0.00    +0.000 OA
ATOM      5  C   UNL     1       4.026   4.494  16.737  0.00  0.00    +0.000 C 
ATOM      6  C   UNL     1       3.553   3.984  18.092  0.00  0.00    +0.000 C 
ATOM      7  O   UNL     1       4.010   4.929  19.076  0.00  0.00    +0.000 OA
ATOM      8  C   UNL     1       4.241   6.202  18.431  0.00  0.00    +0.000 C 
ATOM      9  C   UNL     1       4.319   5.957  16.924  0.00  0.00    +0.000 C 
ATOM     10  O   UNL     1       5.647   6.150  16.414  0.00  0.00    +0.000 OA
ENDROOT
BRANCH   8  11
ATOM     11  C   UNL     1       3.102   7.097  18.835  0.00  0.00    +0.000 A 
ATOM     12  N   UNL     1       2.506   7.083  20.011  0.00  0.00    +0.000 NA
ATOM     13  C   UNL     1       1.592   8.141  20.097  0.00  0.00    +0.000 A 
ATOM     14  C   UNL     1       1.487   8.901  18.950  0.00  0.00    +0.000 A 
ATOM     15  S   UNL     1       2.548   8.314  17.746  0.00  0.00    +0.000 S 
BRANCH  13  16
ATOM     16  C   UNL     1       0.846   8.404  21.328  0.00  0.00    +0.000 C 
ATOM     17  N   UNL     1       1.612   8.902  22.340  0.00  0.00    +0.000 N 
ATOM     18  O   UNL     1      -0.359   8.219  21.454  0.00  0.00    +0.000 OA
ATOM     19  H   UNL     1       2.583   9.134  22.177  0.00  0.00    +0.000 HD
ATOM     20  H   UNL     1       1.168   9.192  23.197  0.00  0.00    +0.000 HD
ENDBRANCH  13  16
ENDBRANCH   8  11
BRANCH   6  21
ATOM     21  C   UNL     1       2.039   3.830  18.227  0.00  0.00    +0.000 C 
BRANCH  21  22
ATOM     22  C   UNL     1       1.651   2.519  18.882  0.00  0.00    +0.000 C 
BRANCH  22  23
ATOM     23  P   UNL     1       1.526   2.664  20.702  0.00  0.00    +0.000 P 
ATOM     24  O   UNL     1       3.029   2.414  20.853  0.00  0.00    +0.000 OA
BRANCH  23  25
ATOM     25  O   UNL     1       1.389   4.289  20.579  0.00  0.00    +0.000 OA
ATOM     26  H   UNL     1       1.013   4.677  21.391  0.00  0.00    +0.000 HD
ENDBRANCH  23  25
BRANCH  23  27
ATOM     27  O   UNL     1       1.407   2.802  22.422  0.00  0.00    +0.000 OA
ATOM     28  H   UNL     1       2.271   2.499  22.766  0.00  0.00    +0.000 HD
ENDBRANCH  23  27
ENDBRANCH  22  23
ENDBRANCH  21  22
ENDBRANCH   6  21
TORSDOF 7
ENDMDL
MODEL 2
REMARK VINA RESULT:      -6.8      3.379      6.510
REMARK  Name = 
REMARK  9 active torsions:
REMARK  status: ('A' for Active; 'I' for Inactive)
REMARK    1  A    between atoms: C_1  and  C_2
REMARK    2  A    between atoms: C_2  and  C_3
REMARK    3  A    between atoms: C_6  and  C_7
REMARK    4  A    between atoms: C_7  and  C_8
REMARK    5  A    between atoms: C_8  and  P_9
REMARK    6  A    between atoms: P_9  and  O_11
REMARK    7  A    between atoms: P_9  and  O_12
REMARK    8  A    between atoms: C_14  and  C_15
REMARK    9  A    between atoms: C_17  and  C_18
REMARK                            x       y       z     vdW  Elec       q    Type
REMARK                         _______ _______ _______ _____ _____    ______ ____
ROOT
ATOM      1  C   UNL     1       2.334   2.941  20.882  0.00  0.00    +0.000 C 
ATOM      2  C   UNL     1       1.707   3.045  19.494  0.00  0.00    +0.000 C 
ATOM      3  C   UNL     1       0.522   2.092  19.379  0.00  0.00    +0.000 C 
ATOM      4  O   UNL     1       1.241   4.373  19.289  0.00  0.00    +0.000 OA
ATOM      5  C   UNL     1       2.139   4.991  18.361  0.00  0.00    +0.000 C 
ATOM      6  C   UNL     1       2.895   6.111  19.063  0.00  0.00    +0.000 C 
ATOM      7  O   UNL     1       4.149   5.555  19.501  0.00  0.00    +0.000 OA
ATOM      8  C   UNL     1       4.455   4.397  18.694  0.00  0.00    +0.000 C 
ATOM      9  C   UNL     1       3.171   3.963  17.988  0.00  0.00    +0.000 C 
ATOM     10  O   UNL     1       2.670   2.717  18.495  0.00  0.00    +0.000 OA
ENDROOT
BRANCH   8  11
ATOM     11  C   UNL     1       5.548   4.813  17.748  0.00  0.00    +0.000 A 
ATOM     12  N   UNL     1       5.703   4.357  16.520  0.00  0.00    +0.000 NA
ATOM     13  C   UNL     1       6.726   5.063  15.873  0.00  0.00    +0.000 A 
ATOM     14  C   UNL     1       7.354   6.007  16.660  0.00  0.00    +0.000 A 
ATOM     15  S   UNL     1       6.661   6.042  18.220  0.00  0.00    +0.000 S 
BRANCH  13  16
ATOM     16  C   UNL     1       7.057   4.809  14.471  0.00  0.00    +0.000 C 
ATOM     17  N   UNL     1       6.394   3.745  13.934  0.00  0.00    +0.000 N 
ATOM     18  O   UNL     1       7.839   5.487  13.816  0.00  0.00    +0.000 OA
ATOM     19  H   UNL     1       5.685   3.263  14.470  0.00  0.00    +0.000 HD
ATOM     20  H   UNL     1       6.496   3.547  12.951  0.00  0.00    +0.000 HD
ENDBRANCH  13  16
ENDBRANCH   8  11
BRANCH   6  21
ATOM     21  C   UNL     1       3.179   7.336  18.197  0.00  0.00    +0.000 C 
BRANCH  21  22
ATOM     22  C   UNL     1       1.910   7.969  17.661  0.00  0.00    +0.000 C 
BRANCH  22  23
ATOM     23  P   UNL     1       1.534   9.564  18.475  0.00  0.00    +0.000 P 
ATOM     24  O   UNL     1       2.551  10.288  17.588  0.00  0.00    +0.000 OA
BRANCH  23  25
ATOM     25  O   UNL     1       0.123   9.669  17.654  0.00  0.00    +0.000 OA
ATOM     26  H   UNL     1      -0.455  10.360  18.026  0.00  0.00    +0.000 HD
ENDBRANCH  23  25
BRANCH  23  27
ATOM     27  O   UNL     1       1.178  11.072  19.244  0.00  0.00    +0.000 OA
ATOM     28  H   UNL     1       1.550  11.757  18.654  0.00  0.00    +0.000 HD
ENDBRANCH  23  27
ENDBRANCH  22  23
ENDBRANCH  21  22
ENDBRANCH   6  21
TORSDOF 7
ENDMDL
MODEL 3
REMARK VINA RESULT:      -6.7      3.749      5.850
REMARK  Name = 
REMARK  9 active torsions:
REMARK  status: ('A' for Active; 'I' for Inactive)
REMARK    1  A    between atoms: C_1  and  C_2
REMARK    2  A    between atoms: C_2  and  C_3
REMARK    3  A    between atoms: C_6  and  C_7
REMARK    4  A    between atoms: C_7  and  C_8
REMARK    5  A    between atoms: C_8  and  P_9
REMARK    6  A    between atoms: P_9  and  O_11
REMARK    7  A    between atoms: P_9  and  O_12
REMARK    8  A    between atoms: C_14  and  C_15
REMARK    9  A    between atoms: C_17  and  C_18
REMARK                            x       y       z     vdW  Elec       q    Type
REMARK                         _______ _______ _______ _____ _____    ______ ____
ROOT
ATOM      1  C   UNL     1       8.288   6.728  18.884  0.00  0.00    +0.000 C 
ATOM      2  C   UNL     1       7.588   7.472  17.749  0.00  0.00    +0.000 C 
ATOM      3  C   UNL     1       8.216   8.849  17.556  0.00  0.00    +0.000 C 
ATOM      4  O   UNL     1       7.737   6.734  16.543  0.00  0.00    +0.000 OA
ATOM      5  C   UNL     1       6.463   6.152  16.250  0.00  0.00    +0.000 C 
ATOM      6  C   UNL     1       6.563   4.637  16.368  0.00  0.00    +0.000 C 
ATOM      7  O   UNL     1       6.122   4.293  17.695  0.00  0.00    +0.000 OA
ATOM      8  C   UNL     1       5.280   5.354  18.198  0.00  0.00    +0.000 C 
ATOM      9  C   UNL     1       5.514   6.591  17.332  0.00  0.00    +0.000 C 
ATOM     10  O   UNL     1       6.202   7.628  18.046  0.00  0.00    +0.000 OA
ENDROOT
BRANCH   8  11
ATOM     11  C   UNL     1       3.867   4.840  18.140  0.00  0.00    +0.000 A 
ATOM     12  N   UNL     1       3.512   3.579  18.283  0.00  0.00    +0.000 NA
ATOM     13  C   UNL     1       2.116   3.475  18.321  0.00  0.00    +0.000 A 
ATOM     14  C   UNL     1       1.450   4.673  18.152  0.00  0.00    +0.000 A 
ATOM     15  S   UNL     1       2.563   5.954  17.961  0.00  0.00    +0.000 S 
BRANCH  13  16
ATOM     16  C   UNL     1       1.453   2.191  18.548  0.00  0.00    +0.000 C 
ATOM     17  N   UNL     1       2.303   1.192  18.922  0.00  0.00    +0.000 N 
ATOM     18  O   UNL     1       0.246   2.012  18.437  0.00  0.00    +0.000 OA
ATOM     19  H   UNL     1       3.279   1.393  19.097  0.00  0.00    +0.000 HD
ATOM     20  H   UNL     1       1.924   0.295  19.181  0.00  0.00    +0.000 HD
ENDBRANCH  13  16
ENDBRANCH   8  11
BRANCH   6  21
ATOM     21  C   UNL     1       5.727   3.857  15.356  0.00  0.00    +0.000 C 
BRANCH  21  22
ATOM     22  C   UNL     1       5.825   4.437  13.959  0.00  0.00    +0.000 C 
BRANCH  22  23
ATOM     23  P   UNL     1       6.225   3.164  12.707  0.00  0.00    +0.000 P 
ATOM     24  O   UNL     1       4.849   3.333  12.056  0.00  0.00    +0.000 OA
BRANCH  23  25
ATOM     25  O   UNL     1       7.188   4.221  11.915  0.00  0.00    +0.000 OA
ATOM     26  H   UNL     1       6.959   4.273  10.969  0.00  0.00    +0.000 HD
ENDBRANCH  23  25
BRANCH  23  27
ATOM     27  O   UNL     1       6.603   1.961  11.523  0.00  0.00    +0.000 OA
ATOM     28  H   UNL     1       7.328   1.433  11.914  0.00  0.00    +0.000 HD
ENDBRANCH  23  27
ENDBRANCH  22  23
ENDBRANCH  21  22
ENDBRANCH   6  21
TORSDOF 7
ENDMDL
MODEL 4
REMARK VINA RESULT:      -6.4      3.535      6.742
REMARK  Name = 
REMARK  9 active torsions:
REMARK  status: ('A' for Active; 'I' for Inactive)
REMARK    1  A    between atoms: C_1  and  C_2
REMARK    2  A    between atoms: C_2  and  C_3
REMARK    3  A    between atoms: C_6  and  C_7
REMARK    4  A    between atoms: C_7  and  C_8
REMARK    5  A    between atoms: C_8  and  P_9
REMARK    6  A    between atoms: P_9  and  O_11
REMARK    7  A    between atoms: P_9  and  O_12
REMARK    8  A    between atoms: C_14  and  C_15
REMARK    9  A    between atoms: C_17  and  C_18
REMARK                            x       y       z     vdW  Elec       q    Type
REMARK                         _______ _______ _______ _____ _____    ______ ____
ROOT
ATOM      1  C   UNL     1       2.836   2.868  20.438  0.00  0.00    +0.000 C 
ATOM      2  C   UNL     1       1.938   2.971  19.207  0.00  0.00    +0.000 C 
ATOM      3  C   UNL     1       0.663   2.161  19.416  0.00  0.00    +0.000 C 
ATOM      4  O   UNL     1       1.580   4.333  19.001  0.00  0.00    +0.000 OA
ATOM      5  C   UNL     1       2.314   4.789  17.861  0.00  0.00    +0.000 C 
ATOM      6  C   UNL     1       3.317   5.848  18.300  0.00  0.00    +0.000 C 
ATOM      7  O   UNL     1       4.571   5.172  18.509  0.00  0.00    +0.000 OA
ATOM      8  C   UNL     1       4.573   3.944  17.748  0.00  0.00    +0.000 C 
ATOM      9  C   UNL     1       3.128   3.627  17.362  0.00  0.00    +0.000 C 
ATOM     10  O   UNL     1       2.622   2.479  18.057  0.00  0.00    +0.000 OA
ENDROOT
BRANCH   8  11
ATOM     11  C   UNL     1       5.472   4.177  16.564  0.00  0.00    +0.000 A 
ATOM     12  N   UNL     1       5.276   3.689  15.355  0.00  0.00    +0.000 NA
ATOM     13  C   UNL     1       6.219   4.222  14.466  0.00  0.00    +0.000 A 
ATOM     14  C   UNL     1       7.142   5.066  15.050  0.00  0.00    +0.000 A 
ATOM     15  S   UNL     1       6.833   5.224  16.722  0.00  0.00    +0.000 S 
BRANCH  13  16
ATOM     16  C   UNL     1       6.182   3.906  13.038  0.00  0.00    +0.000 C 
ATOM     17  N   UNL     1       4.957   3.500  12.596  0.00  0.00    +0.000 N 
ATOM     18  O   UNL     1       7.144   4.006  12.287  0.00  0.00    +0.000 OA
ATOM     19  H   UNL     1       4.159   3.518  13.218  0.00  0.00    +0.000 HD
ATOM     20  H   UNL     1       4.817   3.342  11.611  0.00  0.00    +0.000 HD
ENDBRANCH  13  16
ENDBRANCH   8  11
BRANCH   6  21
ATOM     21  C   UNL     1       3.533   6.982  17.301  0.00  0.00    +0.000 C 
BRANCH  21  22
ATOM     22  C   UNL     1       3.383   8.349  17.940  0.00  0.00    +0.000 C 
BRANCH  22  23
ATOM     23  P   UNL     1       1.680   9.001  17.790  0.00  0.00    +0.000 P 
ATOM     24  O   UNL     1       1.502   8.962  19.311  0.00  0.00    +0.000 OA
BRANCH  23  25
ATOM     25  O   UNL     1       2.263  10.498  17.482  0.00  0.00    +0.000 OA
ATOM     26  H   UNL     1       2.517  10.957  18.304  0.00  0.00    +0.000 HD
ENDBRANCH  23  25
BRANCH  23  27
ATOM     27  O   UNL     1       0.071   9.619  17.648  0.00  0.00    +0.000 OA
ATOM     28  H   UNL     1      -0.453   8.888  17.264  0.00  0.00    +0.000 HD
ENDBRANCH  23  27
ENDBRANCH  22  23
ENDBRANCH  21  22
ENDBRANCH   6  21
TORSDOF 7
ENDMDL
MODEL 5
REMARK VINA RESULT:      -6.2      3.170      5.985
REMARK  Name = 
REMARK  9 active torsions:
REMARK  status: ('A' for Active; 'I' for Inactive)
REMARK    1  A    between atoms: C_1  and  C_2
REMARK    2  A    between atoms: C_2  and  C_3
REMARK    3  A    between atoms: C_6  and  C_7
REMARK    4  A    between atoms: C_7  and  C_8
REMARK    5  A    between atoms: C_8  and  P_9
REMARK    6  A    between atoms: P_9  and  O_11
REMARK    7  A    between atoms: P_9  and  O_12
REMARK    8  A    between atoms: C_14  and  C_15
REMARK    9  A    between atoms: C_17  and  C_18
REMARK                            x       y       z     vdW  Elec       q    Type
REMARK                         _______ _______ _______ _____ _____    ______ ____
ROOT
ATOM      1  C   UNL     1       2.015   2.549  20.470  0.00  0.00    +0.000 C 
ATOM      2  C   UNL     1       1.597   2.668  19.007  0.00  0.00    +0.000 C 
ATOM      3  C   UNL     1       0.636   1.541  18.641  0.00  0.00    +0.000 C 
ATOM      4  O   UNL     1       0.933   3.910  18.808  0.00  0.00    +0.000 OA
ATOM      5  C   UNL     1       1.832   4.751  18.079  0.00  0.00    +0.000 C 
ATOM      6  C   UNL     1       2.256   5.917  18.962  0.00  0.00    +0.000 C 
ATOM      7  O   UNL     1       3.509   5.547  19.567  0.00  0.00    +0.000 OA
ATOM      8  C   UNL     1       4.140   4.533  18.752  0.00  0.00    +0.000 C 
ATOM      9  C   UNL     1       3.079   3.951  17.820  0.00  0.00    +0.000 C 
ATOM     10  O   UNL     1       2.743   2.598  18.162  0.00  0.00    +0.000 OA
ENDROOT
BRANCH   8  11
ATOM     11  C   UNL     1       5.269   5.212  18.026  0.00  0.00    +0.000 A 
ATOM     12  N   UNL     1       5.871   6.317  18.422  0.00  0.00    +0.000 NA
ATOM     13  C   UNL     1       6.968   6.588  17.594  0.00  0.00    +0.000 A 
ATOM     14  C   UNL     1       7.132   5.696  16.553  0.00  0.00    +0.000 A 
ATOM     15  S   UNL     1       5.925   4.489  16.604  0.00  0.00    +0.000 S 
BRANCH  13  16
ATOM     16  C   UNL     1       7.859   7.718  17.856  0.00  0.00    +0.000 C 
ATOM     17  N   UNL     1       8.595   7.584  18.997  0.00  0.00    +0.000 N 
ATOM     18  O   UNL     1       7.964   8.694  17.124  0.00  0.00    +0.000 OA
ATOM     19  H   UNL     1       8.558   6.725  19.530  0.00  0.00    +0.000 HD
ATOM     20  H   UNL     1       9.297   8.274  19.213  0.00  0.00    +0.000 HD
ENDBRANCH  13  16
ENDBRANCH   8  11
BRANCH   6  21
ATOM     21  C   UNL     1       2.440   7.244  18.229  0.00  0.00    +0.000 C 
BRANCH  21  22
ATOM     22  C   UNL     1       2.115   8.436  19.108  0.00  0.00    +0.000 C 
BRANCH  22  23
ATOM     23  P   UNL     1       0.887   9.552  18.336  0.00  0.00    +0.000 P 
ATOM     24  O   UNL     1       0.795  10.383  19.620  0.00  0.00    +0.000 OA
BRANCH  23  25
ATOM     25  O   UNL     1       2.067  10.273  17.463  0.00  0.00    +0.000 OA
ATOM     26  H   UNL     1       1.982  11.244  17.483  0.00  0.00    +0.000 HD
ENDBRANCH  23  25
BRANCH  23  27
ATOM     27  O   UNL     1      -0.273  10.607  17.606  0.00  0.00    +0.000 OA
ATOM     28  H   UNL     1       0.005  10.689  16.672  0.00  0.00    +0.000 HD
ENDBRANCH  23  27
ENDBRANCH  22  23
ENDBRANCH  21  22
ENDBRANCH   6  21
TORSDOF 7
ENDMDL
MODEL 6
REMARK VINA RESULT:      -6.2      2.359      4.579
REMARK  Name = 
REMARK  9 active torsions:
REMARK  status: ('A' for Active; 'I' for Inactive)
REMARK    1  A    between atoms: C_1  and  C_2
REMARK    2  A    between atoms: C_2  and  C_3
REMARK    3  A    between atoms: C_6  and  C_7
REMARK    4  A    between atoms: C_7  and  C_8
REMARK    5  A    between atoms: C_8  and  P_9
REMARK    6  A    between atoms: P_9  and  O_11
REMARK    7  A    between atoms: P_9  and  O_12
REMARK    8  A    between atoms: C_14  and  C_15
REMARK    9  A    between atoms: C_17  and  C_18
REMARK                            x       y       z     vdW  Elec       q    Type
REMARK                         _______ _______ _______ _____ _____    ______ ____
ROOT
ATOM      1  C   UNL     1       3.183   1.945  18.710  0.00  0.00    +0.000 C 
ATOM      2  C   UNL     1       4.083   2.588  19.763  0.00  0.00    +0.000 C 
ATOM      3  C   UNL     1       4.605   1.528  20.728  0.00  0.00    +0.000 C 
ATOM      4  O   UNL     1       5.194   3.199  19.118  0.00  0.00    +0.000 OA
ATOM      5  C   UNL     1       4.987   4.614  19.183  0.00  0.00    +0.000 C 
ATOM      6  C   UNL     1       4.767   5.154  17.776  0.00  0.00    +0.000 C 
ATOM      7  O   UNL     1       3.342   5.219  17.574  0.00  0.00    +0.000 OA
ATOM      8  C   UNL     1       2.689   5.283  18.862  0.00  0.00    +0.000 C 
ATOM      9  C   UNL     1       3.697   4.841  19.923  0.00  0.00    +0.000 C 
ATOM     10  O   UNL     1       3.356   3.571  20.496  0.00  0.00    +0.000 OA
ENDROOT
BRANCH   8  11
ATOM     11  C   UNL     1       2.222   6.702  19.033  0.00  0.00    +0.000 A 
ATOM     12  N   UNL     1       1.869   7.251  20.179  0.00  0.00    +0.000 NA
ATOM     13  C   UNL     1       1.632   8.621  20.000  0.00  0.00    +0.000 A 
ATOM     14  C   UNL     1       1.764   9.058  18.698  0.00  0.00    +0.000 A 
ATOM     15  S   UNL     1       2.209   7.764  17.675  0.00  0.00    +0.000 S 
BRANCH  13  16
ATOM     16  C   UNL     1       1.297   9.489  21.128  0.00  0.00    +0.000 C 
ATOM     17  N   UNL     1       1.554   8.932  22.346  0.00  0.00    +0.000 N 
ATOM     18  O   UNL     1       0.844  10.622  21.014  0.00  0.00    +0.000 OA
ATOM     19  H   UNL     1       2.015   8.033  22.409  0.00  0.00    +0.000 HD
ATOM     20  H   UNL     1       1.433   9.488  23.178  0.00  0.00    +0.000 HD
ENDBRANCH  13  16
ENDBRANCH   8  11
BRANCH   6  21
ATOM     21  C   UNL     1       5.361   6.536  17.518  0.00  0.00    +0.000 C 
BRANCH  21  22
ATOM     22  C   UNL     1       6.595   6.477  16.640  0.00  0.00    +0.000 C 
BRANCH  22  23
ATOM     23  P   UNL     1       6.673   4.936  15.657  0.00  0.00    +0.000 P 
ATOM     24  O   UNL     1       7.478   5.642  14.562  0.00  0.00    +0.000 OA
BRANCH  23  25
ATOM     25  O   UNL     1       7.802   4.326  16.671  0.00  0.00    +0.000 OA
ATOM     26  H   UNL     1       8.659   4.209  16.220  0.00  0.00    +0.000 HD
ENDBRANCH  23  25
BRANCH  23  27
ATOM     27  O   UNL     1       6.746   3.478  14.728  0.00  0.00    +0.000 OA
ATOM     28  H   UNL     1       7.449   2.941  15.147  0.00  0.00    +0.000 HD
ENDBRANCH  23  27
ENDBRANCH  22  23
ENDBRANCH  21  22
ENDBRANCH   6  21
TORSDOF 7
ENDMDL
MODEL 7
REMARK VINA RESULT:      -6.1      1.150      1.347
REMARK  Name = 
REMARK  9 active torsions:
REMARK  status: ('A' for Active; 'I' for Inactive)
REMARK    1  A    between atoms: C_1  and  C_2
REMARK    2  A    between atoms: C_2  and  C_3
REMARK    3  A    between atoms: C_6  and  C_7
REMARK    4  A    between atoms: C_7  and  C_8
REMARK    5  A    between atoms: C_8  and  P_9
REMARK    6  A    between atoms: P_9  and  O_11
REMARK    7  A    between atoms: P_9  and  O_12
REMARK    8  A    between atoms: C_14  and  C_15
REMARK    9  A    between atoms: C_17  and  C_18
REMARK                            x       y       z     vdW  Elec       q    Type
REMARK                         _______ _______ _______ _____ _____    ______ ____
ROOT
ATOM      1  C   UNL     1       6.667   5.201  18.499  0.00  0.00    +0.000 C 
ATOM      2  C   UNL     1       5.872   5.220  17.196  0.00  0.00    +0.000 C 
ATOM      3  C   UNL     1       6.792   4.929  16.014  0.00  0.00    +0.000 C 
ATOM      4  O   UNL     1       4.868   4.214  17.245  0.00  0.00    +0.000 OA
ATOM      5  C   UNL     1       3.614   4.885  17.412  0.00  0.00    +0.000 C 
ATOM      6  C   UNL     1       3.039   4.541  18.780  0.00  0.00    +0.000 C 
ATOM      7  O   UNL     1       3.427   5.602  19.673  0.00  0.00    +0.000 OA
ATOM      8  C   UNL     1       3.711   6.787  18.896  0.00  0.00    +0.000 C 
ATOM      9  C   UNL     1       3.900   6.361  17.441  0.00  0.00    +0.000 C 
ATOM     10  O   UNL     1       5.262   6.496  17.011  0.00  0.00    +0.000 OA
ENDROOT
BRANCH   8  11
ATOM     11  C   UNL     1       2.550   7.720  19.102  0.00  0.00    +0.000 A 
ATOM     12  N   UNL     1       1.873   7.852  20.226  0.00  0.00    +0.000 NA
ATOM     13  C   UNL     1       0.959   8.908  20.113  0.00  0.00    +0.000 A 
ATOM     14  C   UNL     1       0.937   9.514  18.873  0.00  0.00    +0.000 A 
ATOM     15  S   UNL     1       2.077   8.785  17.831  0.00  0.00    +0.000 S 
BRANCH  13  16
ATOM     16  C   UNL     1       0.129   9.321  21.245  0.00  0.00    +0.000 C 
ATOM     17  N   UNL     1       0.199  10.656  21.519  0.00  0.00    +0.000 N 
ATOM     18  O   UNL     1      -0.583   8.561  21.889  0.00  0.00    +0.000 OA
ATOM     19  H   UNL     1       0.721  11.274  20.912  0.00  0.00    +0.000 HD
ATOM     20  H   UNL     1      -0.403  11.044  22.228  0.00  0.00    +0.000 HD
ENDBRANCH  13  16
ENDBRANCH   8  11
BRANCH   6  21
ATOM     21  C   UNL     1       1.519   4.399  18.820  0.00  0.00    +0.000 C 
BRANCH  21  22
ATOM     22  C   UNL     1       1.011   4.037  20.202  0.00  0.00    +0.000 C 
BRANCH  22  23
ATOM     23  P   UNL     1       2.187   2.973  21.116  0.00  0.00    +0.000 P 
ATOM     24  O   UNL     1       1.144   2.709  22.205  0.00  0.00    +0.000 OA
BRANCH  23  25
ATOM     25  O   UNL     1       1.965   1.769  20.031  0.00  0.00    +0.000 OA
ATOM     26  H   UNL     1       1.035   1.480  20.006  0.00  0.00    +0.000 HD
ENDBRANCH  23  25
BRANCH  23  27
ATOM     27  O   UNL     1       3.299   1.967  21.978  0.00  0.00    +0.000 OA
ATOM     28  H   UNL     1       3.115   1.057  21.671  0.00  0.00    +0.000 HD
ENDBRANCH  23  27
ENDBRANCH  22  23
ENDBRANCH  21  22
ENDBRANCH   6  21
TORSDOF 7
ENDMDL
MODEL 8
REMARK VINA RESULT:      -6.1      2.662      4.742
REMARK  Name = 
REMARK  9 active torsions:
REMARK  status: ('A' for Active; 'I' for Inactive)
REMARK    1  A    between atoms: C_1  and  C_2
REMARK    2  A    between atoms: C_2  and  C_3
REMARK    3  A    between atoms: C_6  and  C_7
REMARK    4  A    between atoms: C_7  and  C_8
REMARK    5  A    between atoms: C_8  and  P_9
REMARK    6  A    between atoms: P_9  and  O_11
REMARK    7  A    between atoms: P_9  and  O_12
REMARK    8  A    between atoms: C_14  and  C_15
REMARK    9  A    between atoms: C_17  and  C_18
REMARK                            x       y       z     vdW  Elec       q    Type
REMARK                         _______ _______ _______ _____ _____    ______ ____
ROOT
ATOM      1  C   UNL     1       2.489   2.319  18.898  0.00  0.00    +0.000 C 
ATOM      2  C   UNL     1       3.644   2.884  19.720  0.00  0.00    +0.000 C 
ATOM      3  C   UNL     1       4.312   1.772  20.523  0.00  0.00    +0.000 C 
ATOM      4  O   UNL     1       4.611   3.450  18.843  0.00  0.00    +0.000 OA
ATOM      5  C   UNL     1       4.509   4.872  18.973  0.00  0.00    +0.000 C 
ATOM      6  C   UNL     1       4.001   5.460  17.663  0.00  0.00    +0.000 C 
ATOM      7  O   UNL     1       2.575   5.608  17.798  0.00  0.00    +0.000 OA
ATOM      8  C   UNL     1       2.243   5.673  19.203  0.00  0.00    +0.000 C 
ATOM      9  C   UNL     1       3.441   5.149  19.995  0.00  0.00    +0.000 C 
ATOM     10  O   UNL     1       3.167   3.885  20.616  0.00  0.00    +0.000 OA
ENDROOT
BRANCH   8  11
ATOM     11  C   UNL     1       1.913   7.112  19.497  0.00  0.00    +0.000 A 
ATOM     12  N   UNL     1       1.791   8.062  18.591  0.00  0.00    +0.000 NA
ATOM     13  C   UNL     1       1.335   9.242  19.193  0.00  0.00    +0.000 A 
ATOM     14  C   UNL     1       1.175   9.159  20.562  0.00  0.00    +0.000 A 
ATOM     15  S   UNL     1       1.575   7.594  21.117  0.00  0.00    +0.000 S 
BRANCH  13  16
ATOM     16  C   UNL     1       1.040  10.436  18.402  0.00  0.00    +0.000 C 
ATOM     17  N   UNL     1       2.131  10.967  17.781  0.00  0.00    +0.000 N 
ATOM     18  O   UNL     1      -0.079  10.921  18.280  0.00  0.00    +0.000 OA
ATOM     19  H   UNL     1       3.023  10.492  17.823  0.00  0.00    +0.000 HD
ATOM     20  H   UNL     1       2.009  11.741  17.147  0.00  0.00    +0.000 HD
ENDBRANCH  13  16
ENDBRANCH   8  11
BRANCH   6  21
ATOM     21  C   UNL     1       4.601   6.814  17.292  0.00  0.00    +0.000 C 
BRANCH  21  22
ATOM     22  C   UNL     1       5.677   6.695  16.231  0.00  0.00    +0.000 C 
BRANCH  22  23
ATOM     23  P   UNL     1       6.903   5.396  16.631  0.00  0.00    +0.000 P 
ATOM     24  O   UNL     1       7.504   5.493  15.225  0.00  0.00    +0.000 OA
BRANCH  23  25
ATOM     25  O   UNL     1       7.766   6.462  17.522  0.00  0.00    +0.000 OA
ATOM     26  H   UNL     1       8.713   6.433  17.292  0.00  0.00    +0.000 HD
ENDBRANCH  23  25
BRANCH  23  27
ATOM     27  O   UNL     1       8.062   4.169  17.009  0.00  0.00    +0.000 OA
ATOM     28  H   UNL     1       7.544   3.345  17.103  0.00  0.00    +0.000 HD
ENDBRANCH  23  27
ENDBRANCH  22  23
ENDBRANCH  21  22
ENDBRANCH   6  21
TORSDOF 7
ENDMDL
MODEL 9
REMARK VINA RESULT:      -6.1      2.801      4.953
REMARK  Name = 
REMARK  9 active torsions:
REMARK  status: ('A' for Active; 'I' for Inactive)
REMARK    1  A    between atoms: C_1  and  C_2
REMARK    2  A    between atoms: C_2  and  C_3
REMARK    3  A    between atoms: C_6  and  C_7
REMARK    4  A    between atoms: C_7  and  C_8
REMARK    5  A    between atoms: C_8  and  P_9
REMARK    6  A    between atoms: P_9  and  O_11
REMARK    7  A    between atoms: P_9  and  O_12
REMARK    8  A    between atoms: C_14  and  C_15
REMARK    9  A    between atoms: C_17  and  C_18
REMARK                            x       y       z     vdW  Elec       q    Type
REMARK                         _______ _______ _______ _____ _____    ______ ____
ROOT
ATOM      1  C   UNL     1       3.069   1.920  18.646  0.00  0.00    +0.000 C 
ATOM      2  C   UNL     1       4.072   2.499  19.641  0.00  0.00    +0.000 C 
ATOM      3  C   UNL     1       4.630   1.392  20.530  0.00  0.00    +0.000 C 
ATOM      4  O   UNL     1       5.151   3.092  18.927  0.00  0.00    +0.000 OA
ATOM      5  C   UNL     1       5.001   4.511  19.049  0.00  0.00    +0.000 C 
ATOM      6  C   UNL     1       4.690   5.102  17.680  0.00  0.00    +0.000 C 
ATOM      7  O   UNL     1       3.258   5.221  17.594  0.00  0.00    +0.000 OA
ATOM      8  C   UNL     1       2.711   5.267  18.931  0.00  0.00    +0.000 C 
ATOM      9  C   UNL     1       3.783   4.758  19.895  0.00  0.00    +0.000 C 
ATOM     10  O   UNL     1       3.442   3.483  20.458  0.00  0.00    +0.000 OA
ENDROOT
BRANCH   8  11
ATOM     11  C   UNL     1       2.310   6.695  19.180  0.00  0.00    +0.000 A 
ATOM     12  N   UNL     1       2.255   7.638  18.260  0.00  0.00    +0.000 NA
ATOM     13  C   UNL     1       1.705   8.806  18.805  0.00  0.00    +0.000 A 
ATOM     14  C   UNL     1       1.407   8.724  20.150  0.00  0.00    +0.000 A 
ATOM     15  S   UNL     1       1.792   7.173  20.753  0.00  0.00    +0.000 S 
BRANCH  13  16
ATOM     16  C   UNL     1       1.459   9.989  17.979  0.00  0.00    +0.000 C 
ATOM     17  N   UNL     1       0.147  10.172  17.659  0.00  0.00    +0.000 N 
ATOM     18  O   UNL     1       2.333  10.766  17.614  0.00  0.00    +0.000 OA
ATOM     19  H   UNL     1      -0.563   9.569  18.053  0.00  0.00    +0.000 HD
ATOM     20  H   UNL     1      -0.127  11.006  17.164  0.00  0.00    +0.000 HD
ENDBRANCH  13  16
ENDBRANCH   8  11
BRANCH   6  21
ATOM     21  C   UNL     1       5.312   6.471  17.415  0.00  0.00    +0.000 C 
BRANCH  21  22
ATOM     22  C   UNL     1       6.593   6.375  16.609  0.00  0.00    +0.000 C 
BRANCH  22  23
ATOM     23  P   UNL     1       6.556   4.990  15.413  0.00  0.00    +0.000 P 
ATOM     24  O   UNL     1       5.384   5.632  14.665  0.00  0.00    +0.000 OA
BRANCH  23  25
ATOM     25  O   UNL     1       7.889   5.576  14.669  0.00  0.00    +0.000 OA
ATOM     26  H   UNL     1       8.690   5.431  15.207  0.00  0.00    +0.000 HD
ENDBRANCH  23  25
BRANCH  23  27
ATOM     27  O   UNL     1       6.522   3.682  14.282  0.00  0.00    +0.000 OA
ATOM     28  H   UNL     1       7.387   3.235  14.378  0.00  0.00    +0.000 HD
ENDBRANCH  23  27
ENDBRANCH  22  23
ENDBRANCH  21  22
ENDBRANCH   6  21
TORSDOF 7
ENDMDL
