MODEL 1
REMARK VINA RESULT:      -9.7      0.000      0.000
REMARK  Name = 
REMARK  6 active torsions:
REMARK  status: ('A' for Active; 'I' for Inactive)
REMARK    1  A    between atoms: C_1  and  C_2
REMARK    2  A    between atoms: N_9  and  C_10
REMARK    3  A    between atoms: C_14  and  C_15
REMARK    4  A    between atoms: C_15  and  N_16
REMARK    5  A    between atoms: N_16  and  C_17
REMARK    6  A    between atoms: C_22  and  C_23
REMARK                            x       y       z     vdW  Elec       q    Type
REMARK                         _______ _______ _______ _____ _____    ______ ____
ROOT
ATOM      1  C   UNL     1       3.504   3.262  18.542  0.00  0.00    +0.000 A 
ATOM      2  C   UNL     1       3.665   2.287  19.527  0.00  0.00    +0.000 A 
ATOM      3  C   UNL     1       3.167   2.519  20.803  0.00  0.00    +0.000 A 
ATOM      4  C   UNL     1       2.514   3.732  21.113  0.00  0.00    +0.000 A 
ATOM      5  C   UNL     1       2.327   4.769  20.169  0.00  0.00    +0.000 A 
ATOM      6  C   UNL     1       2.834   4.492  18.874  0.00  0.00    +0.000 A 
ENDROOT
BRANCH   1  15
ATOM      7  C   UNL     1       8.051   5.745  19.812  0.00  0.00    +0.000 C 
ATOM      8  C   UNL     1       7.480   5.360  18.516  0.00  0.00    +0.000 A 
ATOM      9  N   UNL     1       7.810   5.785  17.315  0.00  0.00    +0.000 NA
ATOM     10  C   UNL     1       6.953   5.170  16.435  0.00  0.00    +0.000 A 
ATOM     11  C   UNL     1       6.864   5.224  15.047  0.00  0.00    +0.000 A 
ATOM     12  C   UNL     1       5.880   4.422  14.483  0.00  0.00    +0.000 A 
ATOM     13  N   UNL     1       4.988   3.668  15.180  0.00  0.00    +0.000 NA
ATOM     14  C   UNL     1       5.013   3.692  16.536  0.00  0.00    +0.000 A 
ATOM     15  N   UNL     1       4.068   2.985  17.275  0.00  0.00    +0.000 N 
ATOM     16  C   UNL     1       6.052   4.387  17.134  0.00  0.00    +0.000 A 
ATOM     17  N   UNL     1       6.460   4.458  18.436  0.00  0.00    +0.000 N 
ATOM     18  H   UNL     1       3.574   2.316  16.694  0.00  0.00    +0.000 HD
ATOM     19  H   UNL     1       6.053   3.941  19.198  0.00  0.00    +0.000 HD
ENDBRANCH   1  15
BRANCH   5  20
ATOM     20  C   UNL     1       1.343   5.934  20.512  0.00  0.00    +0.000 C 
BRANCH  20  21
ATOM     21  N   UNL     1       1.779   7.304  20.979  0.00  0.00    +0.000 N 
ATOM     22  H   UNL     1       1.350   7.533  21.871  0.00  0.00    +0.000 HD
BRANCH  21  23
ATOM     23  C   UNL     1       1.613   8.409  20.106  0.00  0.00    +0.000 A 
ATOM     24  N   UNL     1       2.165   8.246  18.903  0.00  0.00    +0.000 NA
ATOM     25  C   UNL     1       1.669   8.992  17.928  0.00  0.00    +0.000 A 
ATOM     26  N   UNL     1       0.551   9.709  17.993  0.00  0.00    +0.000 NA
ATOM     27  C   UNL     1       0.111  10.050  19.203  0.00  0.00    +0.000 A 
ATOM     28  C   UNL     1      -0.928  10.997  19.280  0.00  0.00    +0.000 A 
ATOM     29  C   UNL     1      -1.066  11.824  20.397  0.00  0.00    +0.000 A 
ATOM     30  C   UNL     1      -0.258  11.579  21.493  0.00  0.00    +0.000 A 
ATOM     31  C   UNL     1       0.558  10.416  21.522  0.00  0.00    +0.000 A 
ATOM     32  C   UNL     1       0.753   9.571  20.361  0.00  0.00    +0.000 A 
BRANCH  28  33
ATOM     33  C   UNL     1      -1.923  11.163  18.174  0.00  0.00    +0.000 C 
ATOM     34  N   UNL     1      -1.660  12.137  17.249  0.00  0.00    +0.000 N 
ATOM     35  O   UNL     1      -2.888  10.421  18.041  0.00  0.00    +0.000 OA
ATOM     36  H   UNL     1      -1.016  12.884  17.490  0.00  0.00    +0.000 HD
ATOM     37  H   UNL     1      -2.361  12.324  16.546  0.00  0.00    +0.000 HD
ENDBRANCH  28  33
ENDBRANCH  21  23
ENDBRANCH  20  21
ENDBRANCH   5  20
TORSDOF 5
ENDMDL
MODEL 2
REMARK VINA RESULT:      -9.1      6.707     10.219
REMARK  Name = 
REMARK  6 active torsions:
REMARK  status: ('A' for Active; 'I' for Inactive)
REMARK    1  A    between atoms: C_1  and  C_2
REMARK    2  A    between atoms: N_9  and  C_10
REMARK    3  A    between atoms: C_14  and  C_15
REMARK    4  A    between atoms: C_15  and  N_16
REMARK    5  A    between atoms: N_16  and  C_17
REMARK    6  A    between atoms: C_22  and  C_23
REMARK                            x       y       z     vdW  Elec       q    Type
REMARK                         _______ _______ _______ _____ _____    ______ ____
ROOT
ATOM      1  C   UNL     1      10.577  12.251  19.062  0.00  0.00    +0.000 A 
ATOM      2  C   UNL     1      10.390  11.944  20.410  0.00  0.00    +0.000 A 
ATOM      3  C   UNL     1       9.588  10.864  20.758  0.00  0.00    +0.000 A 
ATOM      4  C   UNL     1       8.955  10.087  19.764  0.00  0.00    +0.000 A 
ATOM      5  C   UNL     1       9.089  10.348  18.380  0.00  0.00    +0.000 A 
ATOM      6  C   UNL     1       9.926  11.447  18.061  0.00  0.00    +0.000 A 
ENDROOT
BRANCH   1  15
ATOM      7  C   UNL     1       6.505  15.569  19.994  0.00  0.00    +0.000 C 
ATOM      8  C   UNL     1       7.772  15.759  19.279  0.00  0.00    +0.000 A 
ATOM      9  N   UNL     1       8.104  16.713  18.436  0.00  0.00    +0.000 NA
ATOM     10  C   UNL     1       9.373  16.421  17.997  0.00  0.00    +0.000 A 
ATOM     11  C   UNL     1      10.224  17.097  17.127  0.00  0.00    +0.000 A 
ATOM     12  C   UNL     1      11.472  16.516  16.944  0.00  0.00    +0.000 A 
ATOM     13  N   UNL     1      11.874  15.336  17.490  0.00  0.00    +0.000 NA
ATOM     14  C   UNL     1      11.009  14.629  18.259  0.00  0.00    +0.000 A 
ATOM     15  N   UNL     1      11.370  13.386  18.773  0.00  0.00    +0.000 N 
ATOM     16  C   UNL     1       9.797  15.231  18.559  0.00  0.00    +0.000 A 
ATOM     17  N   UNL     1       8.804  14.878  19.428  0.00  0.00    +0.000 N 
ATOM     18  H   UNL     1      12.370  13.236  18.697  0.00  0.00    +0.000 HD
ATOM     19  H   UNL     1       8.836  14.089  20.052  0.00  0.00    +0.000 HD
ENDBRANCH   1  15
BRANCH   5  20
ATOM     20  C   UNL     1       8.604   9.269  17.357  0.00  0.00    +0.000 C 
BRANCH  20  21
ATOM     21  N   UNL     1       7.301   8.512  17.477  0.00  0.00    +0.000 N 
ATOM     22  H   UNL     1       6.675   8.976  18.129  0.00  0.00    +0.000 HD
BRANCH  21  23
ATOM     23  C   UNL     1       7.340   7.132  17.799  0.00  0.00    +0.000 A 
ATOM     24  N   UNL     1       8.194   6.822  18.776  0.00  0.00    +0.000 NA
ATOM     25  C   UNL     1       7.952   5.693  19.424  0.00  0.00    +0.000 A 
ATOM     26  N   UNL     1       6.837   4.973  19.339  0.00  0.00    +0.000 NA
ATOM     27  C   UNL     1       6.084   5.137  18.252  0.00  0.00    +0.000 A 
ATOM     28  C   UNL     1       5.036   4.222  18.037  0.00  0.00    +0.000 A 
ATOM     29  C   UNL     1       4.585   3.935  16.747  0.00  0.00    +0.000 A 
ATOM     30  C   UNL     1       5.081   4.690  15.700  0.00  0.00    +0.000 A 
ATOM     31  C   UNL     1       5.893   5.825  15.971  0.00  0.00    +0.000 A 
ATOM     32  C   UNL     1       6.411   6.114  17.293  0.00  0.00    +0.000 A 
BRANCH  28  33
ATOM     33  C   UNL     1       4.363   3.517  19.174  0.00  0.00    +0.000 C 
ATOM     34  N   UNL     1       5.032   2.457  19.725  0.00  0.00    +0.000 N 
ATOM     35  O   UNL     1       3.305   3.904  19.654  0.00  0.00    +0.000 OA
ATOM     36  H   UNL     1       5.764   2.004  19.187  0.00  0.00    +0.000 HD
ATOM     37  H   UNL     1       4.559   1.915  20.433  0.00  0.00    +0.000 HD
ENDBRANCH  28  33
ENDBRANCH  21  23
ENDBRANCH  20  21
ENDBRANCH   5  20
TORSDOF 5
ENDMDL
MODEL 3
REMARK VINA RESULT:      -8.9      2.897      9.997
REMARK  Name = 
REMARK  6 active torsions:
REMARK  status: ('A' for Active; 'I' for Inactive)
REMARK    1  A    between atoms: C_1  and  C_2
REMARK    2  A    between atoms: N_9  and  C_10
REMARK    3  A    between atoms: C_14  and  C_15
REMARK    4  A    between atoms: C_15  and  N_16
REMARK    5  A    between atoms: N_16  and  C_17
REMARK    6  A    between atoms: C_22  and  C_23
REMARK                            x       y       z     vdW  Elec       q    Type
REMARK                         _______ _______ _______ _____ _____    ______ ____
ROOT
ATOM      1  C   UNL     1      -0.557  12.098  19.486  0.00  0.00    +0.000 A 
ATOM      2  C   UNL     1      -0.074  13.379  19.217  0.00  0.00    +0.000 A 
ATOM      3  C   UNL     1       1.178  13.525  18.632  0.00  0.00    +0.000 A 
ATOM      4  C   UNL     1       1.965  12.396  18.321  0.00  0.00    +0.000 A 
ATOM      5  C   UNL     1       1.545  11.069  18.578  0.00  0.00    +0.000 A 
ATOM      6  C   UNL     1       0.257  10.956  19.161  0.00  0.00    +0.000 A 
ENDROOT
BRANCH   1  15
ATOM      7  C   UNL     1      -2.860  10.181  15.073  0.00  0.00    +0.000 C 
ATOM      8  C   UNL     1      -3.427  10.798  16.278  0.00  0.00    +0.000 A 
ATOM      9  N   UNL     1      -4.631  11.299  16.456  0.00  0.00    +0.000 NA
ATOM     10  C   UNL     1      -4.658  11.804  17.733  0.00  0.00    +0.000 A 
ATOM     11  C   UNL     1      -5.675  12.416  18.459  0.00  0.00    +0.000 A 
ATOM     12  C   UNL     1      -5.347  12.769  19.761  0.00  0.00    +0.000 A 
ATOM     13  N   UNL     1      -4.119  12.620  20.328  0.00  0.00    +0.000 NA
ATOM     14  C   UNL     1      -3.102  12.113  19.588  0.00  0.00    +0.000 A 
ATOM     15  N   UNL     1      -1.819  12.015  20.120  0.00  0.00    +0.000 N 
ATOM     16  C   UNL     1      -3.418  11.642  18.323  0.00  0.00    +0.000 A 
ATOM     17  N   UNL     1      -2.686  10.930  17.416  0.00  0.00    +0.000 N 
ATOM     18  H   UNL     1      -1.831  12.132  21.127  0.00  0.00    +0.000 HD
ATOM     19  H   UNL     1      -1.753  10.585  17.570  0.00  0.00    +0.000 HD
ENDBRANCH   1  15
BRANCH   5  20
ATOM     20  C   UNL     1       2.340   9.887  17.934  0.00  0.00    +0.000 C 
BRANCH  20  21
ATOM     21  N   UNL     1       1.799   8.484  17.783  0.00  0.00    +0.000 N 
ATOM     22  H   UNL     1       0.822   8.444  18.060  0.00  0.00    +0.000 HD
BRANCH  21  23
ATOM     23  C   UNL     1       2.486   7.414  18.410  0.00  0.00    +0.000 A 
ATOM     24  N   UNL     1       2.136   7.210  19.682  0.00  0.00    +0.000 NA
ATOM     25  C   UNL     1       2.369   5.998  20.162  0.00  0.00    +0.000 A 
ATOM     26  N   UNL     1       2.707   4.931  19.445  0.00  0.00    +0.000 NA
ATOM     27  C   UNL     1       3.251   5.145  18.248  0.00  0.00    +0.000 A 
ATOM     28  C   UNL     1       3.825   4.044  17.583  0.00  0.00    +0.000 A 
ATOM     29  C   UNL     1       4.871   4.217  16.675  0.00  0.00    +0.000 A 
ATOM     30  C   UNL     1       5.222   5.509  16.323  0.00  0.00    +0.000 A 
ATOM     31  C   UNL     1       4.419   6.600  16.755  0.00  0.00    +0.000 A 
ATOM     32  C   UNL     1       3.360   6.450  17.732  0.00  0.00    +0.000 A 
BRANCH  28  33
ATOM     33  C   UNL     1       3.344   2.646  17.819  0.00  0.00    +0.000 C 
ATOM     34  N   UNL     1       4.051   1.895  18.719  0.00  0.00    +0.000 N 
ATOM     35  O   UNL     1       2.324   2.205  17.305  0.00  0.00    +0.000 OA
ATOM     36  H   UNL     1       5.002   2.167  18.948  0.00  0.00    +0.000 HD
ATOM     37  H   UNL     1       3.797   0.923  18.828  0.00  0.00    +0.000 HD
ENDBRANCH  28  33
ENDBRANCH  21  23
ENDBRANCH  20  21
ENDBRANCH   5  20
TORSDOF 5
ENDMDL
MODEL 4
REMARK VINA RESULT:      -8.9      2.001      2.573
REMARK  Name = 
REMARK  6 active torsions:
REMARK  status: ('A' for Active; 'I' for Inactive)
REMARK    1  A    between atoms: C_1  and  C_2
REMARK    2  A    between atoms: N_9  and  C_10
REMARK    3  A    between atoms: C_14  and  C_15
REMARK    4  A    between atoms: C_15  and  N_16
REMARK    5  A    between atoms: N_16  and  C_17
REMARK    6  A    between atoms: C_22  and  C_23
REMARK                            x       y       z     vdW  Elec       q    Type
REMARK                         _______ _______ _______ _____ _____    ______ ____
ROOT
ATOM      1  C   UNL     1       3.248   3.566  18.691  0.00  0.00    +0.000 A 
ATOM      2  C   UNL     1       3.377   2.607  19.696  0.00  0.00    +0.000 A 
ATOM      3  C   UNL     1       2.916   2.894  20.975  0.00  0.00    +0.000 A 
ATOM      4  C   UNL     1       2.333   4.146  21.267  0.00  0.00    +0.000 A 
ATOM      5  C   UNL     1       2.183   5.170  20.302  0.00  0.00    +0.000 A 
ATOM      6  C   UNL     1       2.650   4.837  19.005  0.00  0.00    +0.000 A 
ENDROOT
BRANCH   1  15
ATOM      7  C   UNL     1       8.021   5.612  19.913  0.00  0.00    +0.000 C 
ATOM      8  C   UNL     1       7.406   5.277  18.623  0.00  0.00    +0.000 A 
ATOM      9  N   UNL     1       7.765   5.663  17.417  0.00  0.00    +0.000 NA
ATOM     10  C   UNL     1       6.845   5.128  16.548  0.00  0.00    +0.000 A 
ATOM     11  C   UNL     1       6.751   5.184  15.160  0.00  0.00    +0.000 A 
ATOM     12  C   UNL     1       5.690   4.477  14.608  0.00  0.00    +0.000 A 
ATOM     13  N   UNL     1       4.737   3.814  15.316  0.00  0.00    +0.000 NA
ATOM     14  C   UNL     1       4.775   3.842  16.671  0.00  0.00    +0.000 A 
ATOM     15  N   UNL     1       3.773   3.231  17.422  0.00  0.00    +0.000 N 
ATOM     16  C   UNL     1       5.880   4.437  17.258  0.00  0.00    +0.000 A 
ATOM     17  N   UNL     1       6.304   4.476  18.556  0.00  0.00    +0.000 N 
ATOM     18  H   UNL     1       3.213   2.610  16.847  0.00  0.00    +0.000 HD
ATOM     19  H   UNL     1       5.855   4.002  19.323  0.00  0.00    +0.000 HD
ENDBRANCH   1  15
BRANCH   5  20
ATOM     20  C   UNL     1       1.267   6.393  20.635  0.00  0.00    +0.000 C 
BRANCH  20  21
ATOM     21  N   UNL     1       1.783   7.742  21.081  0.00  0.00    +0.000 N 
ATOM     22  H   UNL     1       2.398   7.644  21.884  0.00  0.00    +0.000 HD
BRANCH  21  23
ATOM     23  C   UNL     1       0.850   8.774  21.356  0.00  0.00    +0.000 A 
ATOM     24  N   UNL     1       0.223   8.647  22.527  0.00  0.00    +0.000 NA
ATOM     25  C   UNL     1      -0.280   9.758  23.042  0.00  0.00    +0.000 A 
ATOM     26  N   UNL     1      -0.031  10.993  22.616  0.00  0.00    +0.000 NA
ATOM     27  C   UNL     1       0.403  11.132  21.364  0.00  0.00    +0.000 A 
ATOM     28  C   UNL     1       0.446  12.433  20.826  0.00  0.00    +0.000 A 
ATOM     29  C   UNL     1       0.318  12.648  19.452  0.00  0.00    +0.000 A 
ATOM     30  C   UNL     1       0.311  11.545  18.618  0.00  0.00    +0.000 A 
ATOM     31  C   UNL     1       0.595  10.258  19.148  0.00  0.00    +0.000 A 
ATOM     32  C   UNL     1       0.685  10.003  20.572  0.00  0.00    +0.000 A 
BRANCH  28  33
ATOM     33  C   UNL     1       0.627  13.637  21.697  0.00  0.00    +0.000 C 
ATOM     34  N   UNL     1      -0.495  14.129  22.309  0.00  0.00    +0.000 N 
ATOM     35  O   UNL     1       1.727  14.123  21.928  0.00  0.00    +0.000 OA
ATOM     36  H   UNL     1      -1.406  13.886  21.935  0.00  0.00    +0.000 HD
ATOM     37  H   UNL     1      -0.410  14.990  22.830  0.00  0.00    +0.000 HD
ENDBRANCH  28  33
ENDBRANCH  21  23
ENDBRANCH  20  21
ENDBRANCH   5  20
TORSDOF 5
ENDMDL
MODEL 5
REMARK VINA RESULT:      -8.8      3.328     10.280
REMARK  Name = 
REMARK  6 active torsions:
REMARK  status: ('A' for Active; 'I' for Inactive)
REMARK    1  A    between atoms: C_1  and  C_2
REMARK    2  A    between atoms: N_9  and  C_10
REMARK    3  A    between atoms: C_14  and  C_15
REMARK    4  A    between atoms: C_15  and  N_16
REMARK    5  A    between atoms: N_16  and  C_17
REMARK    6  A    between atoms: C_22  and  C_23
REMARK                            x       y       z     vdW  Elec       q    Type
REMARK                         _______ _______ _______ _____ _____    ______ ____
ROOT
ATOM      1  C   UNL     1      -1.522  11.816  19.339  0.00  0.00    +0.000 A 
ATOM      2  C   UNL     1      -0.595  12.838  19.549  0.00  0.00    +0.000 A 
ATOM      3  C   UNL     1       0.510  12.599  20.357  0.00  0.00    +0.000 A 
ATOM      4  C   UNL     1       0.696  11.343  20.972  0.00  0.00    +0.000 A 
ATOM      5  C   UNL     1      -0.208  10.266  20.815  0.00  0.00    +0.000 A 
ATOM      6  C   UNL     1      -1.316  10.540  19.973  0.00  0.00    +0.000 A 
ENDROOT
BRANCH   1  15
ATOM      7  C   UNL     1      -4.440  13.079  23.623  0.00  0.00    +0.000 C 
ATOM      8  C   UNL     1      -4.824  12.752  22.244  0.00  0.00    +0.000 A 
ATOM      9  N   UNL     1      -6.006  12.407  21.781  0.00  0.00    +0.000 NA
ATOM     10  C   UNL     1      -5.840  12.153  20.441  0.00  0.00    +0.000 A 
ATOM     11  C   UNL     1      -6.750  11.784  19.455  0.00  0.00    +0.000 A 
ATOM     12  C   UNL     1      -6.222  11.651  18.177  0.00  0.00    +0.000 A 
ATOM     13  N   UNL     1      -4.908  11.790  17.854  0.00  0.00    +0.000 NA
ATOM     14  C   UNL     1      -4.006  12.054  18.833  0.00  0.00    +0.000 A 
ATOM     15  N   UNL     1      -2.647  12.131  18.543  0.00  0.00    +0.000 N 
ATOM     16  C   UNL     1      -4.509  12.308  20.100  0.00  0.00    +0.000 A 
ATOM     17  N   UNL     1      -3.905  12.767  21.236  0.00  0.00    +0.000 N 
ATOM     18  H   UNL     1      -2.490  12.206  17.543  0.00  0.00    +0.000 HD
ATOM     19  H   UNL     1      -2.940  13.047  21.304  0.00  0.00    +0.000 HD
ENDBRANCH   1  15
BRANCH   5  20
ATOM     20  C   UNL     1       0.227   8.839  21.282  0.00  0.00    +0.000 C 
BRANCH  20  21
ATOM     21  N   UNL     1       1.632   8.296  21.152  0.00  0.00    +0.000 N 
ATOM     22  H   UNL     1       2.315   9.047  21.221  0.00  0.00    +0.000 HD
BRANCH  21  23
ATOM     23  C   UNL     1       1.956   7.499  20.026  0.00  0.00    +0.000 A 
ATOM     24  N   UNL     1       2.157   8.193  18.904  0.00  0.00    +0.000 NA
ATOM     25  C   UNL     1       2.891   7.599  17.975  0.00  0.00    +0.000 A 
ATOM     26  N   UNL     1       3.610   6.493  18.145  0.00  0.00    +0.000 NA
ATOM     27  C   UNL     1       3.272   5.691  19.152  0.00  0.00    +0.000 A 
ATOM     28  C   UNL     1       3.865   4.415  19.202  0.00  0.00    +0.000 A 
ATOM     29  C   UNL     1       3.211   3.340  19.807  0.00  0.00    +0.000 A 
ATOM     30  C   UNL     1       2.039   3.595  20.498  0.00  0.00    +0.000 A 
ATOM     31  C   UNL     1       1.626   4.938  20.713  0.00  0.00    +0.000 A 
ATOM     32  C   UNL     1       2.261   6.064  20.059  0.00  0.00    +0.000 A 
BRANCH  28  33
ATOM     33  C   UNL     1       5.215   4.153  18.610  0.00  0.00    +0.000 C 
ATOM     34  N   UNL     1       5.248   3.765  17.298  0.00  0.00    +0.000 N 
ATOM     35  O   UNL     1       6.254   4.349  19.229  0.00  0.00    +0.000 OA
ATOM     36  H   UNL     1       4.408   3.380  16.877  0.00  0.00    +0.000 HD
ATOM     37  H   UNL     1       6.140   3.500  16.905  0.00  0.00    +0.000 HD
ENDBRANCH  28  33
ENDBRANCH  21  23
ENDBRANCH  20  21
ENDBRANCH   5  20
TORSDOF 5
ENDMDL
MODEL 6
REMARK VINA RESULT:      -8.8      2.413      3.578
REMARK  Name = 
REMARK  6 active torsions:
REMARK  status: ('A' for Active; 'I' for Inactive)
REMARK    1  A    between atoms: C_1  and  C_2
REMARK    2  A    between atoms: N_9  and  C_10
REMARK    3  A    between atoms: C_14  and  C_15
REMARK    4  A    between atoms: C_15  and  N_16
REMARK    5  A    between atoms: N_16  and  C_17
REMARK    6  A    between atoms: C_22  and  C_23
REMARK                            x       y       z     vdW  Elec       q    Type
REMARK                         _______ _______ _______ _____ _____    ______ ____
ROOT
ATOM      1  C   UNL     1       2.914   6.602  18.436  0.00  0.00    +0.000 A 
ATOM      2  C   UNL     1       2.845   7.550  17.415  0.00  0.00    +0.000 A 
ATOM      3  C   UNL     1       2.282   8.793  17.676  0.00  0.00    +0.000 A 
ATOM      4  C   UNL     1       1.770   9.098  18.955  0.00  0.00    +0.000 A 
ATOM      5  C   UNL     1       1.795   8.182  20.034  0.00  0.00    +0.000 A 
ATOM      6  C   UNL     1       2.390   6.930  19.736  0.00  0.00    +0.000 A 
ENDROOT
BRANCH   1  15
ATOM      7  C   UNL     1       7.791   8.670  17.810  0.00  0.00    +0.000 C 
ATOM      8  C   UNL     1       7.203   7.406  17.353  0.00  0.00    +0.000 A 
ATOM      9  N   UNL     1       7.644   6.584  16.424  0.00  0.00    +0.000 NA
ATOM     10  C   UNL     1       6.718   5.572  16.329  0.00  0.00    +0.000 A 
ATOM     11  C   UNL     1       6.686   4.426  15.540  0.00  0.00    +0.000 A 
ATOM     12  C   UNL     1       5.593   3.595  15.743  0.00  0.00    +0.000 A 
ATOM     13  N   UNL     1       4.557   3.855  16.586  0.00  0.00    +0.000 NA
ATOM     14  C   UNL     1       4.541   5.019  17.282  0.00  0.00    +0.000 A 
ATOM     15  N   UNL     1       3.460   5.342  18.098  0.00  0.00    +0.000 N 
ATOM     16  C   UNL     1       5.669   5.820  17.194  0.00  0.00    +0.000 A 
ATOM     17  N   UNL     1       6.040   6.936  17.888  0.00  0.00    +0.000 N 
ATOM     18  H   UNL     1       2.873   4.532  18.266  0.00  0.00    +0.000 HD
ATOM     19  H   UNL     1       5.521   7.341  18.650  0.00  0.00    +0.000 HD
ENDBRANCH   1  15
BRANCH   5  20
ATOM     20  C   UNL     1       1.485   8.703  21.475  0.00  0.00    +0.000 C 
BRANCH  20  21
ATOM     21  N   UNL     1       0.094   8.991  21.993  0.00  0.00    +0.000 N 
ATOM     22  H   UNL     1      -0.557   8.273  21.689  0.00  0.00    +0.000 HD
BRANCH  21  23
ATOM     23  C   UNL     1      -0.484  10.259  21.731  0.00  0.00    +0.000 A 
ATOM     24  N   UNL     1      -0.554  11.059  22.796  0.00  0.00    +0.000 NA
ATOM     25  C   UNL     1      -0.635  12.357  22.545  0.00  0.00    +0.000 A 
ATOM     26  N   UNL     1      -0.436  12.932  21.363  0.00  0.00    +0.000 NA
ATOM     27  C   UNL     1      -0.571  12.169  20.280  0.00  0.00    +0.000 A 
ATOM     28  C   UNL     1      -0.595  12.809  19.026  0.00  0.00    +0.000 A 
ATOM     29  C   UNL     1      -1.275  12.246  17.943  0.00  0.00    +0.000 A 
ATOM     30  C   UNL     1      -1.786  10.969  18.088  0.00  0.00    +0.000 A 
ATOM     31  C   UNL     1      -1.471  10.210  19.247  0.00  0.00    +0.000 A 
ATOM     32  C   UNL     1      -0.810  10.787  20.400  0.00  0.00    +0.000 A 
BRANCH  28  33
ATOM     33  C   UNL     1       0.100  14.115  18.797  0.00  0.00    +0.000 C 
ATOM     34  N   UNL     1      -0.648  15.249  18.968  0.00  0.00    +0.000 N 
ATOM     35  O   UNL     1       1.297  14.189  18.549  0.00  0.00    +0.000 OA
ATOM     36  H   UNL     1      -1.660  15.181  18.933  0.00  0.00    +0.000 HD
ATOM     37  H   UNL     1      -0.223  16.136  18.735  0.00  0.00    +0.000 HD
ENDBRANCH  28  33
ENDBRANCH  21  23
ENDBRANCH  20  21
ENDBRANCH   5  20
TORSDOF 5
ENDMDL
MODEL 7
REMARK VINA RESULT:      -8.7      3.167     10.410
REMARK  Name = 
REMARK  6 active torsions:
REMARK  status: ('A' for Active; 'I' for Inactive)
REMARK    1  A    between atoms: C_1  and  C_2
REMARK    2  A    between atoms: N_9  and  C_10
REMARK    3  A    between atoms: C_14  and  C_15
REMARK    4  A    between atoms: C_15  and  N_16
REMARK    5  A    between atoms: N_16  and  C_17
REMARK    6  A    between atoms: C_22  and  C_23
REMARK                            x       y       z     vdW  Elec       q    Type
REMARK                         _______ _______ _______ _____ _____    ______ ____
ROOT
ATOM      1  C   UNL     1      -2.062  11.679  17.835  0.00  0.00    +0.000 A 
ATOM      2  C   UNL     1      -1.338  12.718  18.421  0.00  0.00    +0.000 A 
ATOM      3  C   UNL     1      -0.045  12.478  18.870  0.00  0.00    +0.000 A 
ATOM      4  C   UNL     1       0.534  11.197  18.749  0.00  0.00    +0.000 A 
ATOM      5  C   UNL     1      -0.145  10.094  18.179  0.00  0.00    +0.000 A 
ATOM      6  C   UNL     1      -1.456  10.379  17.718  0.00  0.00    +0.000 A 
ENDROOT
BRANCH   1  15
ATOM      7  C   UNL     1      -3.477  12.972  22.814  0.00  0.00    +0.000 C 
ATOM      8  C   UNL     1      -4.276  12.623  21.633  0.00  0.00    +0.000 A 
ATOM      9  N   UNL     1      -5.540  12.260  21.574  0.00  0.00    +0.000 NA
ATOM     10  C   UNL     1      -5.807  11.990  20.254  0.00  0.00    +0.000 A 
ATOM     11  C   UNL     1      -6.980  11.599  19.614  0.00  0.00    +0.000 A 
ATOM     12  C   UNL     1      -6.885  11.455  18.236  0.00  0.00    +0.000 A 
ATOM     13  N   UNL     1      -5.744  11.601  17.509  0.00  0.00    +0.000 NA
ATOM     14  C   UNL     1      -4.581  11.887  18.146  0.00  0.00    +0.000 A 
ATOM     15  N   UNL     1      -3.387  11.973  17.436  0.00  0.00    +0.000 N 
ATOM     16  C   UNL     1      -4.657  12.153  19.505  0.00  0.00    +0.000 A 
ATOM     17  N   UNL     1      -3.728  12.633  20.384  0.00  0.00    +0.000 N 
ATOM     18  H   UNL     1      -3.558  12.036  16.438  0.00  0.00    +0.000 HD
ATOM     19  H   UNL     1      -2.796  12.923  20.137  0.00  0.00    +0.000 HD
ENDBRANCH   1  15
BRANCH   5  20
ATOM     20  C   UNL     1       0.669   8.810  17.818  0.00  0.00    +0.000 C 
BRANCH  20  21
ATOM     21  N   UNL     1       2.172   8.699  17.928  0.00  0.00    +0.000 N 
ATOM     22  H   UNL     1       2.611   8.861  17.026  0.00  0.00    +0.000 HD
BRANCH  21  23
ATOM     23  C   UNL     1       2.733   7.526  18.493  0.00  0.00    +0.000 A 
ATOM     24  N   UNL     1       2.319   7.265  19.735  0.00  0.00    +0.000 NA
ATOM     25  C   UNL     1       2.419   6.005  20.129  0.00  0.00    +0.000 A 
ATOM     26  N   UNL     1       2.682   4.965  19.344  0.00  0.00    +0.000 NA
ATOM     27  C   UNL     1       3.288   5.212  18.183  0.00  0.00    +0.000 A 
ATOM     28  C   UNL     1       3.781   4.112  17.454  0.00  0.00    +0.000 A 
ATOM     29  C   UNL     1       4.871   4.249  16.593  0.00  0.00    +0.000 A 
ATOM     30  C   UNL     1       5.354   5.523  16.351  0.00  0.00    +0.000 A 
ATOM     31  C   UNL     1       4.641   6.652  16.839  0.00  0.00    +0.000 A 
ATOM     32  C   UNL     1       3.537   6.534  17.770  0.00  0.00    +0.000 A 
BRANCH  28  33
ATOM     33  C   UNL     1       3.163   2.753  17.570  0.00  0.00    +0.000 C 
ATOM     34  N   UNL     1       3.955   1.757  18.073  0.00  0.00    +0.000 N 
ATOM     35  O   UNL     1       1.985   2.541  17.308  0.00  0.00    +0.000 OA
ATOM     36  H   UNL     1       4.963   1.874  18.057  0.00  0.00    +0.000 HD
ATOM     37  H   UNL     1       3.587   0.816  18.078  0.00  0.00    +0.000 HD
ENDBRANCH  28  33
ENDBRANCH  21  23
ENDBRANCH  20  21
ENDBRANCH   5  20
TORSDOF 5
ENDMDL
MODEL 8
REMARK VINA RESULT:      -8.7      2.656      8.747
REMARK  Name = 
REMARK  6 active torsions:
REMARK  status: ('A' for Active; 'I' for Inactive)
REMARK    1  A    between atoms: C_1  and  C_2
REMARK    2  A    between atoms: N_9  and  C_10
REMARK    3  A    between atoms: C_14  and  C_15
REMARK    4  A    between atoms: C_15  and  N_16
REMARK    5  A    between atoms: N_16  and  C_17
REMARK    6  A    between atoms: C_22  and  C_23
REMARK                            x       y       z     vdW  Elec       q    Type
REMARK                         _______ _______ _______ _____ _____    ______ ____
ROOT
ATOM      1  C   UNL     1       1.448   9.063  19.985  0.00  0.00    +0.000 A 
ATOM      2  C   UNL     1       1.811   9.296  18.658  0.00  0.00    +0.000 A 
ATOM      3  C   UNL     1       2.310   8.248  17.894  0.00  0.00    +0.000 A 
ATOM      4  C   UNL     1       2.463   6.960  18.451  0.00  0.00    +0.000 A 
ATOM      5  C   UNL     1       2.129   6.655  19.791  0.00  0.00    +0.000 A 
ATOM      6  C   UNL     1       1.609   7.744  20.536  0.00  0.00    +0.000 A 
ENDROOT
BRANCH   1  15
ATOM      7  C   UNL     1      -2.696   9.762  16.698  0.00  0.00    +0.000 C 
ATOM      8  C   UNL     1      -2.064  10.659  17.674  0.00  0.00    +0.000 A 
ATOM      9  N   UNL     1      -2.179  11.965  17.783  0.00  0.00    +0.000 NA
ATOM     10  C   UNL     1      -1.353  12.343  18.815  0.00  0.00    +0.000 A 
ATOM     11  C   UNL     1      -1.104  13.589  19.384  0.00  0.00    +0.000 A 
ATOM     12  C   UNL     1      -0.223  13.586  20.457  0.00  0.00    +0.000 A 
ATOM     13  N   UNL     1       0.438  12.493  20.926  0.00  0.00    +0.000 NA
ATOM     14  C   UNL     1       0.269  11.298  20.308  0.00  0.00    +0.000 A 
ATOM     15  N   UNL     1       0.986  10.178  20.722  0.00  0.00    +0.000 N 
ATOM     16  C   UNL     1      -0.689  11.236  19.309  0.00  0.00    +0.000 A 
ATOM     17  N   UNL     1      -1.218  10.175  18.629  0.00  0.00    +0.000 N 
ATOM     18  H   UNL     1       1.413  10.332  21.629  0.00  0.00    +0.000 HD
ATOM     19  H   UNL     1      -0.996   9.209  18.804  0.00  0.00    +0.000 HD
ENDBRANCH   1  15
BRANCH   5  20
ATOM     20  C   UNL     1       2.049   5.155  20.227  0.00  0.00    +0.000 C 
BRANCH  20  21
ATOM     21  N   UNL     1       3.255   4.278  20.471  0.00  0.00    +0.000 N 
ATOM     22  H   UNL     1       3.855   4.682  21.185  0.00  0.00    +0.000 HD
BRANCH  21  23
ATOM     23  C   UNL     1       4.064   3.905  19.367  0.00  0.00    +0.000 A 
ATOM     24  N   UNL     1       3.570   2.901  18.641  0.00  0.00    +0.000 NA
ATOM     25  C   UNL     1       4.001   2.819  17.391  0.00  0.00    +0.000 A 
ATOM     26  N   UNL     1       4.695   3.753  16.748  0.00  0.00    +0.000 NA
ATOM     27  C   UNL     1       5.362   4.639  17.486  0.00  0.00    +0.000 A 
ATOM     28  C   UNL     1       6.281   5.480  16.830  0.00  0.00    +0.000 A 
ATOM     29  C   UNL     1       7.390   5.997  17.502  0.00  0.00    +0.000 A 
ATOM     30  C   UNL     1       7.477   5.795  18.868  0.00  0.00    +0.000 A 
ATOM     31  C   UNL     1       6.380   5.225  19.568  0.00  0.00    +0.000 A 
ATOM     32  C   UNL     1       5.241   4.640  18.889  0.00  0.00    +0.000 A 
BRANCH  28  33
ATOM     33  C   UNL     1       6.113   5.854  15.390  0.00  0.00    +0.000 C 
ATOM     34  N   UNL     1       5.126   6.758  15.099  0.00  0.00    +0.000 N 
ATOM     35  O   UNL     1       6.863   5.446  14.512  0.00  0.00    +0.000 OA
ATOM     36  H   UNL     1       4.376   6.900  15.768  0.00  0.00    +0.000 HD
ATOM     37  H   UNL     1       4.939   6.958  14.127  0.00  0.00    +0.000 HD
ENDBRANCH  28  33
ENDBRANCH  21  23
ENDBRANCH  20  21
ENDBRANCH   5  20
TORSDOF 5
ENDMDL
MODEL 9
REMARK VINA RESULT:      -8.6      2.321      3.281
REMARK  Name = 
REMARK  6 active torsions:
REMARK  status: ('A' for Active; 'I' for Inactive)
REMARK    1  A    between atoms: C_1  and  C_2
REMARK    2  A    between atoms: N_9  and  C_10
REMARK    3  A    between atoms: C_14  and  C_15
REMARK    4  A    between atoms: C_15  and  N_16
REMARK    5  A    between atoms: N_16  and  C_17
REMARK    6  A    between atoms: C_22  and  C_23
REMARK                            x       y       z     vdW  Elec       q    Type
REMARK                         _______ _______ _______ _____ _____    ______ ____
ROOT
ATOM      1  C   UNL     1       3.141   5.693  18.271  0.00  0.00    +0.000 A 
ATOM      2  C   UNL     1       2.711   5.457  19.577  0.00  0.00    +0.000 A 
ATOM      3  C   UNL     1       2.139   6.494  20.304  0.00  0.00    +0.000 A 
ATOM      4  C   UNL     1       2.002   7.780  19.739  0.00  0.00    +0.000 A 
ATOM      5  C   UNL     1       2.427   8.095  18.426  0.00  0.00    +0.000 A 
ATOM      6  C   UNL     1       2.993   7.010  17.709  0.00  0.00    +0.000 A 
ENDROOT
BRANCH   1  15
ATOM      7  C   UNL     1       7.864   8.173  18.172  0.00  0.00    +0.000 C 
ATOM      8  C   UNL     1       7.340   7.042  17.396  0.00  0.00    +0.000 A 
ATOM      9  N   UNL     1       7.802   6.532  16.274  0.00  0.00    +0.000 NA
ATOM     10  C   UNL     1       6.938   5.525  15.919  0.00  0.00    +0.000 A 
ATOM     11  C   UNL     1       6.952   4.635  14.849  0.00  0.00    +0.000 A 
ATOM     12  C   UNL     1       5.918   3.709  14.832  0.00  0.00    +0.000 A 
ATOM     13  N   UNL     1       4.893   3.662  15.726  0.00  0.00    +0.000 NA
ATOM     14  C   UNL     1       4.827   4.591  16.712  0.00  0.00    +0.000 A 
ATOM     15  N   UNL     1       3.753   4.610  17.598  0.00  0.00    +0.000 N 
ATOM     16  C   UNL     1       5.901   5.459  16.831  0.00  0.00    +0.000 A 
ATOM     17  N   UNL     1       6.224   6.369  17.798  0.00  0.00    +0.000 N 
ATOM     18  H   UNL     1       3.221   3.748  17.546  0.00  0.00    +0.000 HD
ATOM     19  H   UNL     1       5.704   6.518  18.647  0.00  0.00    +0.000 HD
ENDBRANCH   1  15
BRANCH   5  20
ATOM     20  C   UNL     1       1.968   9.445  17.786  0.00  0.00    +0.000 C 
BRANCH  20  21
ATOM     21  N   UNL     1       0.805  10.269  18.288  0.00  0.00    +0.000 N 
ATOM     22  H   UNL     1       0.413  10.831  17.538  0.00  0.00    +0.000 HD
BRANCH  21  23
ATOM     23  C   UNL     1       0.994  11.103  19.419  0.00  0.00    +0.000 A 
ATOM     24  N   UNL     1       1.785  12.155  19.197  0.00  0.00    +0.000 NA
ATOM     25  C   UNL     1       1.634  13.181  20.020  0.00  0.00    +0.000 A 
ATOM     26  N   UNL     1       0.638  13.340  20.887  0.00  0.00    +0.000 NA
ATOM     27  C   UNL     1      -0.023  12.248  21.267  0.00  0.00    +0.000 A 
ATOM     28  C   UNL     1      -0.916  12.366  22.350  0.00  0.00    +0.000 A 
ATOM     29  C   UNL     1      -1.199  11.273  23.171  0.00  0.00    +0.000 A 
ATOM     30  C   UNL     1      -0.709  10.034  22.799  0.00  0.00    +0.000 A 
ATOM     31  C   UNL     1      -0.085   9.874  21.533  0.00  0.00    +0.000 A 
ATOM     32  C   UNL     1       0.261  10.998  20.686  0.00  0.00    +0.000 A 
BRANCH  28  33
ATOM     33  C   UNL     1      -1.595  13.661  22.670  0.00  0.00    +0.000 C 
ATOM     34  N   UNL     1      -1.291  14.235  23.876  0.00  0.00    +0.000 N 
ATOM     35  O   UNL     1      -2.326  14.235  21.873  0.00  0.00    +0.000 OA
ATOM     36  H   UNL     1      -0.893  13.657  24.609  0.00  0.00    +0.000 HD
ATOM     37  H   UNL     1      -1.803  15.062  24.148  0.00  0.00    +0.000 HD
ENDBRANCH  28  33
ENDBRANCH  21  23
ENDBRANCH  20  21
ENDBRANCH   5  20
TORSDOF 5
ENDMDL
