MODEL 1
REMARK VINA RESULT:      -7.7      0.000      0.000
REMARK  Name = 
REMARK  9 active torsions:
REMARK  status: ('A' for Active; 'I' for Inactive)
REMARK    1  A    between atoms: C_1  and  C_2
REMARK    2  A    between atoms: C_4  and  C_5
REMARK    3  A    between atoms: C_6  and  C_7
REMARK    4  A    between atoms: C_7  and  O_8
REMARK    5  A    between atoms: O_8  and  C_9
REMARK    6  A    between atoms: C_14  and  C_15
REMARK    7  A    between atoms: C_16  and  C_17
REMARK    8  A    between atoms: C_17  and  O_19
REMARK    9  A    between atoms: C_21  and  C_22
REMARK                            x       y       z     vdW  Elec       q    Type
REMARK                         _______ _______ _______ _____ _____    ______ ____
ROOT
ATOM      1  C   UNL     1       3.034   6.069  18.275  0.00  0.00    +0.000 A 
ATOM      2  C   UNL     1       2.887   7.209  17.469  0.00  0.00    +0.000 A 
ATOM      3  C   UNL     1       2.335   8.384  17.978  0.00  0.00    +0.000 A 
ATOM      4  C   UNL     1       1.908   8.430  19.295  0.00  0.00    +0.000 A 
ATOM      5  C   UNL     1       2.014   7.292  20.098  0.00  0.00    +0.000 A 
ATOM      6  C   UNL     1       2.553   6.091  19.601  0.00  0.00    +0.000 A 
ENDROOT
BRANCH   6   7
ATOM      7  C   UNL     1       2.600   4.970  20.567  0.00  0.00    +0.000 C 
ATOM      8  C   UNL     1       1.977   3.789  20.436  0.00  0.00    +0.000 C 
BRANCH   8   9
ATOM      9  C   UNL     1       2.052   2.812  21.542  0.00  0.00    +0.000 C 
ATOM     10  O   UNL     1       1.124   2.518  22.276  0.00  0.00    +0.000 OA
BRANCH   9  11
ATOM     11  O   UNL     1       3.279   2.263  21.649  0.00  0.00    +0.000 OA
ATOM     12  H   UNL     1       3.664   2.273  22.545  0.00  0.00    +0.000 HD
ENDBRANCH   9  11
ENDBRANCH   8   9
ENDBRANCH   6   7
BRANCH   1  13
ATOM     13  O   UNL     1       3.590   4.907  17.791  0.00  0.00    +0.000 OA
BRANCH  13  14
ATOM     14  C   UNL     1       5.002   4.765  18.009  0.00  0.00    +0.000 C 
BRANCH  14  20
ATOM     15  C   UNL     1       7.846   5.167  13.079  0.00  0.00    +0.000 C 
ATOM     16  C   UNL     1       7.064   5.101  14.354  0.00  0.00    +0.000 A 
ATOM     17  N   UNL     1       7.571   5.785  15.412  0.00  0.00    +0.000 NA
ATOM     18  C   UNL     1       6.898   5.702  16.589  0.00  0.00    +0.000 A 
ATOM     19  C   UNL     1       7.443   6.511  17.726  0.00  0.00    +0.000 C 
ATOM     20  C   UNL     1       5.748   4.924  16.709  0.00  0.00    +0.000 A 
ATOM     21  N   UNL     1       5.228   4.259  15.639  0.00  0.00    +0.000 NA
ATOM     22  C   UNL     1       5.888   4.362  14.460  0.00  0.00    +0.000 A 
ATOM     23  C   UNL     1       5.291   3.628  13.298  0.00  0.00    +0.000 C 
ENDBRANCH  14  20
ENDBRANCH  13  14
ENDBRANCH   1  13
TORSDOF 6
ENDMDL
MODEL 2
REMARK VINA RESULT:      -7.7      1.989      3.377
REMARK  Name = 
REMARK  9 active torsions:
REMARK  status: ('A' for Active; 'I' for Inactive)
REMARK    1  A    between atoms: C_1  and  C_2
REMARK    2  A    between atoms: C_4  and  C_5
REMARK    3  A    between atoms: C_6  and  C_7
REMARK    4  A    between atoms: C_7  and  O_8
REMARK    5  A    between atoms: O_8  and  C_9
REMARK    6  A    between atoms: C_14  and  C_15
REMARK    7  A    between atoms: C_16  and  C_17
REMARK    8  A    between atoms: C_17  and  O_19
REMARK    9  A    between atoms: C_21  and  C_22
REMARK                            x       y       z     vdW  Elec       q    Type
REMARK                         _______ _______ _______ _____ _____    ______ ____
ROOT
ATOM      1  C   UNL     1       2.753   4.213  18.509  0.00  0.00    +0.000 A 
ATOM      2  C   UNL     1       2.630   2.826  18.323  0.00  0.00    +0.000 A 
ATOM      3  C   UNL     1       1.824   2.057  19.160  0.00  0.00    +0.000 A 
ATOM      4  C   UNL     1       1.141   2.659  20.204  0.00  0.00    +0.000 A 
ATOM      5  C   UNL     1       1.284   4.031  20.426  0.00  0.00    +0.000 A 
ATOM      6  C   UNL     1       2.105   4.824  19.603  0.00  0.00    +0.000 A 
ENDROOT
BRANCH   6   7
ATOM      7  C   UNL     1       2.159   6.260  19.959  0.00  0.00    +0.000 C 
ATOM      8  C   UNL     1       1.270   6.919  20.719  0.00  0.00    +0.000 C 
BRANCH   8   9
ATOM      9  C   UNL     1       1.423   8.378  20.899  0.00  0.00    +0.000 C 
ATOM     10  O   UNL     1       1.153   9.216  20.055  0.00  0.00    +0.000 OA
BRANCH   9  11
ATOM     11  O   UNL     1       1.895   8.690  22.123  0.00  0.00    +0.000 OA
ATOM     12  H   UNL     1       2.817   8.425  22.294  0.00  0.00    +0.000 HD
ENDBRANCH   9  11
ENDBRANCH   8   9
ENDBRANCH   6   7
BRANCH   1  13
ATOM     13  O   UNL     1       3.534   4.987  17.683  0.00  0.00    +0.000 OA
BRANCH  13  14
ATOM     14  C   UNL     1       4.943   4.944  17.952  0.00  0.00    +0.000 C 
BRANCH  14  20
ATOM     15  C   UNL     1       7.902   5.077  13.075  0.00  0.00    +0.000 C 
ATOM     16  C   UNL     1       7.092   5.082  14.335  0.00  0.00    +0.000 A 
ATOM     17  N   UNL     1       7.604   5.779  15.382  0.00  0.00    +0.000 NA
ATOM     18  C   UNL     1       6.904   5.761  16.546  0.00  0.00    +0.000 A 
ATOM     19  C   UNL     1       7.456   6.584  17.668  0.00  0.00    +0.000 C 
ATOM     20  C   UNL     1       5.722   5.032  16.665  0.00  0.00    +0.000 A 
ATOM     21  N   UNL     1       5.198   4.353  15.605  0.00  0.00    +0.000 NA
ATOM     22  C   UNL     1       5.886   4.393  14.438  0.00  0.00    +0.000 A 
ATOM     23  C   UNL     1       5.285   3.646  13.287  0.00  0.00    +0.000 C 
ENDBRANCH  14  20
ENDBRANCH  13  14
ENDBRANCH   1  13
TORSDOF 6
ENDMDL
MODEL 3
REMARK VINA RESULT:      -7.6      1.758      3.727
REMARK  Name = 
REMARK  9 active torsions:
REMARK  status: ('A' for Active; 'I' for Inactive)
REMARK    1  A    between atoms: C_1  and  C_2
REMARK    2  A    between atoms: C_4  and  C_5
REMARK    3  A    between atoms: C_6  and  C_7
REMARK    4  A    between atoms: C_7  and  O_8
REMARK    5  A    between atoms: O_8  and  C_9
REMARK    6  A    between atoms: C_14  and  C_15
REMARK    7  A    between atoms: C_16  and  C_17
REMARK    8  A    between atoms: C_17  and  O_19
REMARK    9  A    between atoms: C_21  and  C_22
REMARK                            x       y       z     vdW  Elec       q    Type
REMARK                         _______ _______ _______ _____ _____    ______ ____
ROOT
ATOM      1  C   UNL     1       2.988   3.523  18.531  0.00  0.00    +0.000 A 
ATOM      2  C   UNL     1       2.974   2.332  19.277  0.00  0.00    +0.000 A 
ATOM      3  C   UNL     1       2.107   2.170  20.357  0.00  0.00    +0.000 A 
ATOM      4  C   UNL     1       1.253   3.199  20.715  0.00  0.00    +0.000 A 
ATOM      5  C   UNL     1       1.282   4.403  20.007  0.00  0.00    +0.000 A 
ATOM      6  C   UNL     1       2.159   4.595  18.923  0.00  0.00    +0.000 A 
ENDROOT
BRANCH   6   7
ATOM      7  C   UNL     1       2.078   5.920  18.270  0.00  0.00    +0.000 C 
ATOM      8  C   UNL     1       2.496   7.084  18.790  0.00  0.00    +0.000 C 
BRANCH   8   9
ATOM      9  C   UNL     1       2.253   8.334  18.041  0.00  0.00    +0.000 C 
ATOM     10  O   UNL     1       1.359   9.128  18.281  0.00  0.00    +0.000 OA
BRANCH   9  11
ATOM     11  O   UNL     1       3.148   8.511  17.047  0.00  0.00    +0.000 OA
ATOM     12  H   UNL     1       3.674   9.329  17.101  0.00  0.00    +0.000 HD
ENDBRANCH   9  11
ENDBRANCH   8   9
ENDBRANCH   6   7
BRANCH   1  13
ATOM     13  O   UNL     1       3.827   3.692  17.455  0.00  0.00    +0.000 OA
BRANCH  13  14
ATOM     14  C   UNL     1       5.140   4.180  17.771  0.00  0.00    +0.000 C 
BRANCH  14  20
ATOM     15  C   UNL     1       7.984   5.348  12.965  0.00  0.00    +0.000 C 
ATOM     16  C   UNL     1       7.198   5.078  14.210  0.00  0.00    +0.000 A 
ATOM     17  N   UNL     1       7.600   5.726  15.334  0.00  0.00    +0.000 NA
ATOM     18  C   UNL     1       6.926   5.461  16.483  0.00  0.00    +0.000 A 
ATOM     19  C   UNL     1       7.349   6.230  17.696  0.00  0.00    +0.000 C 
ATOM     20  C   UNL     1       5.880   4.540  16.509  0.00  0.00    +0.000 A 
ATOM     21  N   UNL     1       5.462   3.911  15.374  0.00  0.00    +0.000 NA
ATOM     22  C   UNL     1       6.121   4.194  14.225  0.00  0.00    +0.000 A 
ATOM     23  C   UNL     1       5.637   3.495  12.991  0.00  0.00    +0.000 C 
ENDBRANCH  14  20
ENDBRANCH  13  14
ENDBRANCH   1  13
TORSDOF 6
ENDMDL
MODEL 4
REMARK VINA RESULT:      -7.5      1.698      3.735
REMARK  Name = 
REMARK  9 active torsions:
REMARK  status: ('A' for Active; 'I' for Inactive)
REMARK    1  A    between atoms: C_1  and  C_2
REMARK    2  A    between atoms: C_4  and  C_5
REMARK    3  A    between atoms: C_6  and  C_7
REMARK    4  A    between atoms: C_7  and  O_8
REMARK    5  A    between atoms: O_8  and  C_9
REMARK    6  A    between atoms: C_14  and  C_15
REMARK    7  A    between atoms: C_16  and  C_17
REMARK    8  A    between atoms: C_17  and  O_19
REMARK    9  A    between atoms: C_21  and  C_22
REMARK                            x       y       z     vdW  Elec       q    Type
REMARK                         _______ _______ _______ _____ _____    ______ ____
ROOT
ATOM      1  C   UNL     1       3.440   4.478  19.335  0.00  0.00    +0.000 A 
ATOM      2  C   UNL     1       3.465   3.133  19.739  0.00  0.00    +0.000 A 
ATOM      3  C   UNL     1       2.478   2.615  20.576  0.00  0.00    +0.000 A 
ATOM      4  C   UNL     1       1.460   3.436  21.033  0.00  0.00    +0.000 A 
ATOM      5  C   UNL     1       1.443   4.785  20.669  0.00  0.00    +0.000 A 
ATOM      6  C   UNL     1       2.438   5.334  19.838  0.00  0.00    +0.000 A 
ENDROOT
BRANCH   6   7
ATOM      7  C   UNL     1       2.289   6.776  19.540  0.00  0.00    +0.000 C 
ATOM      8  C   UNL     1       2.000   7.309  18.343  0.00  0.00    +0.000 C 
BRANCH   8   9
ATOM      9  C   UNL     1       1.982   8.779  18.199  0.00  0.00    +0.000 C 
ATOM     10  O   UNL     1       2.429   9.391  17.243  0.00  0.00    +0.000 OA
BRANCH   9  11
ATOM     11  O   UNL     1       1.397   9.384  19.253  0.00  0.00    +0.000 OA
ATOM     12  H   UNL     1       0.501   9.068  19.471  0.00  0.00    +0.000 HD
ENDBRANCH   9  11
ENDBRANCH   8   9
ENDBRANCH   6   7
BRANCH   1  13
ATOM     13  O   UNL     1       4.399   5.000  18.498  0.00  0.00    +0.000 OA
BRANCH  13  14
ATOM     14  C   UNL     1       5.453   4.096  18.134  0.00  0.00    +0.000 C 
BRANCH  14  20
ATOM     15  C   UNL     1       7.822   5.477  13.130  0.00  0.00    +0.000 C 
ATOM     16  C   UNL     1       7.157   5.147  14.431  0.00  0.00    +0.000 A 
ATOM     17  N   UNL     1       7.594   5.825  15.524  0.00  0.00    +0.000 NA
ATOM     18  C   UNL     1       7.032   5.509  16.719  0.00  0.00    +0.000 A 
ATOM     19  C   UNL     1       7.487   6.309  17.901  0.00  0.00    +0.000 C 
ATOM     20  C   UNL     1       6.064   4.511  16.820  0.00  0.00    +0.000 A 
ATOM     21  N   UNL     1       5.610   3.851  15.718  0.00  0.00    +0.000 NA
ATOM     22  C   UNL     1       6.154   4.184  14.523  0.00  0.00    +0.000 A 
ATOM     23  C   UNL     1       5.632   3.449  13.326  0.00  0.00    +0.000 C 
ENDBRANCH  14  20
ENDBRANCH  13  14
ENDBRANCH   1  13
TORSDOF 6
ENDMDL
MODEL 5
REMARK VINA RESULT:      -7.4      2.177      4.541
REMARK  Name = 
REMARK  9 active torsions:
REMARK  status: ('A' for Active; 'I' for Inactive)
REMARK    1  A    between atoms: C_1  and  C_2
REMARK    2  A    between atoms: C_4  and  C_5
REMARK    3  A    between atoms: C_6  and  C_7
REMARK    4  A    between atoms: C_7  and  O_8
REMARK    5  A    between atoms: O_8  and  C_9
REMARK    6  A    between atoms: C_14  and  C_15
REMARK    7  A    between atoms: C_16  and  C_17
REMARK    8  A    between atoms: C_17  and  O_19
REMARK    9  A    between atoms: C_21  and  C_22
REMARK                            x       y       z     vdW  Elec       q    Type
REMARK                         _______ _______ _______ _____ _____    ______ ____
ROOT
ATOM      1  C   UNL     1       2.957   3.789  18.593  0.00  0.00    +0.000 A 
ATOM      2  C   UNL     1       3.060   2.630  19.380  0.00  0.00    +0.000 A 
ATOM      3  C   UNL     1       2.562   2.599  20.682  0.00  0.00    +0.000 A 
ATOM      4  C   UNL     1       1.969   3.729  21.221  0.00  0.00    +0.000 A 
ATOM      5  C   UNL     1       1.894   4.901  20.463  0.00  0.00    +0.000 A 
ATOM      6  C   UNL     1       2.404   4.960  19.152  0.00  0.00    +0.000 A 
ENDROOT
BRANCH   6   7
ATOM      7  C   UNL     1       2.254   6.267  18.473  0.00  0.00    +0.000 C 
ATOM      8  C   UNL     1       2.341   7.473  19.055  0.00  0.00    +0.000 C 
BRANCH   8   9
ATOM      9  C   UNL     1       2.072   8.680  18.246  0.00  0.00    +0.000 C 
ATOM     10  O   UNL     1       1.351   9.602  18.589  0.00  0.00    +0.000 OA
BRANCH   9  11
ATOM     11  O   UNL     1       2.728   8.657  17.068  0.00  0.00    +0.000 OA
ATOM     12  H   UNL     1       2.193   8.391  16.298  0.00  0.00    +0.000 HD
ENDBRANCH   9  11
ENDBRANCH   8   9
ENDBRANCH   6   7
BRANCH   1  13
ATOM     13  O   UNL     1       3.431   3.831  17.302  0.00  0.00    +0.000 OA
BRANCH  13  14
ATOM     14  C   UNL     1       4.800   3.433  17.137  0.00  0.00    +0.000 C 
BRANCH  14  20
ATOM     15  C   UNL     1       8.165   7.953  18.035  0.00  0.00    +0.000 C 
ATOM     16  C   UNL     1       7.326   6.738  17.782  0.00  0.00    +0.000 A 
ATOM     17  N   UNL     1       6.631   6.713  16.616  0.00  0.00    +0.000 NA
ATOM     18  C   UNL     1       5.832   5.638  16.389  0.00  0.00    +0.000 A 
ATOM     19  C   UNL     1       5.120   5.604  15.071  0.00  0.00    +0.000 C 
ATOM     20  C   UNL     1       5.713   4.616  17.329  0.00  0.00    +0.000 A 
ATOM     21  N   UNL     1       6.432   4.632  18.487  0.00  0.00    +0.000 NA
ATOM     22  C   UNL     1       7.247   5.693  18.701  0.00  0.00    +0.000 A 
ATOM     23  C   UNL     1       8.032   5.682  19.977  0.00  0.00    +0.000 C 
ENDBRANCH  14  20
ENDBRANCH  13  14
ENDBRANCH   1  13
TORSDOF 6
ENDMDL
MODEL 6
REMARK VINA RESULT:      -7.3      2.219      3.612
REMARK  Name = 
REMARK  9 active torsions:
REMARK  status: ('A' for Active; 'I' for Inactive)
REMARK    1  A    between atoms: C_1  and  C_2
REMARK    2  A    between atoms: C_4  and  C_5
REMARK    3  A    between atoms: C_6  and  C_7
REMARK    4  A    between atoms: C_7  and  O_8
REMARK    5  A    between atoms: O_8  and  C_9
REMARK    6  A    between atoms: C_14  and  C_15
REMARK    7  A    between atoms: C_16  and  C_17
REMARK    8  A    between atoms: C_17  and  O_19
REMARK    9  A    between atoms: C_21  and  C_22
REMARK                            x       y       z     vdW  Elec       q    Type
REMARK                         _______ _______ _______ _____ _____    ______ ____
ROOT
ATOM      1  C   UNL     1       3.376   4.844  19.689  0.00  0.00    +0.000 A 
ATOM      2  C   UNL     1       3.450   3.443  19.750  0.00  0.00    +0.000 A 
ATOM      3  C   UNL     1       2.362   2.684  20.181  0.00  0.00    +0.000 A 
ATOM      4  C   UNL     1       1.192   3.314  20.571  0.00  0.00    +0.000 A 
ATOM      5  C   UNL     1       1.118   4.710  20.552  0.00  0.00    +0.000 A 
ATOM      6  C   UNL     1       2.208   5.496  20.135  0.00  0.00    +0.000 A 
ENDROOT
BRANCH   6   7
ATOM      7  C   UNL     1       1.982   6.959  20.170  0.00  0.00    +0.000 C 
ATOM      8  C   UNL     1       1.308   7.632  21.114  0.00  0.00    +0.000 C 
BRANCH   8   9
ATOM      9  C   UNL     1       1.095   9.084  20.945  0.00  0.00    +0.000 C 
ATOM     10  O   UNL     1       0.758   9.623  19.904  0.00  0.00    +0.000 OA
BRANCH   9  11
ATOM     11  O   UNL     1       1.307   9.764  22.091  0.00  0.00    +0.000 OA
ATOM     12  H   UNL     1       2.215  10.097  22.215  0.00  0.00    +0.000 HD
ENDBRANCH   9  11
ENDBRANCH   8   9
ENDBRANCH   6   7
BRANCH   1  13
ATOM     13  O   UNL     1       4.436   5.605  19.253  0.00  0.00    +0.000 OA
BRANCH  13  14
ATOM     14  C   UNL     1       5.670   4.894  19.074  0.00  0.00    +0.000 C 
BRANCH  14  20
ATOM     15  C   UNL     1       7.536   5.247  13.693  0.00  0.00    +0.000 C 
ATOM     16  C   UNL     1       7.004   5.188  15.092  0.00  0.00    +0.000 A 
ATOM     17  N   UNL     1       7.608   5.993  16.005  0.00  0.00    +0.000 NA
ATOM     18  C   UNL     1       7.167   5.922  17.287  0.00  0.00    +0.000 A 
ATOM     19  C   UNL     1       7.807   6.860  18.264  0.00  0.00    +0.000 C 
ATOM     20  C   UNL     1       6.153   5.039  17.653  0.00  0.00    +0.000 A 
ATOM     21  N   UNL     1       5.531   4.252  16.730  0.00  0.00    +0.000 NA
ATOM     22  C   UNL     1       5.957   4.341  15.447  0.00  0.00    +0.000 A 
ATOM     23  C   UNL     1       5.252   3.471  14.451  0.00  0.00    +0.000 C 
ENDBRANCH  14  20
ENDBRANCH  13  14
ENDBRANCH   1  13
TORSDOF 6
ENDMDL
MODEL 7
REMARK VINA RESULT:      -7.3      3.345      7.311
REMARK  Name = 
REMARK  9 active torsions:
REMARK  status: ('A' for Active; 'I' for Inactive)
REMARK    1  A    between atoms: C_1  and  C_2
REMARK    2  A    between atoms: C_4  and  C_5
REMARK    3  A    between atoms: C_6  and  C_7
REMARK    4  A    between atoms: C_7  and  O_8
REMARK    5  A    between atoms: O_8  and  C_9
REMARK    6  A    between atoms: C_14  and  C_15
REMARK    7  A    between atoms: C_16  and  C_17
REMARK    8  A    between atoms: C_17  and  O_19
REMARK    9  A    between atoms: C_21  and  C_22
REMARK                            x       y       z     vdW  Elec       q    Type
REMARK                         _______ _______ _______ _____ _____    ______ ____
ROOT
ATOM      1  C   UNL     1       2.193   4.578  18.576  0.00  0.00    +0.000 A 
ATOM      2  C   UNL     1       1.291   3.754  19.269  0.00  0.00    +0.000 A 
ATOM      3  C   UNL     1       1.455   2.369  19.292  0.00  0.00    +0.000 A 
ATOM      4  C   UNL     1       2.512   1.788  18.612  0.00  0.00    +0.000 A 
ATOM      5  C   UNL     1       3.395   2.593  17.887  0.00  0.00    +0.000 A 
ATOM      6  C   UNL     1       3.240   3.990  17.837  0.00  0.00    +0.000 A 
ENDROOT
BRANCH   6   7
ATOM      7  C   UNL     1       4.251   4.710  17.029  0.00  0.00    +0.000 C 
ATOM      8  C   UNL     1       5.346   4.172  16.472  0.00  0.00    +0.000 C 
BRANCH   8   9
ATOM      9  C   UNL     1       6.303   5.055  15.774  0.00  0.00    +0.000 C 
ATOM     10  O   UNL     1       5.992   5.991  15.057  0.00  0.00    +0.000 OA
BRANCH   9  11
ATOM     11  O   UNL     1       7.583   4.714  16.026  0.00  0.00    +0.000 OA
ATOM     12  H   UNL     1       8.250   5.159  15.472  0.00  0.00    +0.000 HD
ENDBRANCH   9  11
ENDBRANCH   8   9
ENDBRANCH   6   7
BRANCH   1  13
ATOM     13  O   UNL     1       2.053   5.946  18.556  0.00  0.00    +0.000 OA
BRANCH  13  14
ATOM     14  C   UNL     1       2.563   6.633  19.709  0.00  0.00    +0.000 C 
BRANCH  14  20
ATOM     15  C   UNL     1      -0.579  11.293  20.691  0.00  0.00    +0.000 C 
ATOM     16  C   UNL     1       0.288  10.094  20.460  0.00  0.00    +0.000 A 
ATOM     17  N   UNL     1       0.865   9.991  19.235  0.00  0.00    +0.000 NA
ATOM     18  C   UNL     1       1.622   8.889  18.993  0.00  0.00    +0.000 A 
ATOM     19  C   UNL     1       2.295   8.824  17.656  0.00  0.00    +0.000 C 
ATOM     20  C   UNL     1       1.775   7.893  19.956  0.00  0.00    +0.000 A 
ATOM     21  N   UNL     1       1.216   8.012  21.193  0.00  0.00    +0.000 NA
ATOM     22  C   UNL     1       0.481   9.123  21.441  0.00  0.00    +0.000 A 
ATOM     23  C   UNL     1      -0.116   9.234  22.811  0.00  0.00    +0.000 C 
ENDBRANCH  14  20
ENDBRANCH  13  14
ENDBRANCH   1  13
TORSDOF 6
ENDMDL
MODEL 8
REMARK VINA RESULT:      -7.1      2.611      4.360
REMARK  Name = 
REMARK  9 active torsions:
REMARK  status: ('A' for Active; 'I' for Inactive)
REMARK    1  A    between atoms: C_1  and  C_2
REMARK    2  A    between atoms: C_4  and  C_5
REMARK    3  A    between atoms: C_6  and  C_7
REMARK    4  A    between atoms: C_7  and  O_8
REMARK    5  A    between atoms: O_8  and  C_9
REMARK    6  A    between atoms: C_14  and  C_15
REMARK    7  A    between atoms: C_16  and  C_17
REMARK    8  A    between atoms: C_17  and  O_19
REMARK    9  A    between atoms: C_21  and  C_22
REMARK                            x       y       z     vdW  Elec       q    Type
REMARK                         _______ _______ _______ _____ _____    ______ ____
ROOT
ATOM      1  C   UNL     1       2.457   4.120  18.556  0.00  0.00    +0.000 A 
ATOM      2  C   UNL     1       2.322   2.728  18.430  0.00  0.00    +0.000 A 
ATOM      3  C   UNL     1       1.742   1.966  19.443  0.00  0.00    +0.000 A 
ATOM      4  C   UNL     1       1.302   2.582  20.603  0.00  0.00    +0.000 A 
ATOM      5  C   UNL     1       1.464   3.961  20.759  0.00  0.00    +0.000 A 
ATOM      6  C   UNL     1       2.061   4.748  19.756  0.00  0.00    +0.000 A 
ENDROOT
BRANCH   6   7
ATOM      7  C   UNL     1       2.166   6.192  20.063  0.00  0.00    +0.000 C 
ATOM      8  C   UNL     1       1.252   6.930  20.712  0.00  0.00    +0.000 C 
BRANCH   8   9
ATOM      9  C   UNL     1       1.473   8.384  20.851  0.00  0.00    +0.000 C 
ATOM     10  O   UNL     1       1.258   9.208  19.978  0.00  0.00    +0.000 OA
BRANCH   9  11
ATOM     11  O   UNL     1       1.938   8.711  22.074  0.00  0.00    +0.000 OA
ATOM     12  H   UNL     1       1.582   8.180  22.811  0.00  0.00    +0.000 HD
ENDBRANCH   9  11
ENDBRANCH   8   9
ENDBRANCH   6   7
BRANCH   1  13
ATOM     13  O   UNL     1       3.014   4.886  17.559  0.00  0.00    +0.000 OA
BRANCH  13  14
ATOM     14  C   UNL     1       4.246   4.387  17.017  0.00  0.00    +0.000 C 
BRANCH  14  20
ATOM     15  C   UNL     1       8.429   8.049  18.302  0.00  0.00    +0.000 C 
ATOM     16  C   UNL     1       7.369   7.056  17.939  0.00  0.00    +0.000 A 
ATOM     17  N   UNL     1       6.607   7.350  16.854  0.00  0.00    +0.000 NA
ATOM     18  C   UNL     1       5.613   6.482  16.534  0.00  0.00    +0.000 A 
ATOM     19  C   UNL     1       4.824   6.796  15.300  0.00  0.00    +0.000 C 
ATOM     20  C   UNL     1       5.370   5.348  17.308  0.00  0.00    +0.000 A 
ATOM     21  N   UNL     1       6.152   5.042  18.381  0.00  0.00    +0.000 NA
ATOM     22  C   UNL     1       7.158   5.897  18.684  0.00  0.00    +0.000 A 
ATOM     23  C   UNL     1       8.008   5.534  19.864  0.00  0.00    +0.000 C 
ENDBRANCH  14  20
ENDBRANCH  13  14
ENDBRANCH   1  13
TORSDOF 6
ENDMDL
MODEL 9
REMARK VINA RESULT:      -7.1      3.632      7.164
REMARK  Name = 
REMARK  9 active torsions:
REMARK  status: ('A' for Active; 'I' for Inactive)
REMARK    1  A    between atoms: C_1  and  C_2
REMARK    2  A    between atoms: C_4  and  C_5
REMARK    3  A    between atoms: C_6  and  C_7
REMARK    4  A    between atoms: C_7  and  O_8
REMARK    5  A    between atoms: O_8  and  C_9
REMARK    6  A    between atoms: C_14  and  C_15
REMARK    7  A    between atoms: C_16  and  C_17
REMARK    8  A    between atoms: C_17  and  O_19
REMARK    9  A    between atoms: C_21  and  C_22
REMARK                            x       y       z     vdW  Elec       q    Type
REMARK                         _______ _______ _______ _____ _____    ______ ____
ROOT
ATOM      1  C   UNL     1       2.321   4.669  20.046  0.00  0.00    +0.000 A 
ATOM      2  C   UNL     1       1.030   4.118  20.082  0.00  0.00    +0.000 A 
ATOM      3  C   UNL     1       0.798   2.803  19.678  0.00  0.00    +0.000 A 
ATOM      4  C   UNL     1       1.849   2.027  19.219  0.00  0.00    +0.000 A 
ATOM      5  C   UNL     1       3.132   2.574  19.142  0.00  0.00    +0.000 A 
ATOM      6  C   UNL     1       3.387   3.903  19.529  0.00  0.00    +0.000 A 
ENDROOT
BRANCH   6   7
ATOM      7  C   UNL     1       4.793   4.344  19.391  0.00  0.00    +0.000 C 
ATOM      8  C   UNL     1       5.481   4.441  18.243  0.00  0.00    +0.000 C 
BRANCH   8   9
ATOM      9  C   UNL     1       6.912   4.808  18.293  0.00  0.00    +0.000 C 
ATOM     10  O   UNL     1       7.706   4.641  17.383  0.00  0.00    +0.000 OA
BRANCH   9  11
ATOM     11  O   UNL     1       7.249   5.369  19.472  0.00  0.00    +0.000 OA
ATOM     12  H   UNL     1       7.413   4.741  20.200  0.00  0.00    +0.000 HD
ENDBRANCH   9  11
ENDBRANCH   8   9
ENDBRANCH   6   7
BRANCH   1  13
ATOM     13  O   UNL     1       2.568   5.959  20.455  0.00  0.00    +0.000 OA
BRANCH  13  14
ATOM     14  C   UNL     1       2.536   6.949  19.415  0.00  0.00    +0.000 C 
BRANCH  14  20
ATOM     15  C   UNL     1      -0.712  11.318  21.122  0.00  0.00    +0.000 C 
ATOM     16  C   UNL     1       0.184  10.196  20.698  0.00  0.00    +0.000 A 
ATOM     17  N   UNL     1       0.634  10.230  19.417  0.00  0.00    +0.000 NA
ATOM     18  C   UNL     1       1.414   9.198  19.002  0.00  0.00    +0.000 A 
ATOM     19  C   UNL     1       1.946   9.286  17.605  0.00  0.00    +0.000 C 
ATOM     20  C   UNL     1       1.717   8.136  19.852  0.00  0.00    +0.000 A 
ATOM     21  N   UNL     1       1.285   8.118  21.145  0.00  0.00    +0.000 NA
ATOM     22  C   UNL     1       0.527   9.159  21.564  0.00  0.00    +0.000 A 
ATOM     23  C   UNL     1       0.072   9.119  22.991  0.00  0.00    +0.000 C 
ENDBRANCH  14  20
ENDBRANCH  13  14
ENDBRANCH   1  13
TORSDOF 6
ENDMDL
