MODEL 1
REMARK VINA RESULT:      -8.0      0.000      0.000
REMARK  Name = 
REMARK  2 active torsions:
REMARK  status: ('A' for Active; 'I' for Inactive)
REMARK    1  A    between atoms: C_5  and  N_6
REMARK    2  A    between atoms: N_6  and  C_7
REMARK                            x       y       z     vdW  Elec       q    Type
REMARK                         _______ _______ _______ _____ _____    ______ ____
ROOT
ATOM      1  O   UNL     1      -0.437  10.957  18.197  0.00  0.00    +0.000 OA
ATOM      2  C   UNL     1      -0.030  10.345  19.179  0.00  0.00    +0.000 C 
ATOM      3  C   UNL     1       0.947   9.231  19.078  0.00  0.00    +0.000 C 
ATOM      4 CL   UNL     1       1.509   8.873  17.475  0.00  0.00    +0.000 Cl
ATOM      5  C   UNL     1       1.426   8.566  20.147  0.00  0.00    +0.000 C 
ATOM      6  C   UNL     1       0.960   8.968  21.517  0.00  0.00    +0.000 C 
ATOM      7  O   UNL     1       1.429   8.430  22.516  0.00  0.00    +0.000 OA
ATOM      8  C   UNL     1      -0.055  10.034  21.648  0.00  0.00    +0.000 A 
ATOM      9  C   UNL     1      -0.552  10.385  22.912  0.00  0.00    +0.000 A 
ATOM     10  C   UNL     1      -1.475  11.428  23.044  0.00  0.00    +0.000 A 
ATOM     11  C   UNL     1      -1.903  12.128  21.919  0.00  0.00    +0.000 A 
ATOM     12  C   UNL     1      -1.423  11.772  20.659  0.00  0.00    +0.000 A 
ATOM     13  C   UNL     1      -0.507  10.719  20.520  0.00  0.00    +0.000 A 
ENDROOT
BRANCH   5  14
ATOM     14  N   UNL     1       2.405   7.566  20.103  0.00  0.00    +0.000 N 
ATOM     15  H   UNL     1       2.955   7.558  20.966  0.00  0.00    +0.000 HD
BRANCH  14  16
ATOM     16  C   UNL     1       2.134   6.202  19.747  0.00  0.00    +0.000 A 
ATOM     17  C   UNL     1       1.397   5.426  20.719  0.00  0.00    +0.000 A 
ATOM     18  C   UNL     1       1.084   4.054  20.592  0.00  0.00    +0.000 A 
ATOM     19  C   UNL     1       1.584   3.547  19.402  0.00  0.00    +0.000 A 
ATOM     20  C   UNL     1       1.482   2.250  18.984  0.00  0.00    +0.000 A 
ATOM     21  N   UNL     1       2.121   2.226  17.778  0.00  0.00    +0.000 N 
ATOM     22  N   UNL     1       2.625   3.415  17.390  0.00  0.00    +0.000 NA
ATOM     23  C   UNL     1       2.320   4.260  18.392  0.00  0.00    +0.000 A 
ATOM     24  C   UNL     1       2.620   5.626  18.546  0.00  0.00    +0.000 A 
ATOM     25  H   UNL     1       2.255   1.431  17.162  0.00  0.00    +0.000 HD
ENDBRANCH  14  16
ENDBRANCH   5  14
TORSDOF 2
ENDMDL
MODEL 2
REMARK VINA RESULT:      -7.8      0.899      1.431
REMARK  Name = 
REMARK  2 active torsions:
REMARK  status: ('A' for Active; 'I' for Inactive)
REMARK    1  A    between atoms: C_5  and  N_6
REMARK    2  A    between atoms: N_6  and  C_7
REMARK                            x       y       z     vdW  Elec       q    Type
REMARK                         _______ _______ _______ _____ _____    ______ ____
ROOT
ATOM      1  O   UNL     1      -0.588  11.103  18.178  0.00  0.00    +0.000 OA
ATOM      2  C   UNL     1      -0.177  10.546  19.191  0.00  0.00    +0.000 C 
ATOM      3  C   UNL     1       0.856   9.479  19.153  0.00  0.00    +0.000 C 
ATOM      4 CL   UNL     1       1.475   9.094  17.578  0.00  0.00    +0.000 Cl
ATOM      5  C   UNL     1       1.340   8.876  20.256  0.00  0.00    +0.000 C 
ATOM      6  C   UNL     1       0.820   9.302  21.600  0.00  0.00    +0.000 C 
ATOM      7  O   UNL     1       1.289   8.823  22.628  0.00  0.00    +0.000 OA
ATOM      8  C   UNL     1      -0.250  10.320  21.668  0.00  0.00    +0.000 A 
ATOM      9  C   UNL     1      -0.794  10.689  22.907  0.00  0.00    +0.000 A 
ATOM     10  C   UNL     1      -1.771  11.689  22.980  0.00  0.00    +0.000 A 
ATOM     11  C   UNL     1      -2.204  12.328  21.820  0.00  0.00    +0.000 A 
ATOM     12  C   UNL     1      -1.675  11.952  20.586  0.00  0.00    +0.000 A 
ATOM     13  C   UNL     1      -0.706  10.942  20.506  0.00  0.00    +0.000 A 
ENDROOT
BRANCH   5  14
ATOM     14  N   UNL     1       2.367   7.925  20.271  0.00  0.00    +0.000 N 
ATOM     15  H   UNL     1       2.826   7.902  21.185  0.00  0.00    +0.000 HD
BRANCH  14  16
ATOM     16  C   UNL     1       2.202   6.568  19.831  0.00  0.00    +0.000 A 
ATOM     17  C   UNL     1       2.702   6.265  18.509  0.00  0.00    +0.000 A 
ATOM     18  C   UNL     1       2.581   5.012  17.865  0.00  0.00    +0.000 A 
ATOM     19  C   UNL     1       1.914   4.108  18.677  0.00  0.00    +0.000 A 
ATOM     20  C   UNL     1       1.606   2.818  18.346  0.00  0.00    +0.000 A 
ATOM     21  N   UNL     1       0.951   2.330  19.441  0.00  0.00    +0.000 N 
ATOM     22  N   UNL     1       0.817   3.213  20.450  0.00  0.00    +0.000 NA
ATOM     23  C   UNL     1       1.395   4.341  19.999  0.00  0.00    +0.000 A 
ATOM     24  C   UNL     1       1.527   5.599  20.614  0.00  0.00    +0.000 A 
ATOM     25  H   UNL     1       0.564   1.401  19.569  0.00  0.00    +0.000 HD
ENDBRANCH  14  16
ENDBRANCH   5  14
TORSDOF 2
ENDMDL
MODEL 3
REMARK VINA RESULT:      -7.5      4.584      6.993
REMARK  Name = 
REMARK  2 active torsions:
REMARK  status: ('A' for Active; 'I' for Inactive)
REMARK    1  A    between atoms: C_5  and  N_6
REMARK    2  A    between atoms: N_6  and  C_7
REMARK                            x       y       z     vdW  Elec       q    Type
REMARK                         _______ _______ _______ _____ _____    ______ ____
ROOT
ATOM      1  O   UNL     1       1.821   6.799  19.108  0.00  0.00    +0.000 OA
ATOM      2  C   UNL     1       2.674   5.917  19.099  0.00  0.00    +0.000 C 
ATOM      3  C   UNL     1       3.925   6.024  18.306  0.00  0.00    +0.000 C 
ATOM      4 CL   UNL     1       4.122   7.500  17.415  0.00  0.00    +0.000 Cl
ATOM      5  C   UNL     1       4.886   5.079  18.307  0.00  0.00    +0.000 C 
ATOM      6  C   UNL     1       4.695   3.854  19.156  0.00  0.00    +0.000 C 
ATOM      7  O   UNL     1       5.581   3.008  19.234  0.00  0.00    +0.000 OA
ATOM      8  C   UNL     1       3.436   3.692  19.912  0.00  0.00    +0.000 A 
ATOM      9  C   UNL     1       3.208   2.529  20.663  0.00  0.00    +0.000 A 
ATOM     10  C   UNL     1       2.039   2.395  21.421  0.00  0.00    +0.000 A 
ATOM     11  C   UNL     1       1.096   3.419  21.437  0.00  0.00    +0.000 A 
ATOM     12  C   UNL     1       1.313   4.570  20.680  0.00  0.00    +0.000 A 
ATOM     13  C   UNL     1       2.476   4.704  19.909  0.00  0.00    +0.000 A 
ENDROOT
BRANCH   5  14
ATOM     14  N   UNL     1       6.112   5.174  17.638  0.00  0.00    +0.000 N 
ATOM     15  H   UNL     1       6.834   4.637  18.125  0.00  0.00    +0.000 HD
BRANCH  14  16
ATOM     16  C   UNL     1       6.271   4.941  16.230  0.00  0.00    +0.000 A 
ATOM     17  C   UNL     1       5.397   3.948  15.648  0.00  0.00    +0.000 A 
ATOM     18  C   UNL     1       5.435   3.524  14.301  0.00  0.00    +0.000 A 
ATOM     19  C   UNL     1       6.431   4.194  13.606  0.00  0.00    +0.000 A 
ATOM     20  C   UNL     1       6.753   4.000  12.292  0.00  0.00    +0.000 A 
ATOM     21  N   UNL     1       7.784   4.865  12.061  0.00  0.00    +0.000 N 
ATOM     22  N   UNL     1       8.148   5.599  13.131  0.00  0.00    +0.000 NA
ATOM     23  C   UNL     1       7.331   5.193  14.120  0.00  0.00    +0.000 A 
ATOM     24  C   UNL     1       7.272   5.593  15.467  0.00  0.00    +0.000 A 
ATOM     25  H   UNL     1       8.294   5.005  11.195  0.00  0.00    +0.000 HD
ENDBRANCH  14  16
ENDBRANCH   5  14
TORSDOF 2
ENDMDL
MODEL 4
REMARK VINA RESULT:      -7.4      1.196      1.483
REMARK  Name = 
REMARK  2 active torsions:
REMARK  status: ('A' for Active; 'I' for Inactive)
REMARK    1  A    between atoms: C_5  and  N_6
REMARK    2  A    between atoms: N_6  and  C_7
REMARK                            x       y       z     vdW  Elec       q    Type
REMARK                         _______ _______ _______ _____ _____    ______ ____
ROOT
ATOM      1  O   UNL     1       1.811  10.236  17.222  0.00  0.00    +0.000 OA
ATOM      2  C   UNL     1       1.555   9.747  18.317  0.00  0.00    +0.000 C 
ATOM      3  C   UNL     1       2.164   8.477  18.788  0.00  0.00    +0.000 C 
ATOM      4 CL   UNL     1       3.298   7.743  17.698  0.00  0.00    +0.000 Cl
ATOM      5  C   UNL     1       1.917   7.940  19.999  0.00  0.00    +0.000 C 
ATOM      6  C   UNL     1       0.983   8.659  20.931  0.00  0.00    +0.000 C 
ATOM      7  O   UNL     1       0.790   8.234  22.066  0.00  0.00    +0.000 OA
ATOM      8  C   UNL     1       0.316   9.894  20.470  0.00  0.00    +0.000 A 
ATOM      9  C   UNL     1      -0.607  10.550  21.299  0.00  0.00    +0.000 A 
ATOM     10  C   UNL     1      -1.202  11.747  20.887  0.00  0.00    +0.000 A 
ATOM     11  C   UNL     1      -0.876  12.299  19.650  0.00  0.00    +0.000 A 
ATOM     12  C   UNL     1       0.029  11.642  18.818  0.00  0.00    +0.000 A 
ATOM     13  C   UNL     1       0.618  10.435  19.221  0.00  0.00    +0.000 A 
ENDROOT
BRANCH   5  14
ATOM     14  N   UNL     1       2.529   6.791  20.512  0.00  0.00    +0.000 N 
ATOM     15  H   UNL     1       2.419   6.744  21.528  0.00  0.00    +0.000 HD
BRANCH  14  16
ATOM     16  C   UNL     1       2.309   5.471  19.989  0.00  0.00    +0.000 A 
ATOM     17  C   UNL     1       1.145   4.776  20.489  0.00  0.00    +0.000 A 
ATOM     18  C   UNL     1       0.787   3.451  20.153  0.00  0.00    +0.000 A 
ATOM     19  C   UNL     1       1.709   2.903  19.274  0.00  0.00    +0.000 A 
ATOM     20  C   UNL     1       1.674   1.632  18.775  0.00  0.00    +0.000 A 
ATOM     21  N   UNL     1       2.776   1.548  17.972  0.00  0.00    +0.000 N 
ATOM     22  N   UNL     1       3.515   2.674  17.920  0.00  0.00    +0.000 NA
ATOM     23  C   UNL     1       2.883   3.538  18.736  0.00  0.00    +0.000 A 
ATOM     24  C   UNL     1       3.217   4.857  19.091  0.00  0.00    +0.000 A 
ATOM     25  H   UNL     1       3.089   0.750  17.430  0.00  0.00    +0.000 HD
ENDBRANCH  14  16
ENDBRANCH   5  14
TORSDOF 2
ENDMDL
MODEL 5
REMARK VINA RESULT:      -7.3      3.405      7.399
REMARK  Name = 
REMARK  2 active torsions:
REMARK  status: ('A' for Active; 'I' for Inactive)
REMARK    1  A    between atoms: C_5  and  N_6
REMARK    2  A    between atoms: N_6  and  C_7
REMARK                            x       y       z     vdW  Elec       q    Type
REMARK                         _______ _______ _______ _____ _____    ______ ____
ROOT
ATOM      1  O   UNL     1       1.650   6.053  21.174  0.00  0.00    +0.000 OA
ATOM      2  C   UNL     1       1.797   6.885  20.284  0.00  0.00    +0.000 C 
ATOM      3  C   UNL     1       1.080   8.185  20.280  0.00  0.00    +0.000 C 
ATOM      4 CL   UNL     1       0.043   8.472  21.642  0.00  0.00    +0.000 Cl
ATOM      5  C   UNL     1       1.249   9.122  19.326  0.00  0.00    +0.000 C 
ATOM      6  C   UNL     1       2.216   8.850  18.209  0.00  0.00    +0.000 C 
ATOM      7  O   UNL     1       2.446   9.709  17.364  0.00  0.00    +0.000 OA
ATOM      8  C   UNL     1       2.902   7.542  18.154  0.00  0.00    +0.000 A 
ATOM      9  C   UNL     1       3.763   7.241  17.088  0.00  0.00    +0.000 A 
ATOM     10  C   UNL     1       4.453   6.024  17.058  0.00  0.00    +0.000 A 
ATOM     11  C   UNL     1       4.292   5.106  18.093  0.00  0.00    +0.000 A 
ATOM     12  C   UNL     1       3.427   5.396  19.147  0.00  0.00    +0.000 A 
ATOM     13  C   UNL     1       2.723   6.608  19.174  0.00  0.00    +0.000 A 
ENDROOT
BRANCH   5  14
ATOM     14  N   UNL     1       0.655  10.390  19.326  0.00  0.00    +0.000 N 
ATOM     15  H   UNL     1       1.264  11.076  18.872  0.00  0.00    +0.000 HD
BRANCH  14  16
ATOM     16  C   UNL     1      -0.688  10.639  18.885  0.00  0.00    +0.000 A 
ATOM     17  C   UNL     1      -1.084   9.989  17.655  0.00  0.00    +0.000 A 
ATOM     18  C   UNL     1      -2.334  10.154  17.018  0.00  0.00    +0.000 A 
ATOM     19  C   UNL     1      -3.136  11.029  17.734  0.00  0.00    +0.000 A 
ATOM     20  C   UNL     1      -4.394  11.428  17.379  0.00  0.00    +0.000 A 
ATOM     21  N   UNL     1      -4.776  12.285  18.371  0.00  0.00    +0.000 N 
ATOM     22  N   UNL     1      -3.854  12.465  19.338  0.00  0.00    +0.000 NA
ATOM     23  C   UNL     1      -2.809  11.706  18.962  0.00  0.00    +0.000 A 
ATOM     24  C   UNL     1      -1.555  11.525  19.573  0.00  0.00    +0.000 A 
ATOM     25  H   UNL     1      -5.653  12.788  18.453  0.00  0.00    +0.000 HD
ENDBRANCH  14  16
ENDBRANCH   5  14
TORSDOF 2
ENDMDL
MODEL 6
REMARK VINA RESULT:      -7.3      3.605      7.879
REMARK  Name = 
REMARK  2 active torsions:
REMARK  status: ('A' for Active; 'I' for Inactive)
REMARK    1  A    between atoms: C_5  and  N_6
REMARK    2  A    between atoms: N_6  and  C_7
REMARK                            x       y       z     vdW  Elec       q    Type
REMARK                         _______ _______ _______ _____ _____    ______ ____
ROOT
ATOM      1  O   UNL     1       2.709   2.798  16.668  0.00  0.00    +0.000 OA
ATOM      2  C   UNL     1       3.304   3.805  17.039  0.00  0.00    +0.000 C 
ATOM      3  C   UNL     1       2.814   4.659  18.151  0.00  0.00    +0.000 C 
ATOM      4 CL   UNL     1       1.356   4.117  18.923  0.00  0.00    +0.000 Cl
ATOM      5  C   UNL     1       3.468   5.751  18.591  0.00  0.00    +0.000 C 
ATOM      6  C   UNL     1       4.765   6.131  17.933  0.00  0.00    +0.000 C 
ATOM      7  O   UNL     1       5.421   7.079  18.354  0.00  0.00    +0.000 OA
ATOM      8  C   UNL     1       5.250   5.335  16.786  0.00  0.00    +0.000 A 
ATOM      9  C   UNL     1       6.426   5.706  16.117  0.00  0.00    +0.000 A 
ATOM     10  C   UNL     1       6.915   4.926  15.064  0.00  0.00    +0.000 A 
ATOM     11  C   UNL     1       6.238   3.772  14.676  0.00  0.00    +0.000 A 
ATOM     12  C   UNL     1       5.061   3.409  15.330  0.00  0.00    +0.000 A 
ATOM     13  C   UNL     1       4.560   4.194  16.377  0.00  0.00    +0.000 A 
ENDROOT
BRANCH   5  14
ATOM     14  N   UNL     1       3.084   6.537  19.684  0.00  0.00    +0.000 N 
ATOM     15  H   UNL     1       3.903   6.853  20.209  0.00  0.00    +0.000 HD
BRANCH  14  16
ATOM     16  C   UNL     1       2.173   7.642  19.589  0.00  0.00    +0.000 A 
ATOM     17  C   UNL     1       2.072   8.273  18.292  0.00  0.00    +0.000 A 
ATOM     18  C   UNL     1       1.287   9.411  18.003  0.00  0.00    +0.000 A 
ATOM     19  C   UNL     1       0.621   9.846  19.139  0.00  0.00    +0.000 A 
ATOM     20  C   UNL     1      -0.199  10.938  19.212  0.00  0.00    +0.000 A 
ATOM     21  N   UNL     1      -0.610  10.971  20.513  0.00  0.00    +0.000 N 
ATOM     22  N   UNL     1      -0.115   9.980  21.281  0.00  0.00    +0.000 NA
ATOM     23  C   UNL     1       0.672   9.266  20.455  0.00  0.00    +0.000 A 
ATOM     24  C   UNL     1       1.466   8.134  20.715  0.00  0.00    +0.000 A 
ATOM     25  H   UNL     1      -1.229  11.645  20.951  0.00  0.00    +0.000 HD
ENDBRANCH  14  16
ENDBRANCH   5  14
TORSDOF 2
ENDMDL
MODEL 7
REMARK VINA RESULT:      -7.2      2.739      4.047
REMARK  Name = 
REMARK  2 active torsions:
REMARK  status: ('A' for Active; 'I' for Inactive)
REMARK    1  A    between atoms: C_5  and  N_6
REMARK    2  A    between atoms: N_6  and  C_7
REMARK                            x       y       z     vdW  Elec       q    Type
REMARK                         _______ _______ _______ _____ _____    ______ ____
ROOT
ATOM      1  O   UNL     1       0.668   8.680  22.342  0.00  0.00    +0.000 OA
ATOM      2  C   UNL     1       1.004   8.889  21.181  0.00  0.00    +0.000 C 
ATOM      3  C   UNL     1       1.501   7.813  20.286  0.00  0.00    +0.000 C 
ATOM      4 CL   UNL     1       1.542   6.223  20.981  0.00  0.00    +0.000 Cl
ATOM      5  C   UNL     1       1.846   8.018  19.000  0.00  0.00    +0.000 C 
ATOM      6  C   UNL     1       1.719   9.403  18.430  0.00  0.00    +0.000 C 
ATOM      7  O   UNL     1       1.959   9.611  17.244  0.00  0.00    +0.000 OA
ATOM      8  C   UNL     1       1.282  10.506  19.311  0.00  0.00    +0.000 A 
ATOM      9  C   UNL     1       1.215  11.818  18.818  0.00  0.00    +0.000 A 
ATOM     10  C   UNL     1       0.753  12.857  19.633  0.00  0.00    +0.000 A 
ATOM     11  C   UNL     1       0.352  12.592  20.941  0.00  0.00    +0.000 A 
ATOM     12  C   UNL     1       0.432  11.292  21.438  0.00  0.00    +0.000 A 
ATOM     13  C   UNL     1       0.906  10.250  20.628  0.00  0.00    +0.000 A 
ENDROOT
BRANCH   5  14
ATOM     14  N   UNL     1       2.243   7.021  18.101  0.00  0.00    +0.000 N 
ATOM     15  H   UNL     1       1.888   7.217  17.162  0.00  0.00    +0.000 HD
BRANCH  14  16
ATOM     16  C   UNL     1       3.597   6.561  17.970  0.00  0.00    +0.000 A 
ATOM     17  C   UNL     1       4.330   7.064  16.829  0.00  0.00    +0.000 A 
ATOM     18  C   UNL     1       5.647   6.686  16.483  0.00  0.00    +0.000 A 
ATOM     19  C   UNL     1       6.145   5.763  17.389  0.00  0.00    +0.000 A 
ATOM     20  C   UNL     1       7.377   5.174  17.329  0.00  0.00    +0.000 A 
ATOM     21  N   UNL     1       7.414   4.345  18.413  0.00  0.00    +0.000 N 
ATOM     22  N   UNL     1       6.295   4.360  19.166  0.00  0.00    +0.000 NA
ATOM     23  C   UNL     1       5.475   5.225  18.543  0.00  0.00    +0.000 A 
ATOM     24  C   UNL     1       4.162   5.617  18.863  0.00  0.00    +0.000 A 
ATOM     25  H   UNL     1       8.171   3.734  18.702  0.00  0.00    +0.000 HD
ENDBRANCH  14  16
ENDBRANCH   5  14
TORSDOF 2
ENDMDL
MODEL 8
REMARK VINA RESULT:      -7.1      3.353      7.137
REMARK  Name = 
REMARK  2 active torsions:
REMARK  status: ('A' for Active; 'I' for Inactive)
REMARK    1  A    between atoms: C_5  and  N_6
REMARK    2  A    between atoms: N_6  and  C_7
REMARK                            x       y       z     vdW  Elec       q    Type
REMARK                         _______ _______ _______ _____ _____    ______ ____
ROOT
ATOM      1  O   UNL     1       1.626   6.010  21.141  0.00  0.00    +0.000 OA
ATOM      2  C   UNL     1       1.788   6.860  20.272  0.00  0.00    +0.000 C 
ATOM      3  C   UNL     1       1.095   8.173  20.301  0.00  0.00    +0.000 C 
ATOM      4 CL   UNL     1       0.062   8.444  21.669  0.00  0.00    +0.000 Cl
ATOM      5  C   UNL     1       1.282   9.131  19.371  0.00  0.00    +0.000 C 
ATOM      6  C   UNL     1       2.245   8.869  18.248  0.00  0.00    +0.000 C 
ATOM      7  O   UNL     1       2.491   9.745  17.424  0.00  0.00    +0.000 OA
ATOM      8  C   UNL     1       2.907   7.551  18.160  0.00  0.00    +0.000 A 
ATOM      9  C   UNL     1       3.763   7.261  17.087  0.00  0.00    +0.000 A 
ATOM     10  C   UNL     1       4.431   6.033  17.027  0.00  0.00    +0.000 A 
ATOM     11  C   UNL     1       4.254   5.092  18.038  0.00  0.00    +0.000 A 
ATOM     12  C   UNL     1       3.392   5.371  19.098  0.00  0.00    +0.000 A 
ATOM     13  C   UNL     1       2.710   6.595  19.156  0.00  0.00    +0.000 A 
ENDROOT
BRANCH   5  14
ATOM     14  N   UNL     1       0.711  10.409  19.402  0.00  0.00    +0.000 N 
ATOM     15  H   UNL     1       1.378  11.112  19.075  0.00  0.00    +0.000 HD
BRANCH  14  16
ATOM     16  C   UNL     1      -0.569  10.722  18.833  0.00  0.00    +0.000 A 
ATOM     17  C   UNL     1      -1.383  11.658  19.576  0.00  0.00    +0.000 A 
ATOM     18  C   UNL     1      -2.695  12.048  19.224  0.00  0.00    +0.000 A 
ATOM     19  C   UNL     1      -3.100  11.409  18.062  0.00  0.00    +0.000 A 
ATOM     20  C   UNL     1      -4.322  11.541  17.466  0.00  0.00    +0.000 A 
ATOM     21  N   UNL     1      -4.260  10.726  16.372  0.00  0.00    +0.000 N 
ATOM     22  N   UNL     1      -3.086  10.080  16.223  0.00  0.00    +0.000 NA
ATOM     23  C   UNL     1      -2.343  10.473  17.273  0.00  0.00    +0.000 A 
ATOM     24  C   UNL     1      -1.040  10.100  17.649  0.00  0.00    +0.000 A 
ATOM     25  H   UNL     1      -4.985  10.557  15.682  0.00  0.00    +0.000 HD
ENDBRANCH  14  16
ENDBRANCH   5  14
TORSDOF 2
ENDMDL
MODEL 9
REMARK VINA RESULT:      -7.1      1.360      1.877
REMARK  Name = 
REMARK  2 active torsions:
REMARK  status: ('A' for Active; 'I' for Inactive)
REMARK    1  A    between atoms: C_5  and  N_6
REMARK    2  A    between atoms: N_6  and  C_7
REMARK                            x       y       z     vdW  Elec       q    Type
REMARK                         _______ _______ _______ _____ _____    ______ ____
ROOT
ATOM      1  O   UNL     1       1.745   9.995  17.316  0.00  0.00    +0.000 OA
ATOM      2  C   UNL     1       1.441   9.625  18.446  0.00  0.00    +0.000 C 
ATOM      3  C   UNL     1       1.964   8.370  19.043  0.00  0.00    +0.000 C 
ATOM      4 CL   UNL     1       3.067   7.472  18.049  0.00  0.00    +0.000 Cl
ATOM      5  C   UNL     1       1.664   7.962  20.292  0.00  0.00    +0.000 C 
ATOM      6  C   UNL     1       0.762   8.818  21.134  0.00  0.00    +0.000 C 
ATOM      7  O   UNL     1       0.525   8.512  22.299  0.00  0.00    +0.000 OA
ATOM      8  C   UNL     1       0.180  10.044  20.549  0.00  0.00    +0.000 A 
ATOM      9  C   UNL     1      -0.714  10.827  21.295  0.00  0.00    +0.000 A 
ATOM     10  C   UNL     1      -1.227  12.015  20.763  0.00  0.00    +0.000 A 
ATOM     11  C   UNL     1      -0.849  12.430  19.489  0.00  0.00    +0.000 A 
ATOM     12  C   UNL     1       0.028  11.647  18.739  0.00  0.00    +0.000 A 
ATOM     13  C   UNL     1       0.535  10.449  19.263  0.00  0.00    +0.000 A 
ENDROOT
BRANCH   5  14
ATOM     14  N   UNL     1       2.196   6.830  20.920  0.00  0.00    +0.000 N 
ATOM     15  H   UNL     1       1.819   6.729  21.866  0.00  0.00    +0.000 HD
BRANCH  14  16
ATOM     16  C   UNL     1       2.223   5.526  20.320  0.00  0.00    +0.000 A 
ATOM     17  C   UNL     1       3.517   5.056  19.879  0.00  0.00    +0.000 A 
ATOM     18  C   UNL     1       3.750   3.834  19.208  0.00  0.00    +0.000 A 
ATOM     19  C   UNL     1       2.563   3.142  19.029  0.00  0.00    +0.000 A 
ATOM     20  C   UNL     1       2.431   1.940  18.392  0.00  0.00    +0.000 A 
ATOM     21  N   UNL     1       1.096   1.662  18.454  0.00  0.00    +0.000 N 
ATOM     22  N   UNL     1       0.360   2.599  19.086  0.00  0.00    +0.000 NA
ATOM     23  C   UNL     1       1.246   3.547  19.444  0.00  0.00    +0.000 A 
ATOM     24  C   UNL     1       1.043   4.770  20.108  0.00  0.00    +0.000 A 
ATOM     25  H   UNL     1       0.612   0.851  18.083  0.00  0.00    +0.000 HD
ENDBRANCH  14  16
ENDBRANCH   5  14
TORSDOF 2
ENDMDL
