MODEL 1
REMARK VINA RESULT:      -7.4      0.000      0.000
REMARK  Name = 
REMARK  9 active torsions:
REMARK  status: ('A' for Active; 'I' for Inactive)
REMARK    1  A    between atoms: C_1  and  C_2
REMARK    2  A    between atoms: C_2  and  O_3
REMARK    3  A    between atoms: C_2  and  C_4
REMARK    4  A    between atoms: C_2  and  C_13
REMARK    5  A    between atoms: C_4  and  S_5
REMARK    6  A    between atoms: S_5  and  C_6
REMARK    7  A    between atoms: N_15  and  C_16
REMARK    8  A    between atoms: C_19  and  C_20
REMARK    9  A    between atoms: C_22  and  C_23
REMARK                            x       y       z     vdW  Elec       q    Type
REMARK                         _______ _______ _______ _____ _____    ______ ____
ROOT
ATOM      1  C   UNL     1       2.140   4.315  19.319  0.00  0.00    +0.000 C 
ATOM      2  O   UNL     1       1.310   4.298  18.405  0.00  0.00    +0.000 OA
ATOM      3  N   UNL     1       2.663   5.465  19.895  0.00  0.00    +0.000 N 
ATOM      4  H   UNL     1       3.489   5.329  20.470  0.00  0.00    +0.000 HD
ENDROOT
BRANCH   3   5
ATOM      5  C   UNL     1       2.249   6.780  19.596  0.00  0.00    +0.000 A 
ATOM      6  C   UNL     1       2.547   7.387  18.374  0.00  0.00    +0.000 A 
ATOM      7  C   UNL     1       2.188   8.707  18.124  0.00  0.00    +0.000 A 
ATOM      8  C   UNL     1       1.508   9.459  19.085  0.00  0.00    +0.000 A 
ATOM      9  C   UNL     1       1.158   8.862  20.310  0.00  0.00    +0.000 A 
ATOM     10  C   UNL     1       1.522   7.510  20.547  0.00  0.00    +0.000 A 
BRANCH   9  11
ATOM     11  C   UNL     1       0.418   9.606  21.400  0.00  0.00    +0.000 C 
ATOM     12  F   UNL     1      -0.807  10.073  21.052  0.00  0.00    +0.000 F 
ATOM     13  F   UNL     1       0.218   8.829  22.500  0.00  0.00    +0.000 F 
ATOM     14  F   UNL     1       1.113  10.693  21.836  0.00  0.00    +0.000 F 
ENDBRANCH   9  11
BRANCH   8  15
ATOM     15  C   UNL     1       1.215  10.824  18.755  0.00  0.00    +0.000 C 
ATOM     16  N   UNL     1       0.940  11.925  18.521  0.00  0.00    +0.000 NA
ENDBRANCH   8  15
ENDBRANCH   3   5
BRANCH   1  18
ATOM     17  C   UNL     1       1.936   1.840  19.234  0.00  0.00    +0.000 C 
ATOM     18  C   UNL     1       2.763   2.992  19.827  0.00  0.00    +0.000 C 
BRANCH  18  19
ATOM     19  O   UNL     1       2.699   2.883  21.252  0.00  0.00    +0.000 OA
ATOM     20  H   UNL     1       1.801   2.592  21.490  0.00  0.00    +0.000 HD
ENDBRANCH  18  19
BRANCH  18  21
ATOM     21  C   UNL     1       4.229   2.883  19.342  0.00  0.00    +0.000 C 
BRANCH  21  22
ATOM     22  S   UNL     1       4.405   3.275  17.555  0.00  0.00    +0.000 S 
BRANCH  22  23
ATOM     23  C   UNL     1       5.352   4.785  17.516  0.00  0.00    +0.000 A 
ATOM     24  C   UNL     1       5.145   5.852  16.637  0.00  0.00    +0.000 A 
ATOM     25  C   UNL     1       5.984   6.973  16.672  0.00  0.00    +0.000 A 
ATOM     26  C   UNL     1       7.030   7.034  17.590  0.00  0.00    +0.000 A 
ATOM     27 CL   UNL     1       8.072   8.401  17.615  0.00  0.00    +0.000 Cl
ATOM     28  C   UNL     1       7.237   5.990  18.483  0.00  0.00    +0.000 A 
ATOM     29  C   UNL     1       6.399   4.873  18.445  0.00  0.00    +0.000 A 
ENDBRANCH  22  23
ENDBRANCH  21  22
ENDBRANCH  18  21
ENDBRANCH   1  18
TORSDOF 8
ENDMDL
MODEL 2
REMARK VINA RESULT:      -7.2      1.736      2.412
REMARK  Name = 
REMARK  9 active torsions:
REMARK  status: ('A' for Active; 'I' for Inactive)
REMARK    1  A    between atoms: C_1  and  C_2
REMARK    2  A    between atoms: C_2  and  O_3
REMARK    3  A    between atoms: C_2  and  C_4
REMARK    4  A    between atoms: C_2  and  C_13
REMARK    5  A    between atoms: C_4  and  S_5
REMARK    6  A    between atoms: S_5  and  C_6
REMARK    7  A    between atoms: N_15  and  C_16
REMARK    8  A    between atoms: C_19  and  C_20
REMARK    9  A    between atoms: C_22  and  C_23
REMARK                            x       y       z     vdW  Elec       q    Type
REMARK                         _______ _______ _______ _____ _____    ______ ____
ROOT
ATOM      1  C   UNL     1       1.852   4.420  20.218  0.00  0.00    +0.000 C 
ATOM      2  O   UNL     1       0.944   4.414  19.381  0.00  0.00    +0.000 OA
ATOM      3  N   UNL     1       2.367   5.558  20.823  0.00  0.00    +0.000 N 
ATOM      4  H   UNL     1       3.249   5.432  21.312  0.00  0.00    +0.000 HD
ENDROOT
BRANCH   3   5
ATOM      5  C   UNL     1       1.863   6.864  20.650  0.00  0.00    +0.000 A 
ATOM      6  C   UNL     1       1.124   7.507  21.647  0.00  0.00    +0.000 A 
ATOM      7  C   UNL     1       0.580   8.769  21.432  0.00  0.00    +0.000 A 
ATOM      8  C   UNL     1       0.768   9.433  20.217  0.00  0.00    +0.000 A 
ATOM      9  C   UNL     1       1.541   8.829  19.210  0.00  0.00    +0.000 A 
ATOM     10  C   UNL     1       2.100   7.544  19.447  0.00  0.00    +0.000 A 
BRANCH   9  11
ATOM     11  C   UNL     1       1.795   9.483  17.870  0.00  0.00    +0.000 C 
ATOM     12  F   UNL     1       2.527   8.746  16.997  0.00  0.00    +0.000 F 
ATOM     13  F   UNL     1       0.636   9.780  17.221  0.00  0.00    +0.000 F 
ATOM     14  F   UNL     1       2.461  10.664  17.999  0.00  0.00    +0.000 F 
ENDBRANCH   9  11
BRANCH   8  15
ATOM     15  C   UNL     1       0.135  10.713  20.071  0.00  0.00    +0.000 C 
ATOM     16  N   UNL     1      -0.377  11.738  19.904  0.00  0.00    +0.000 NA
ENDBRANCH   8  15
ENDBRANCH   3   5
BRANCH   1  18
ATOM     17  C   UNL     1       1.820   1.955  19.899  0.00  0.00    +0.000 C 
ATOM     18  C   UNL     1       2.584   3.104  20.579  0.00  0.00    +0.000 C 
BRANCH  18  19
ATOM     19  O   UNL     1       2.575   2.856  21.987  0.00  0.00    +0.000 OA
ATOM     20  H   UNL     1       1.710   3.134  22.336  0.00  0.00    +0.000 HD
ENDBRANCH  18  19
BRANCH  18  21
ATOM     21  C   UNL     1       4.036   3.149  20.046  0.00  0.00    +0.000 C 
BRANCH  21  22
ATOM     22  S   UNL     1       4.107   3.446  18.233  0.00  0.00    +0.000 S 
BRANCH  22  23
ATOM     23  C   UNL     1       5.287   4.768  18.040  0.00  0.00    +0.000 A 
ATOM     24  C   UNL     1       6.597   4.767  18.529  0.00  0.00    +0.000 A 
ATOM     25  C   UNL     1       7.421   5.886  18.352  0.00  0.00    +0.000 A 
ATOM     26  C   UNL     1       6.942   7.007  17.681  0.00  0.00    +0.000 A 
ATOM     27 CL   UNL     1       7.948   8.387  17.486  0.00  0.00    +0.000 Cl
ATOM     28  C   UNL     1       5.649   7.017  17.171  0.00  0.00    +0.000 A 
ATOM     29  C   UNL     1       4.829   5.900  17.350  0.00  0.00    +0.000 A 
ENDBRANCH  22  23
ENDBRANCH  21  22
ENDBRANCH  18  21
ENDBRANCH   1  18
TORSDOF 8
ENDMDL
MODEL 3
REMARK VINA RESULT:      -7.1      5.347      7.435
REMARK  Name = 
REMARK  9 active torsions:
REMARK  status: ('A' for Active; 'I' for Inactive)
REMARK    1  A    between atoms: C_1  and  C_2
REMARK    2  A    between atoms: C_2  and  O_3
REMARK    3  A    between atoms: C_2  and  C_4
REMARK    4  A    between atoms: C_2  and  C_13
REMARK    5  A    between atoms: C_4  and  S_5
REMARK    6  A    between atoms: S_5  and  C_6
REMARK    7  A    between atoms: N_15  and  C_16
REMARK    8  A    between atoms: C_19  and  C_20
REMARK    9  A    between atoms: C_22  and  C_23
REMARK                            x       y       z     vdW  Elec       q    Type
REMARK                         _______ _______ _______ _____ _____    ______ ____
ROOT
ATOM      1  C   UNL     1       3.374   3.465  17.596  0.00  0.00    +0.000 C 
ATOM      2  O   UNL     1       2.700   4.145  16.815  0.00  0.00    +0.000 OA
ATOM      3  N   UNL     1       4.724   3.181  17.440  0.00  0.00    +0.000 N 
ATOM      4  H   UNL     1       5.084   2.436  18.029  0.00  0.00    +0.000 HD
ENDROOT
BRANCH   3   5
ATOM      5  C   UNL     1       5.550   3.711  16.428  0.00  0.00    +0.000 A 
ATOM      6  C   UNL     1       6.573   4.619  16.711  0.00  0.00    +0.000 A 
ATOM      7  C   UNL     1       7.334   5.181  15.691  0.00  0.00    +0.000 A 
ATOM      8  C   UNL     1       7.103   4.843  14.355  0.00  0.00    +0.000 A 
ATOM      9  C   UNL     1       6.107   3.901  14.042  0.00  0.00    +0.000 A 
ATOM     10  C   UNL     1       5.345   3.327  15.095  0.00  0.00    +0.000 A 
BRANCH   9  11
ATOM     11  C   UNL     1       5.798   3.478  12.623  0.00  0.00    +0.000 C 
ATOM     12  F   UNL     1       6.028   2.170  12.347  0.00  0.00    +0.000 F 
ATOM     13  F   UNL     1       4.494   3.699  12.298  0.00  0.00    +0.000 F 
ATOM     14  F   UNL     1       6.530   4.177  11.713  0.00  0.00    +0.000 F 
ENDBRANCH   9  11
BRANCH   8  15
ATOM     15  C   UNL     1       7.909   5.503  13.368  0.00  0.00    +0.000 C 
ATOM     16  N   UNL     1       8.597   6.038  12.605  0.00  0.00    +0.000 NA
ENDBRANCH   8  15
ENDBRANCH   3   5
BRANCH   1  18
ATOM     17  C   UNL     1       3.801   2.399  19.800  0.00  0.00    +0.000 C 
ATOM     18  C   UNL     1       2.695   2.758  18.794  0.00  0.00    +0.000 C 
BRANCH  18  19
ATOM     19  O   UNL     1       2.052   1.541  18.404  0.00  0.00    +0.000 OA
ATOM     20  H   UNL     1       2.258   0.865  19.074  0.00  0.00    +0.000 HD
ENDBRANCH  18  19
BRANCH  18  21
ATOM     21  C   UNL     1       1.678   3.716  19.460  0.00  0.00    +0.000 C 
BRANCH  21  22
ATOM     22  S   UNL     1       2.486   4.910  20.601  0.00  0.00    +0.000 S 
BRANCH  22  23
ATOM     23  C   UNL     1       2.151   6.510  19.890  0.00  0.00    +0.000 A 
ATOM     24  C   UNL     1       2.502   6.915  18.599  0.00  0.00    +0.000 A 
ATOM     25  C   UNL     1       2.223   8.217  18.164  0.00  0.00    +0.000 A 
ATOM     26  C   UNL     1       1.587   9.117  19.016  0.00  0.00    +0.000 A 
ATOM     27 CL   UNL     1       1.268  10.721  18.487  0.00  0.00    +0.000 Cl
ATOM     28  C   UNL     1       1.215   8.723  20.295  0.00  0.00    +0.000 A 
ATOM     29  C   UNL     1       1.495   7.425  20.727  0.00  0.00    +0.000 A 
ENDBRANCH  22  23
ENDBRANCH  21  22
ENDBRANCH  18  21
ENDBRANCH   1  18
TORSDOF 8
ENDMDL
MODEL 4
REMARK VINA RESULT:      -7.0      4.880      8.015
REMARK  Name = 
REMARK  9 active torsions:
REMARK  status: ('A' for Active; 'I' for Inactive)
REMARK    1  A    between atoms: C_1  and  C_2
REMARK    2  A    between atoms: C_2  and  O_3
REMARK    3  A    between atoms: C_2  and  C_4
REMARK    4  A    between atoms: C_2  and  C_13
REMARK    5  A    between atoms: C_4  and  S_5
REMARK    6  A    between atoms: S_5  and  C_6
REMARK    7  A    between atoms: N_15  and  C_16
REMARK    8  A    between atoms: C_19  and  C_20
REMARK    9  A    between atoms: C_22  and  C_23
REMARK                            x       y       z     vdW  Elec       q    Type
REMARK                         _______ _______ _______ _____ _____    ______ ____
ROOT
ATOM      1  C   UNL     1       1.366   9.014  19.950  0.00  0.00    +0.000 C 
ATOM      2  O   UNL     1       1.539   9.148  18.734  0.00  0.00    +0.000 OA
ATOM      3  N   UNL     1       1.550   7.831  20.652  0.00  0.00    +0.000 N 
ATOM      4  H   UNL     1       1.158   7.813  21.589  0.00  0.00    +0.000 HD
ENDROOT
BRANCH   3   5
ATOM      5  C   UNL     1       2.060   6.636  20.104  0.00  0.00    +0.000 A 
ATOM      6  C   UNL     1       2.731   6.614  18.878  0.00  0.00    +0.000 A 
ATOM      7  C   UNL     1       3.168   5.415  18.324  0.00  0.00    +0.000 A 
ATOM      8  C   UNL     1       2.959   4.202  18.983  0.00  0.00    +0.000 A 
ATOM      9  C   UNL     1       2.322   4.196  20.237  0.00  0.00    +0.000 A 
ATOM     10  C   UNL     1       1.890   5.429  20.797  0.00  0.00    +0.000 A 
BRANCH   9  11
ATOM     11  C   UNL     1       2.062   2.926  21.017  0.00  0.00    +0.000 C 
ATOM     12  F   UNL     1       1.245   3.066  22.091  0.00  0.00    +0.000 F 
ATOM     13  F   UNL     1       1.493   1.962  20.243  0.00  0.00    +0.000 F 
ATOM     14  F   UNL     1       3.213   2.382  21.501  0.00  0.00    +0.000 F 
ENDBRANCH   9  11
BRANCH   8  15
ATOM     15  C   UNL     1       3.407   3.013  18.315  0.00  0.00    +0.000 C 
ATOM     16  N   UNL     1       3.721   2.044  17.764  0.00  0.00    +0.000 NA
ENDBRANCH   8  15
ENDBRANCH   3   5
BRANCH   1  18
ATOM     17  C   UNL     1       1.244  11.491  20.110  0.00  0.00    +0.000 C 
ATOM     18  C   UNL     1       0.797  10.185  20.787  0.00  0.00    +0.000 C 
BRANCH  18  19
ATOM     19  O   UNL     1       1.313  10.190  22.121  0.00  0.00    +0.000 OA
ATOM     20  H   UNL     1       0.805  10.841  22.637  0.00  0.00    +0.000 HD
ENDBRANCH  18  19
BRANCH  18  21
ATOM     21  C   UNL     1      -0.749  10.113  20.807  0.00  0.00    +0.000 C 
BRANCH  21  22
ATOM     22  S   UNL     1      -1.529  11.612  20.084  0.00  0.00    +0.000 S 
BRANCH  22  23
ATOM     23  C   UNL     1      -2.156  11.076  18.504  0.00  0.00    +0.000 A 
ATOM     24  C   UNL     1      -1.530  10.167  17.646  0.00  0.00    +0.000 A 
ATOM     25  C   UNL     1      -2.100   9.854  16.405  0.00  0.00    +0.000 A 
ATOM     26  C   UNL     1      -3.300  10.444  16.019  0.00  0.00    +0.000 A 
ATOM     27 CL   UNL     1      -3.985  10.076  14.486  0.00  0.00    +0.000 Cl
ATOM     28  C   UNL     1      -3.945  11.336  16.869  0.00  0.00    +0.000 A 
ATOM     29  C   UNL     1      -3.374  11.647  18.105  0.00  0.00    +0.000 A 
ENDBRANCH  22  23
ENDBRANCH  21  22
ENDBRANCH  18  21
ENDBRANCH   1  18
TORSDOF 8
ENDMDL
MODEL 5
REMARK VINA RESULT:      -7.0      4.872      8.408
REMARK  Name = 
REMARK  9 active torsions:
REMARK  status: ('A' for Active; 'I' for Inactive)
REMARK    1  A    between atoms: C_1  and  C_2
REMARK    2  A    between atoms: C_2  and  O_3
REMARK    3  A    between atoms: C_2  and  C_4
REMARK    4  A    between atoms: C_2  and  C_13
REMARK    5  A    between atoms: C_4  and  S_5
REMARK    6  A    between atoms: S_5  and  C_6
REMARK    7  A    between atoms: N_15  and  C_16
REMARK    8  A    between atoms: C_19  and  C_20
REMARK    9  A    between atoms: C_22  and  C_23
REMARK                            x       y       z     vdW  Elec       q    Type
REMARK                         _______ _______ _______ _____ _____    ______ ____
ROOT
ATOM      1  C   UNL     1       1.678   8.633  19.234  0.00  0.00    +0.000 C 
ATOM      2  O   UNL     1       1.682   8.584  20.468  0.00  0.00    +0.000 OA
ATOM      3  N   UNL     1       2.232   7.672  18.399  0.00  0.00    +0.000 N 
ATOM      4  H   UNL     1       2.353   7.952  17.430  0.00  0.00    +0.000 HD
ENDROOT
BRANCH   3   5
ATOM      5  C   UNL     1       2.788   6.449  18.830  0.00  0.00    +0.000 A 
ATOM      6  C   UNL     1       4.155   6.182  18.721  0.00  0.00    +0.000 A 
ATOM      7  C   UNL     1       4.673   4.945  19.090  0.00  0.00    +0.000 A 
ATOM      8  C   UNL     1       3.842   3.940  19.591  0.00  0.00    +0.000 A 
ATOM      9  C   UNL     1       2.468   4.194  19.750  0.00  0.00    +0.000 A 
ATOM     10  C   UNL     1       1.954   5.465  19.379  0.00  0.00    +0.000 A 
BRANCH   9  11
ATOM     11  C   UNL     1       1.503   3.162  20.290  0.00  0.00    +0.000 C 
ATOM     12  F   UNL     1       0.201   3.543  20.308  0.00  0.00    +0.000 F 
ATOM     13  F   UNL     1       1.539   2.006  19.571  0.00  0.00    +0.000 F 
ATOM     14  F   UNL     1       1.798   2.810  21.572  0.00  0.00    +0.000 F 
ENDBRANCH   9  11
BRANCH   8  15
ATOM     15  C   UNL     1       4.459   2.684  19.907  0.00  0.00    +0.000 C 
ATOM     16  N   UNL     1       4.911   1.649  20.163  0.00  0.00    +0.000 NA
ENDBRANCH   8  15
ENDBRANCH   3   5
BRANCH   1  18
ATOM     17  C   UNL     1      -0.219   9.493  17.877  0.00  0.00    +0.000 C 
ATOM     18  C   UNL     1       1.128   9.885  18.508  0.00  0.00    +0.000 C 
BRANCH  18  19
ATOM     19  O   UNL     1       1.992  10.315  17.453  0.00  0.00    +0.000 OA
ATOM     20  H   UNL     1       1.436  10.585  16.701  0.00  0.00    +0.000 HD
ENDBRANCH  18  19
BRANCH  18  21
ATOM     21  C   UNL     1       0.910  11.028  19.528  0.00  0.00    +0.000 C 
BRANCH  21  22
ATOM     22  S   UNL     1      -0.461  12.150  19.040  0.00  0.00    +0.000 S 
BRANCH  22  23
ATOM     23  C   UNL     1      -1.519  12.219  20.473  0.00  0.00    +0.000 A 
ATOM     24  C   UNL     1      -2.794  12.791  20.516  0.00  0.00    +0.000 A 
ATOM     25  C   UNL     1      -3.517  12.824  21.715  0.00  0.00    +0.000 A 
ATOM     26  C   UNL     1      -2.971  12.279  22.875  0.00  0.00    +0.000 A 
ATOM     27 CL   UNL     1      -3.851  12.342  24.350  0.00  0.00    +0.000 Cl
ATOM     28  C   UNL     1      -1.713  11.689  22.844  0.00  0.00    +0.000 A 
ATOM     29  C   UNL     1      -0.994  11.659  21.647  0.00  0.00    +0.000 A 
ENDBRANCH  22  23
ENDBRANCH  21  22
ENDBRANCH  18  21
ENDBRANCH   1  18
TORSDOF 8
ENDMDL
MODEL 6
REMARK VINA RESULT:      -7.0      1.300      1.701
REMARK  Name = 
REMARK  9 active torsions:
REMARK  status: ('A' for Active; 'I' for Inactive)
REMARK    1  A    between atoms: C_1  and  C_2
REMARK    2  A    between atoms: C_2  and  O_3
REMARK    3  A    between atoms: C_2  and  C_4
REMARK    4  A    between atoms: C_2  and  C_13
REMARK    5  A    between atoms: C_4  and  S_5
REMARK    6  A    between atoms: S_5  and  C_6
REMARK    7  A    between atoms: N_15  and  C_16
REMARK    8  A    between atoms: C_19  and  C_20
REMARK    9  A    between atoms: C_22  and  C_23
REMARK                            x       y       z     vdW  Elec       q    Type
REMARK                         _______ _______ _______ _____ _____    ______ ____
ROOT
ATOM      1  C   UNL     1       1.568   4.293  19.680  0.00  0.00    +0.000 C 
ATOM      2  O   UNL     1       1.185   4.289  18.506  0.00  0.00    +0.000 OA
ATOM      3  N   UNL     1       1.929   5.427  20.393  0.00  0.00    +0.000 N 
ATOM      4  H   UNL     1       2.431   5.257  21.260  0.00  0.00    +0.000 HD
ENDROOT
BRANCH   3   5
ATOM      5  C   UNL     1       1.813   6.752  19.921  0.00  0.00    +0.000 A 
ATOM      6  C   UNL     1       2.330   7.140  18.683  0.00  0.00    +0.000 A 
ATOM      7  C   UNL     1       2.264   8.465  18.264  0.00  0.00    +0.000 A 
ATOM      8  C   UNL     1       1.668   9.442  19.066  0.00  0.00    +0.000 A 
ATOM      9  C   UNL     1       1.103   9.073  20.300  0.00  0.00    +0.000 A 
ATOM     10  C   UNL     1       1.168   7.714  20.710  0.00  0.00    +0.000 A 
BRANCH   9  11
ATOM     11  C   UNL     1       0.436  10.068  21.224  0.00  0.00    +0.000 C 
ATOM     12  F   UNL     1      -0.747  10.563  20.783  0.00  0.00    +0.000 F 
ATOM     13  F   UNL     1       0.179   9.531  22.449  0.00  0.00    +0.000 F 
ATOM     14  F   UNL     1       1.224  11.155  21.454  0.00  0.00    +0.000 F 
ENDBRANCH   9  11
BRANCH   8  15
ATOM     15  C   UNL     1       1.683  10.788  18.571  0.00  0.00    +0.000 C 
ATOM     16  N   UNL     1       1.739  11.882  18.195  0.00  0.00    +0.000 NA
ENDBRANCH   8  15
ENDBRANCH   3   5
BRANCH   1  18
ATOM     17  C   UNL     1       1.646   1.825  19.397  0.00  0.00    +0.000 C 
ATOM     18  C   UNL     1       1.788   2.956  20.429  0.00  0.00    +0.000 C 
BRANCH  18  19
ATOM     19  O   UNL     1       0.803   2.743  21.444  0.00  0.00    +0.000 OA
ATOM     20  H   UNL     1       0.032   3.301  21.235  0.00  0.00    +0.000 HD
ENDBRANCH  18  19
BRANCH  18  21
ATOM     21  C   UNL     1       3.209   2.926  21.040  0.00  0.00    +0.000 C 
BRANCH  21  22
ATOM     22  S   UNL     1       4.459   2.252  19.873  0.00  0.00    +0.000 S 
BRANCH  22  23
ATOM     23  C   UNL     1       4.756   3.575  18.717  0.00  0.00    +0.000 A 
ATOM     24  C   UNL     1       5.344   4.806  19.023  0.00  0.00    +0.000 A 
ATOM     25  C   UNL     1       5.487   5.789  18.036  0.00  0.00    +0.000 A 
ATOM     26  C   UNL     1       5.047   5.544  16.737  0.00  0.00    +0.000 A 
ATOM     27 CL   UNL     1       5.202   6.762  15.534  0.00  0.00    +0.000 Cl
ATOM     28  C   UNL     1       4.477   4.319  16.412  0.00  0.00    +0.000 A 
ATOM     29  C   UNL     1       4.336   3.340  17.399  0.00  0.00    +0.000 A 
ENDBRANCH  22  23
ENDBRANCH  21  22
ENDBRANCH  18  21
ENDBRANCH   1  18
TORSDOF 8
ENDMDL
MODEL 7
REMARK VINA RESULT:      -7.0      1.724      2.255
REMARK  Name = 
REMARK  9 active torsions:
REMARK  status: ('A' for Active; 'I' for Inactive)
REMARK    1  A    between atoms: C_1  and  C_2
REMARK    2  A    between atoms: C_2  and  O_3
REMARK    3  A    between atoms: C_2  and  C_4
REMARK    4  A    between atoms: C_2  and  C_13
REMARK    5  A    between atoms: C_4  and  S_5
REMARK    6  A    between atoms: S_5  and  C_6
REMARK    7  A    between atoms: N_15  and  C_16
REMARK    8  A    between atoms: C_19  and  C_20
REMARK    9  A    between atoms: C_22  and  C_23
REMARK                            x       y       z     vdW  Elec       q    Type
REMARK                         _______ _______ _______ _____ _____    ______ ____
ROOT
ATOM      1  C   UNL     1       2.337   4.289  19.644  0.00  0.00    +0.000 C 
ATOM      2  O   UNL     1       1.347   4.265  18.906  0.00  0.00    +0.000 OA
ATOM      3  N   UNL     1       2.806   5.416  20.306  0.00  0.00    +0.000 N 
ATOM      4  H   UNL     1       3.744   5.339  20.688  0.00  0.00    +0.000 HD
ENDROOT
BRANCH   3   5
ATOM      5  C   UNL     1       2.165   6.672  20.318  0.00  0.00    +0.000 A 
ATOM      6  C   UNL     1       1.416   7.107  21.415  0.00  0.00    +0.000 A 
ATOM      7  C   UNL     1       0.737   8.320  21.381  0.00  0.00    +0.000 A 
ATOM      8  C   UNL     1       0.796   9.144  20.254  0.00  0.00    +0.000 A 
ATOM      9  C   UNL     1       1.574   8.751  19.150  0.00  0.00    +0.000 A 
ATOM     10  C   UNL     1       2.271   7.514  19.202  0.00  0.00    +0.000 A 
BRANCH   9  11
ATOM     11  C   UNL     1       1.693   9.587  17.894  0.00  0.00    +0.000 C 
ATOM     12  F   UNL     1       2.273  10.802  18.062  0.00  0.00    +0.000 F 
ATOM     13  F   UNL     1       2.423   8.958  16.933  0.00  0.00    +0.000 F 
ATOM     14  F   UNL     1       0.477   9.836  17.333  0.00  0.00    +0.000 F 
ENDBRANCH   9  11
BRANCH   8  15
ATOM     15  C   UNL     1       0.030  10.357  20.294  0.00  0.00    +0.000 C 
ATOM     16  N   UNL     1      -0.547  11.361  20.313  0.00  0.00    +0.000 NA
ENDBRANCH   8  15
ENDBRANCH   3   5
BRANCH   1  18
ATOM     17  C   UNL     1       2.662   1.958  18.847  0.00  0.00    +0.000 C 
ATOM     18  C   UNL     1       3.226   3.030  19.794  0.00  0.00    +0.000 C 
BRANCH  18  19
ATOM     19  O   UNL     1       3.184   2.501  21.122  0.00  0.00    +0.000 OA
ATOM     20  H   UNL     1       3.683   1.665  21.127  0.00  0.00    +0.000 HD
ENDBRANCH  18  19
BRANCH  18  21
ATOM     21  C   UNL     1       4.682   3.365  19.391  0.00  0.00    +0.000 C 
BRANCH  21  22
ATOM     22  S   UNL     1       4.816   3.910  17.640  0.00  0.00    +0.000 S 
BRANCH  22  23
ATOM     23  C   UNL     1       5.794   5.399  17.706  0.00  0.00    +0.000 A 
ATOM     24  C   UNL     1       5.541   6.570  16.985  0.00  0.00    +0.000 A 
ATOM     25  C   UNL     1       6.408   7.666  17.085  0.00  0.00    +0.000 A 
ATOM     26  C   UNL     1       7.528   7.597  17.911  0.00  0.00    +0.000 A 
ATOM     27 CL   UNL     1       8.602   8.935  18.014  0.00  0.00    +0.000 Cl
ATOM     28  C   UNL     1       7.782   6.447  18.649  0.00  0.00    +0.000 A 
ATOM     29  C   UNL     1       6.916   5.356  18.546  0.00  0.00    +0.000 A 
ENDBRANCH  22  23
ENDBRANCH  21  22
ENDBRANCH  18  21
ENDBRANCH   1  18
TORSDOF 8
ENDMDL
MODEL 8
REMARK VINA RESULT:      -7.0      3.891      6.223
REMARK  Name = 
REMARK  9 active torsions:
REMARK  status: ('A' for Active; 'I' for Inactive)
REMARK    1  A    between atoms: C_1  and  C_2
REMARK    2  A    between atoms: C_2  and  O_3
REMARK    3  A    between atoms: C_2  and  C_4
REMARK    4  A    between atoms: C_2  and  C_13
REMARK    5  A    between atoms: C_4  and  S_5
REMARK    6  A    between atoms: S_5  and  C_6
REMARK    7  A    between atoms: N_15  and  C_16
REMARK    8  A    between atoms: C_19  and  C_20
REMARK    9  A    between atoms: C_22  and  C_23
REMARK                            x       y       z     vdW  Elec       q    Type
REMARK                         _______ _______ _______ _____ _____    ______ ____
ROOT
ATOM      1  C   UNL     1       2.019   3.733  18.272  0.00  0.00    +0.000 C 
ATOM      2  O   UNL     1       1.434   4.144  17.265  0.00  0.00    +0.000 OA
ATOM      3  N   UNL     1       3.397   3.642  18.408  0.00  0.00    +0.000 N 
ATOM      4  H   UNL     1       3.724   3.083  19.190  0.00  0.00    +0.000 HD
ENDROOT
BRANCH   3   5
ATOM      5  C   UNL     1       4.336   4.102  17.460  0.00  0.00    +0.000 A 
ATOM      6  C   UNL     1       4.458   3.514  16.198  0.00  0.00    +0.000 A 
ATOM      7  C   UNL     1       5.434   3.939  15.303  0.00  0.00    +0.000 A 
ATOM      8  C   UNL     1       6.312   4.974  15.637  0.00  0.00    +0.000 A 
ATOM      9  C   UNL     1       6.187   5.611  16.884  0.00  0.00    +0.000 A 
ATOM     10  C   UNL     1       5.178   5.174  17.785  0.00  0.00    +0.000 A 
BRANCH   9  11
ATOM     11  C   UNL     1       7.094   6.741  17.320  0.00  0.00    +0.000 C 
ATOM     12  F   UNL     1       7.967   7.177  16.377  0.00  0.00    +0.000 F 
ATOM     13  F   UNL     1       6.389   7.839  17.706  0.00  0.00    +0.000 F 
ATOM     14  F   UNL     1       7.858   6.394  18.393  0.00  0.00    +0.000 F 
ENDBRANCH   9  11
BRANCH   8  15
ATOM     15  C   UNL     1       7.312   5.316  14.667  0.00  0.00    +0.000 C 
ATOM     16  N   UNL     1       8.138   5.545  13.888  0.00  0.00    +0.000 NA
ENDBRANCH   8  15
ENDBRANCH   3   5
BRANCH   1  18
ATOM     17  C   UNL     1       2.108   2.134  20.173  0.00  0.00    +0.000 C 
ATOM     18  C   UNL     1       1.210   3.159  19.461  0.00  0.00    +0.000 C 
BRANCH  18  19
ATOM     19  O   UNL     1       0.032   2.474  19.025  0.00  0.00    +0.000 OA
ATOM     20  H   UNL     1       0.305   1.772  18.408  0.00  0.00    +0.000 HD
ENDBRANCH  18  19
BRANCH  18  21
ATOM     21  C   UNL     1       0.840   4.297  20.441  0.00  0.00    +0.000 C 
BRANCH  21  22
ATOM     22  S   UNL     1       2.295   5.321  20.905  0.00  0.00    +0.000 S 
BRANCH  22  23
ATOM     23  C   UNL     1       1.897   6.959  20.326  0.00  0.00    +0.000 A 
ATOM     24  C   UNL     1       1.170   7.918  21.036  0.00  0.00    +0.000 A 
ATOM     25  C   UNL     1       0.880   9.161  20.458  0.00  0.00    +0.000 A 
ATOM     26  C   UNL     1       1.322   9.451  19.170  0.00  0.00    +0.000 A 
ATOM     27 CL   UNL     1       0.945  10.968  18.454  0.00  0.00    +0.000 Cl
ATOM     28  C   UNL     1       2.062   8.516  18.457  0.00  0.00    +0.000 A 
ATOM     29  C   UNL     1       2.348   7.277  19.036  0.00  0.00    +0.000 A 
ENDBRANCH  22  23
ENDBRANCH  21  22
ENDBRANCH  18  21
ENDBRANCH   1  18
TORSDOF 8
ENDMDL
MODEL 9
REMARK VINA RESULT:      -6.9      1.566      1.884
REMARK  Name = 
REMARK  9 active torsions:
REMARK  status: ('A' for Active; 'I' for Inactive)
REMARK    1  A    between atoms: C_1  and  C_2
REMARK    2  A    between atoms: C_2  and  O_3
REMARK    3  A    between atoms: C_2  and  C_4
REMARK    4  A    between atoms: C_2  and  C_13
REMARK    5  A    between atoms: C_4  and  S_5
REMARK    6  A    between atoms: S_5  and  C_6
REMARK    7  A    between atoms: N_15  and  C_16
REMARK    8  A    between atoms: C_19  and  C_20
REMARK    9  A    between atoms: C_22  and  C_23
REMARK                            x       y       z     vdW  Elec       q    Type
REMARK                         _______ _______ _______ _____ _____    ______ ____
ROOT
ATOM      1  C   UNL     1       2.285   4.557  19.336  0.00  0.00    +0.000 C 
ATOM      2  O   UNL     1       1.741   4.551  18.227  0.00  0.00    +0.000 OA
ATOM      3  N   UNL     1       2.546   5.695  20.087  0.00  0.00    +0.000 N 
ATOM      4  H   UNL     1       3.191   5.569  20.861  0.00  0.00    +0.000 HD
ENDROOT
BRANCH   3   5
ATOM      5  C   UNL     1       2.136   7.001  19.745  0.00  0.00    +0.000 A 
ATOM      6  C   UNL     1       2.476   7.584  18.522  0.00  0.00    +0.000 A 
ATOM      7  C   UNL     1       2.119   8.897  18.232  0.00  0.00    +0.000 A 
ATOM      8  C   UNL     1       1.400   9.664  19.152  0.00  0.00    +0.000 A 
ATOM      9  C   UNL     1       1.010   9.091  20.376  0.00  0.00    +0.000 A 
ATOM     10  C   UNL     1       1.372   7.746  20.654  0.00  0.00    +0.000 A 
BRANCH   9  11
ATOM     11  C   UNL     1       0.227   9.853  21.423  0.00  0.00    +0.000 C 
ATOM     12  F   UNL     1       0.845  10.955  21.916  0.00  0.00    +0.000 F 
ATOM     13  F   UNL     1      -0.973  10.283  20.948  0.00  0.00    +0.000 F 
ATOM     14  F   UNL     1      -0.059   9.079  22.506  0.00  0.00    +0.000 F 
ENDBRANCH   9  11
BRANCH   8  15
ATOM     15  C   UNL     1       1.113  11.021  18.783  0.00  0.00    +0.000 C 
ATOM     16  N   UNL     1       0.928  12.120  18.469  0.00  0.00    +0.000 NA
ENDBRANCH   8  15
ENDBRANCH   3   5
BRANCH   1  18
ATOM     17  C   UNL     1       1.927   2.100  19.454  0.00  0.00    +0.000 C 
ATOM     18  C   UNL     1       2.839   3.241  19.935  0.00  0.00    +0.000 C 
BRANCH  18  19
ATOM     19  O   UNL     1       2.805   3.249  21.365  0.00  0.00    +0.000 OA
ATOM     20  H   UNL     1       3.173   2.404  21.679  0.00  0.00    +0.000 HD
ENDBRANCH  18  19
BRANCH  18  21
ATOM     21  C   UNL     1       4.282   3.002  19.431  0.00  0.00    +0.000 C 
BRANCH  21  22
ATOM     22  S   UNL     1       5.200   4.572  19.165  0.00  0.00    +0.000 S 
BRANCH  22  23
ATOM     23  C   UNL     1       5.612   4.565  17.431  0.00  0.00    +0.000 A 
ATOM     24  C   UNL     1       4.722   4.308  16.384  0.00  0.00    +0.000 A 
ATOM     25  C   UNL     1       5.173   4.287  15.058  0.00  0.00    +0.000 A 
ATOM     26  C   UNL     1       6.515   4.527  14.772  0.00  0.00    +0.000 A 
ATOM     27 CL   UNL     1       7.069   4.477  13.146  0.00  0.00    +0.000 Cl
ATOM     28  C   UNL     1       7.409   4.803  15.800  0.00  0.00    +0.000 A 
ATOM     29  C   UNL     1       6.956   4.822  17.121  0.00  0.00    +0.000 A 
ENDBRANCH  22  23
ENDBRANCH  21  22
ENDBRANCH  18  21
ENDBRANCH   1  18
TORSDOF 8
ENDMDL
