MODEL 1
REMARK VINA RESULT:      -7.6      0.000      0.000
REMARK  Name = 
REMARK  9 active torsions:
REMARK  status: ('A' for Active; 'I' for Inactive)
REMARK    1  A    between atoms: C_1  and  C_2
REMARK    2  A    between atoms: C_2  and  C_3
REMARK    3  A    between atoms: C_3  and  C_4
REMARK    4  A    between atoms: C_5  and  C_6
REMARK    5  A    between atoms: N_15  and  C_16
REMARK    6  A    between atoms: C_16  and  C_17
REMARK    7  A    between atoms: C_17  and  C_18
REMARK    8  A    between atoms: C_23  and  O_24
REMARK    9  A    between atoms: O_24  and  C_25
REMARK                            x       y       z     vdW  Elec       q    Type
REMARK                         _______ _______ _______ _____ _____    ______ ____
ROOT
ATOM      1  C   UNL     1       2.081   6.051  19.502  0.00  0.00    +0.000 A 
ATOM      2  C   UNL     1       2.124   7.438  19.427  0.00  0.00    +0.000 A 
ATOM      3  N   UNL     1       2.962   7.836  18.407  0.00  0.00    +0.000 NA
ATOM      4  C   UNL     1       3.393   6.731  17.849  0.00  0.00    +0.000 A 
ATOM      5  N   UNL     1       2.925   5.622  18.494  0.00  0.00    +0.000 N 
ENDROOT
BRANCH   2   6
ATOM      6  C   UNL     1       1.423   8.403  20.266  0.00  0.00    +0.000 A 
ATOM      7  C   UNL     1       0.715   9.455  19.666  0.00  0.00    +0.000 A 
ATOM      8  C   UNL     1       0.032  10.398  20.449  0.00  0.00    +0.000 A 
ATOM      9  C   UNL     1       0.040  10.281  21.836  0.00  0.00    +0.000 A 
ATOM     10 CL   UNL     1      -0.803  11.427  22.808  0.00  0.00    +0.000 Cl
ATOM     11  C   UNL     1       0.722   9.241  22.450  0.00  0.00    +0.000 A 
ATOM     12  C   UNL     1       1.396   8.304  21.664  0.00  0.00    +0.000 A 
ENDBRANCH   2   6
BRANCH   1  13
ATOM     13  C   UNL     1       1.345   5.118  20.410  0.00  0.00    +0.000 C 
BRANCH  13  15
ATOM     14  C   UNL     1       1.905   2.949  21.552  0.00  0.00    +0.000 C 
ATOM     15  C   UNL     1       2.303   4.403  21.366  0.00  0.00    +0.000 C 
ENDBRANCH  13  15
ENDBRANCH   1  13
BRANCH   5  16
ATOM     16  C   UNL     1       3.207   4.238  18.144  0.00  0.00    +0.000 C 
BRANCH  16  17
ATOM     17  C   UNL     1       4.690   3.853  18.148  0.00  0.00    +0.000 C 
BRANCH  17  18
ATOM     18  C   UNL     1       5.507   4.206  16.924  0.00  0.00    +0.000 A 
ATOM     19  C   UNL     1       4.929   4.141  15.636  0.00  0.00    +0.000 A 
ATOM     20  C   UNL     1       5.671   4.406  14.482  0.00  0.00    +0.000 A 
ATOM     21  C   UNL     1       7.005   4.760  14.586  0.00  0.00    +0.000 A 
ATOM     22  C   UNL     1       7.598   4.834  15.845  0.00  0.00    +0.000 A 
ATOM     23  C   UNL     1       6.867   4.564  17.014  0.00  0.00    +0.000 A 
BRANCH  23  24
ATOM     24  O   UNL     1       7.658   4.563  18.133  0.00  0.00    +0.000 OA
ATOM     25  C   UNL     1       7.793   5.759  18.885  0.00  0.00    +0.000 C 
ENDBRANCH  23  24
ENDBRANCH  17  18
ENDBRANCH  16  17
ENDBRANCH   5  16
TORSDOF 7
ENDMDL
MODEL 2
REMARK VINA RESULT:      -7.6      0.765      1.256
REMARK  Name = 
REMARK  9 active torsions:
REMARK  status: ('A' for Active; 'I' for Inactive)
REMARK    1  A    between atoms: C_1  and  C_2
REMARK    2  A    between atoms: C_2  and  C_3
REMARK    3  A    between atoms: C_3  and  C_4
REMARK    4  A    between atoms: C_5  and  C_6
REMARK    5  A    between atoms: N_15  and  C_16
REMARK    6  A    between atoms: C_16  and  C_17
REMARK    7  A    between atoms: C_17  and  C_18
REMARK    8  A    between atoms: C_23  and  O_24
REMARK    9  A    between atoms: O_24  and  C_25
REMARK                            x       y       z     vdW  Elec       q    Type
REMARK                         _______ _______ _______ _____ _____    ______ ____
ROOT
ATOM      1  C   UNL     1       2.421   6.240  19.712  0.00  0.00    +0.000 A 
ATOM      2  C   UNL     1       2.138   7.580  19.473  0.00  0.00    +0.000 A 
ATOM      3  N   UNL     1       2.734   7.992  18.301  0.00  0.00    +0.000 NA
ATOM      4  C   UNL     1       3.335   6.932  17.815  0.00  0.00    +0.000 A 
ATOM      5  N   UNL     1       3.212   5.856  18.646  0.00  0.00    +0.000 N 
ENDROOT
BRANCH   2   6
ATOM      6  C   UNL     1       1.342   8.487  20.290  0.00  0.00    +0.000 A 
ATOM      7  C   UNL     1       1.375   8.368  21.688  0.00  0.00    +0.000 A 
ATOM      8  C   UNL     1       0.619   9.228  22.499  0.00  0.00    +0.000 A 
ATOM      9  C   UNL     1      -0.161  10.221  21.915  0.00  0.00    +0.000 A 
ATOM     10 CL   UNL     1      -1.088  11.289  22.900  0.00  0.00    +0.000 Cl
ATOM     11  C   UNL     1      -0.199  10.366  20.536  0.00  0.00    +0.000 A 
ATOM     12  C   UNL     1       0.559   9.509  19.735  0.00  0.00    +0.000 A 
ENDBRANCH   2   6
BRANCH   1  13
ATOM     13  C   UNL     1       2.031   5.316  20.822  0.00  0.00    +0.000 C 
BRANCH  13  15
ATOM     14  C   UNL     1       1.220   2.936  20.855  0.00  0.00    +0.000 C 
ATOM     15  C   UNL     1       0.931   4.347  20.377  0.00  0.00    +0.000 C 
ENDBRANCH  13  15
ENDBRANCH   1  13
BRANCH   5  16
ATOM     16  C   UNL     1       3.757   4.526  18.419  0.00  0.00    +0.000 C 
BRANCH  16  17
ATOM     17  C   UNL     1       5.274   4.468  18.214  0.00  0.00    +0.000 C 
BRANCH  17  18
ATOM     18  C   UNL     1       5.793   4.579  16.797  0.00  0.00    +0.000 A 
ATOM     19  C   UNL     1       5.164   3.871  15.748  0.00  0.00    +0.000 A 
ATOM     20  C   UNL     1       5.651   3.908  14.439  0.00  0.00    +0.000 A 
ATOM     21  C   UNL     1       6.769   4.667  14.140  0.00  0.00    +0.000 A 
ATOM     22  C   UNL     1       7.407   5.377  15.156  0.00  0.00    +0.000 A 
ATOM     23  C   UNL     1       6.933   5.345  16.479  0.00  0.00    +0.000 A 
BRANCH  23  24
ATOM     24  O   UNL     1       7.768   5.999  17.346  0.00  0.00    +0.000 OA
ATOM     25  C   UNL     1       7.607   7.395  17.541  0.00  0.00    +0.000 C 
ENDBRANCH  23  24
ENDBRANCH  17  18
ENDBRANCH  16  17
ENDBRANCH   5  16
TORSDOF 7
ENDMDL
MODEL 3
REMARK VINA RESULT:      -7.4      3.319      6.322
REMARK  Name = 
REMARK  9 active torsions:
REMARK  status: ('A' for Active; 'I' for Inactive)
REMARK    1  A    between atoms: C_1  and  C_2
REMARK    2  A    between atoms: C_2  and  C_3
REMARK    3  A    between atoms: C_3  and  C_4
REMARK    4  A    between atoms: C_5  and  C_6
REMARK    5  A    between atoms: N_15  and  C_16
REMARK    6  A    between atoms: C_16  and  C_17
REMARK    7  A    between atoms: C_17  and  C_18
REMARK    8  A    between atoms: C_23  and  O_24
REMARK    9  A    between atoms: O_24  and  C_25
REMARK                            x       y       z     vdW  Elec       q    Type
REMARK                         _______ _______ _______ _____ _____    ______ ____
ROOT
ATOM      1  C   UNL     1       5.005   4.997  17.477  0.00  0.00    +0.000 A 
ATOM      2  C   UNL     1       6.263   5.435  17.081  0.00  0.00    +0.000 A 
ATOM      3  N   UNL     1       6.754   4.630  16.076  0.00  0.00    +0.000 NA
ATOM      4  C   UNL     1       5.816   3.747  15.835  0.00  0.00    +0.000 A 
ATOM      5  N   UNL     1       4.753   3.896  16.679  0.00  0.00    +0.000 N 
ENDROOT
BRANCH   2   6
ATOM      6  C   UNL     1       7.023   6.565  17.601  0.00  0.00    +0.000 A 
ATOM      7  C   UNL     1       7.866   6.381  18.707  0.00  0.00    +0.000 A 
ATOM      8  C   UNL     1       8.608   7.451  19.228  0.00  0.00    +0.000 A 
ATOM      9  C   UNL     1       8.522   8.707  18.635  0.00  0.00    +0.000 A 
ATOM     10 CL   UNL     1       9.435  10.027  19.261  0.00  0.00    +0.000 Cl
ATOM     11  C   UNL     1       7.705   8.909  17.533  0.00  0.00    +0.000 A 
ATOM     12  C   UNL     1       6.972   7.839  17.017  0.00  0.00    +0.000 A 
ENDBRANCH   2   6
BRANCH   1  13
ATOM     13  C   UNL     1       4.047   5.500  18.510  0.00  0.00    +0.000 C 
BRANCH  13  15
ATOM     14  C   UNL     1       2.408   7.335  19.026  0.00  0.00    +0.000 C 
ATOM     15  C   UNL     1       3.104   6.555  17.925  0.00  0.00    +0.000 C 
ENDBRANCH  13  15
ENDBRANCH   1  13
BRANCH   5  16
ATOM     16  C   UNL     1       3.543   3.087  16.693  0.00  0.00    +0.000 C 
BRANCH  16  17
ATOM     17  C   UNL     1       3.487   2.015  17.787  0.00  0.00    +0.000 C 
BRANCH  17  18
ATOM     18  C   UNL     1       2.769   2.366  19.072  0.00  0.00    +0.000 A 
ATOM     19  C   UNL     1       1.393   2.688  19.056  0.00  0.00    +0.000 A 
ATOM     20  C   UNL     1       0.713   3.070  20.216  0.00  0.00    +0.000 A 
ATOM     21  C   UNL     1       1.386   3.122  21.424  0.00  0.00    +0.000 A 
ATOM     22  C   UNL     1       2.743   2.806  21.467  0.00  0.00    +0.000 A 
ATOM     23  C   UNL     1       3.442   2.428  20.308  0.00  0.00    +0.000 A 
BRANCH  23  24
ATOM     24  O   UNL     1       4.786   2.285  20.535  0.00  0.00    +0.000 OA
ATOM     25  C   UNL     1       5.280   1.041  21.006  0.00  0.00    +0.000 C 
ENDBRANCH  23  24
ENDBRANCH  17  18
ENDBRANCH  16  17
ENDBRANCH   5  16
TORSDOF 7
ENDMDL
MODEL 4
REMARK VINA RESULT:      -7.4      3.610      8.187
REMARK  Name = 
REMARK  9 active torsions:
REMARK  status: ('A' for Active; 'I' for Inactive)
REMARK    1  A    between atoms: C_1  and  C_2
REMARK    2  A    between atoms: C_2  and  C_3
REMARK    3  A    between atoms: C_3  and  C_4
REMARK    4  A    between atoms: C_5  and  C_6
REMARK    5  A    between atoms: N_15  and  C_16
REMARK    6  A    between atoms: C_16  and  C_17
REMARK    7  A    between atoms: C_17  and  C_18
REMARK    8  A    between atoms: C_23  and  O_24
REMARK    9  A    between atoms: O_24  and  C_25
REMARK                            x       y       z     vdW  Elec       q    Type
REMARK                         _______ _______ _______ _____ _____    ______ ____
ROOT
ATOM      1  C   UNL     1       2.328   6.771  19.714  0.00  0.00    +0.000 A 
ATOM      2  C   UNL     1       2.828   7.073  18.453  0.00  0.00    +0.000 A 
ATOM      3  N   UNL     1       2.403   8.323  18.057  0.00  0.00    +0.000 NA
ATOM      4  C   UNL     1       1.695   8.791  19.056  0.00  0.00    +0.000 A 
ATOM      5  N   UNL     1       1.583   7.880  20.067  0.00  0.00    +0.000 N 
ENDROOT
BRANCH   2   6
ATOM      6  C   UNL     1       3.677   6.245  17.604  0.00  0.00    +0.000 A 
ATOM      7  C   UNL     1       3.435   4.866  17.518  0.00  0.00    +0.000 A 
ATOM      8  C   UNL     1       4.236   4.046  16.710  0.00  0.00    +0.000 A 
ATOM      9  C   UNL     1       5.274   4.606  15.971  0.00  0.00    +0.000 A 
ATOM     10 CL   UNL     1       6.260   3.611  14.968  0.00  0.00    +0.000 Cl
ATOM     11  C   UNL     1       5.524   5.969  16.030  0.00  0.00    +0.000 A 
ATOM     12  C   UNL     1       4.719   6.780  16.834  0.00  0.00    +0.000 A 
ENDBRANCH   2   6
BRANCH   1  13
ATOM     13  C   UNL     1       2.477   5.568  20.590  0.00  0.00    +0.000 C 
BRANCH  13  15
ATOM     14  C   UNL     1       1.547   3.306  21.175  0.00  0.00    +0.000 C 
ATOM     15  C   UNL     1       1.329   4.578  20.375  0.00  0.00    +0.000 C 
ENDBRANCH  13  15
ENDBRANCH   1  13
BRANCH   5  16
ATOM     16  C   UNL     1       0.866   8.068  21.320  0.00  0.00    +0.000 C 
BRANCH  16  17
ATOM     17  C   UNL     1       1.264   9.313  22.119  0.00  0.00    +0.000 C 
BRANCH  17  18
ATOM     18  C   UNL     1       0.249  10.431  22.222  0.00  0.00    +0.000 A 
ATOM     19  C   UNL     1      -0.845  10.324  23.110  0.00  0.00    +0.000 A 
ATOM     20  C   UNL     1      -1.829  11.312  23.189  0.00  0.00    +0.000 A 
ATOM     21  C   UNL     1      -1.736  12.443  22.395  0.00  0.00    +0.000 A 
ATOM     22  C   UNL     1      -0.665  12.574  21.513  0.00  0.00    +0.000 A 
ATOM     23  C   UNL     1       0.329  11.586  21.417  0.00  0.00    +0.000 A 
BRANCH  23  24
ATOM     24  O   UNL     1       1.219  11.839  20.406  0.00  0.00    +0.000 OA
ATOM     25  C   UNL     1       0.751  12.431  19.205  0.00  0.00    +0.000 C 
ENDBRANCH  23  24
ENDBRANCH  17  18
ENDBRANCH  16  17
ENDBRANCH   5  16
TORSDOF 7
ENDMDL
MODEL 5
REMARK VINA RESULT:      -7.3      3.636      6.251
REMARK  Name = 
REMARK  9 active torsions:
REMARK  status: ('A' for Active; 'I' for Inactive)
REMARK    1  A    between atoms: C_1  and  C_2
REMARK    2  A    between atoms: C_2  and  C_3
REMARK    3  A    between atoms: C_3  and  C_4
REMARK    4  A    between atoms: C_5  and  C_6
REMARK    5  A    between atoms: N_15  and  C_16
REMARK    6  A    between atoms: C_16  and  C_17
REMARK    7  A    between atoms: C_17  and  C_18
REMARK    8  A    between atoms: C_23  and  O_24
REMARK    9  A    between atoms: O_24  and  C_25
REMARK                            x       y       z     vdW  Elec       q    Type
REMARK                         _______ _______ _______ _____ _____    ______ ____
ROOT
ATOM      1  C   UNL     1       5.074   5.001  17.497  0.00  0.00    +0.000 A 
ATOM      2  C   UNL     1       6.326   5.445  17.089  0.00  0.00    +0.000 A 
ATOM      3  N   UNL     1       6.794   4.668  16.052  0.00  0.00    +0.000 NA
ATOM      4  C   UNL     1       5.847   3.796  15.804  0.00  0.00    +0.000 A 
ATOM      5  N   UNL     1       4.801   3.926  16.672  0.00  0.00    +0.000 N 
ENDROOT
BRANCH   2   6
ATOM      6  C   UNL     1       7.101   6.556  17.628  0.00  0.00    +0.000 A 
ATOM      7  C   UNL     1       7.007   7.821  17.029  0.00  0.00    +0.000 A 
ATOM      8  C   UNL     1       7.742   8.907  17.527  0.00  0.00    +0.000 A 
ATOM      9  C   UNL     1       8.562   8.736  18.637  0.00  0.00    +0.000 A 
ATOM     10 CL   UNL     1       9.463  10.065  19.263  0.00  0.00    +0.000 Cl
ATOM     11  C   UNL     1       8.662   7.498  19.254  0.00  0.00    +0.000 A 
ATOM     12  C   UNL     1       7.924   6.422  18.756  0.00  0.00    +0.000 A 
ENDBRANCH   2   6
BRANCH   1  13
ATOM     13  C   UNL     1       4.138   5.477  18.562  0.00  0.00    +0.000 C 
BRANCH  13  15
ATOM     14  C   UNL     1       1.812   6.281  18.048  0.00  0.00    +0.000 C 
ATOM     15  C   UNL     1       3.284   6.649  18.068  0.00  0.00    +0.000 C 
ENDBRANCH  13  15
ENDBRANCH   1  13
BRANCH   5  16
ATOM     16  C   UNL     1       3.588   3.122  16.685  0.00  0.00    +0.000 C 
BRANCH  16  17
ATOM     17  C   UNL     1       3.539   2.030  17.759  0.00  0.00    +0.000 C 
BRANCH  17  18
ATOM     18  C   UNL     1       2.821   2.352  19.052  0.00  0.00    +0.000 A 
ATOM     19  C   UNL     1       1.447   2.682  19.042  0.00  0.00    +0.000 A 
ATOM     20  C   UNL     1       0.768   3.039  20.210  0.00  0.00    +0.000 A 
ATOM     21  C   UNL     1       1.440   3.058  21.420  0.00  0.00    +0.000 A 
ATOM     22  C   UNL     1       2.795   2.734  21.457  0.00  0.00    +0.000 A 
ATOM     23  C   UNL     1       3.493   2.380  20.290  0.00  0.00    +0.000 A 
BRANCH  23  24
ATOM     24  O   UNL     1       4.836   2.225  20.515  0.00  0.00    +0.000 OA
ATOM     25  C   UNL     1       5.307   1.012  21.080  0.00  0.00    +0.000 C 
ENDBRANCH  23  24
ENDBRANCH  17  18
ENDBRANCH  16  17
ENDBRANCH   5  16
TORSDOF 7
ENDMDL
MODEL 6
REMARK VINA RESULT:      -7.3      2.262      4.666
REMARK  Name = 
REMARK  9 active torsions:
REMARK  status: ('A' for Active; 'I' for Inactive)
REMARK    1  A    between atoms: C_1  and  C_2
REMARK    2  A    between atoms: C_2  and  C_3
REMARK    3  A    between atoms: C_3  and  C_4
REMARK    4  A    between atoms: C_5  and  C_6
REMARK    5  A    between atoms: N_15  and  C_16
REMARK    6  A    between atoms: C_16  and  C_17
REMARK    7  A    between atoms: C_17  and  C_18
REMARK    8  A    between atoms: C_23  and  O_24
REMARK    9  A    between atoms: O_24  and  C_25
REMARK                            x       y       z     vdW  Elec       q    Type
REMARK                         _______ _______ _______ _____ _____    ______ ____
ROOT
ATOM      1  C   UNL     1       0.927   9.029  19.939  0.00  0.00    +0.000 A 
ATOM      2  C   UNL     1       0.603  10.193  19.252  0.00  0.00    +0.000 A 
ATOM      3  N   UNL     1       1.345  10.288  18.095  0.00  0.00    +0.000 NA
ATOM      4  C   UNL     1       2.077   9.201  18.051  0.00  0.00    +0.000 A 
ATOM      5  N   UNL     1       1.894   8.424  19.158  0.00  0.00    +0.000 N 
ENDROOT
BRANCH   2   6
ATOM      6  C   UNL     1      -0.363  11.217  19.632  0.00  0.00    +0.000 A 
ATOM      7  C   UNL     1       0.036  12.266  20.474  0.00  0.00    +0.000 A 
ATOM      8  C   UNL     1      -0.872  13.265  20.856  0.00  0.00    +0.000 A 
ATOM      9  C   UNL     1      -2.180  13.227  20.383  0.00  0.00    +0.000 A 
ATOM     10 CL   UNL     1      -3.303  14.452  20.838  0.00  0.00    +0.000 Cl
ATOM     11  C   UNL     1      -2.594  12.207  19.539  0.00  0.00    +0.000 A 
ATOM     12  C   UNL     1      -1.683  11.218  19.160  0.00  0.00    +0.000 A 
ENDBRANCH   2   6
BRANCH   1  13
ATOM     13  C   UNL     1       0.430   8.452  21.226  0.00  0.00    +0.000 C 
BRANCH  13  15
ATOM     14  C   UNL     1      -0.233   9.778  23.257  0.00  0.00    +0.000 C 
ATOM     15  C   UNL     1       0.928   9.262  22.427  0.00  0.00    +0.000 C 
ENDBRANCH  13  15
ENDBRANCH   1  13
BRANCH   5  16
ATOM     16  C   UNL     1       2.548   7.153  19.436  0.00  0.00    +0.000 C 
BRANCH  16  17
ATOM     17  C   UNL     1       2.487   6.126  18.302  0.00  0.00    +0.000 C 
BRANCH  17  18
ATOM     18  C   UNL     1       2.106   4.707  18.663  0.00  0.00    +0.000 A 
ATOM     19  C   UNL     1       1.412   4.438  19.864  0.00  0.00    +0.000 A 
ATOM     20  C   UNL     1       1.094   3.135  20.255  0.00  0.00    +0.000 A 
ATOM     21  C   UNL     1       1.445   2.067  19.446  0.00  0.00    +0.000 A 
ATOM     22  C   UNL     1       2.129   2.306  18.255  0.00  0.00    +0.000 A 
ATOM     23  C   UNL     1       2.461   3.610  17.852  0.00  0.00    +0.000 A 
BRANCH  23  24
ATOM     24  O   UNL     1       3.240   3.623  16.724  0.00  0.00    +0.000 OA
ATOM     25  C   UNL     1       4.651   3.681  16.859  0.00  0.00    +0.000 C 
ENDBRANCH  23  24
ENDBRANCH  17  18
ENDBRANCH  16  17
ENDBRANCH   5  16
TORSDOF 7
ENDMDL
MODEL 7
REMARK VINA RESULT:      -7.3      3.717      8.212
REMARK  Name = 
REMARK  9 active torsions:
REMARK  status: ('A' for Active; 'I' for Inactive)
REMARK    1  A    between atoms: C_1  and  C_2
REMARK    2  A    between atoms: C_2  and  C_3
REMARK    3  A    between atoms: C_3  and  C_4
REMARK    4  A    between atoms: C_5  and  C_6
REMARK    5  A    between atoms: N_15  and  C_16
REMARK    6  A    between atoms: C_16  and  C_17
REMARK    7  A    between atoms: C_17  and  C_18
REMARK    8  A    between atoms: C_23  and  O_24
REMARK    9  A    between atoms: O_24  and  C_25
REMARK                            x       y       z     vdW  Elec       q    Type
REMARK                         _______ _______ _______ _____ _____    ______ ____
ROOT
ATOM      1  C   UNL     1       2.478   6.732  19.667  0.00  0.00    +0.000 A 
ATOM      2  C   UNL     1       2.947   7.024  18.392  0.00  0.00    +0.000 A 
ATOM      3  N   UNL     1       2.585   8.304  18.031  0.00  0.00    +0.000 NA
ATOM      4  C   UNL     1       1.946   8.798  19.064  0.00  0.00    +0.000 A 
ATOM      5  N   UNL     1       1.817   7.879  20.065  0.00  0.00    +0.000 N 
ENDROOT
BRANCH   2   6
ATOM      6  C   UNL     1       3.711   6.160  17.499  0.00  0.00    +0.000 A 
ATOM      7  C   UNL     1       4.666   6.725  16.640  0.00  0.00    +0.000 A 
ATOM      8  C   UNL     1       5.414   5.918  15.771  0.00  0.00    +0.000 A 
ATOM      9  C   UNL     1       5.222   4.540  15.769  0.00  0.00    +0.000 A 
ATOM     10 CL   UNL     1       6.141   3.537  14.712  0.00  0.00    +0.000 Cl
ATOM     11  C   UNL     1       4.293   3.958  16.618  0.00  0.00    +0.000 A 
ATOM     12  C   UNL     1       3.554   4.767  17.485  0.00  0.00    +0.000 A 
ENDBRANCH   2   6
BRANCH   1  13
ATOM     13  C   UNL     1       2.588   5.508  20.521  0.00  0.00    +0.000 C 
BRANCH  13  15
ATOM     14  C   UNL     1       1.541   3.232  20.303  0.00  0.00    +0.000 C 
ATOM     15  C   UNL     1       1.280   4.712  20.519  0.00  0.00    +0.000 C 
ENDBRANCH  13  15
ENDBRANCH   1  13
BRANCH   5  16
ATOM     16  C   UNL     1       1.162   8.089  21.348  0.00  0.00    +0.000 C 
BRANCH  16  17
ATOM     17  C   UNL     1      -0.312   8.498  21.269  0.00  0.00    +0.000 C 
BRANCH  17  18
ATOM     18  C   UNL     1      -0.644   9.961  21.471  0.00  0.00    +0.000 A 
ATOM     19  C   UNL     1      -0.764  10.492  22.775  0.00  0.00    +0.000 A 
ATOM     20  C   UNL     1      -1.124  11.824  22.997  0.00  0.00    +0.000 A 
ATOM     21  C   UNL     1      -1.355  12.664  21.921  0.00  0.00    +0.000 A 
ATOM     22  C   UNL     1      -1.241  12.165  20.625  0.00  0.00    +0.000 A 
ATOM     23  C   UNL     1      -0.887  10.826  20.386  0.00  0.00    +0.000 A 
BRANCH  23  24
ATOM     24  O   UNL     1      -0.954  10.500  19.056  0.00  0.00    +0.000 OA
ATOM     25  C   UNL     1      -1.668  11.348  18.171  0.00  0.00    +0.000 C 
ENDBRANCH  23  24
ENDBRANCH  17  18
ENDBRANCH  16  17
ENDBRANCH   5  16
TORSDOF 7
ENDMDL
MODEL 8
REMARK VINA RESULT:      -7.2      1.805      3.159
REMARK  Name = 
REMARK  9 active torsions:
REMARK  status: ('A' for Active; 'I' for Inactive)
REMARK    1  A    between atoms: C_1  and  C_2
REMARK    2  A    between atoms: C_2  and  C_3
REMARK    3  A    between atoms: C_3  and  C_4
REMARK    4  A    between atoms: C_5  and  C_6
REMARK    5  A    between atoms: N_15  and  C_16
REMARK    6  A    between atoms: C_16  and  C_17
REMARK    7  A    between atoms: C_17  and  C_18
REMARK    8  A    between atoms: C_23  and  O_24
REMARK    9  A    between atoms: O_24  and  C_25
REMARK                            x       y       z     vdW  Elec       q    Type
REMARK                         _______ _______ _______ _____ _____    ______ ____
ROOT
ATOM      1  C   UNL     1       1.514   8.467  19.714  0.00  0.00    +0.000 A 
ATOM      2  C   UNL     1       1.232   9.609  18.974  0.00  0.00    +0.000 A 
ATOM      3  N   UNL     1       1.878   9.561  17.757  0.00  0.00    +0.000 NA
ATOM      4  C   UNL     1       2.508   8.411  17.733  0.00  0.00    +0.000 A 
ATOM      5  N   UNL     1       2.355   7.727  18.905  0.00  0.00    +0.000 N 
ENDROOT
BRANCH   2   6
ATOM      6  C   UNL     1       0.393  10.739  19.355  0.00  0.00    +0.000 A 
ATOM      7  C   UNL     1       0.994  11.938  19.768  0.00  0.00    +0.000 A 
ATOM      8  C   UNL     1       0.211  13.041  20.141  0.00  0.00    +0.000 A 
ATOM      9  C   UNL     1      -1.176  12.954  20.085  0.00  0.00    +0.000 A 
ATOM     10 CL   UNL     1      -2.149  14.305  20.532  0.00  0.00    +0.000 Cl
ATOM     11  C   UNL     1      -1.792  11.784  19.667  0.00  0.00    +0.000 A 
ATOM     12  C   UNL     1      -1.007  10.691  19.294  0.00  0.00    +0.000 A 
ENDBRANCH   2   6
BRANCH   1  13
ATOM     13  C   UNL     1       1.081   8.022  21.075  0.00  0.00    +0.000 C 
BRANCH  13  15
ATOM     14  C   UNL     1       0.099   9.511  22.847  0.00  0.00    +0.000 C 
ATOM     15  C   UNL     1       1.370   9.095  22.128  0.00  0.00    +0.000 C 
ENDBRANCH  13  15
ENDBRANCH   1  13
BRANCH   5  16
ATOM     16  C   UNL     1       2.919   6.423  19.220  0.00  0.00    +0.000 C 
BRANCH  16  17
ATOM     17  C   UNL     1       3.123   5.492  18.020  0.00  0.00    +0.000 C 
BRANCH  17  18
ATOM     18  C   UNL     1       4.538   5.291  17.524  0.00  0.00    +0.000 A 
ATOM     19  C   UNL     1       4.915   5.740  16.238  0.00  0.00    +0.000 A 
ATOM     20  C   UNL     1       6.197   5.520  15.728  0.00  0.00    +0.000 A 
ATOM     21  C   UNL     1       7.141   4.862  16.496  0.00  0.00    +0.000 A 
ATOM     22  C   UNL     1       6.796   4.410  17.769  0.00  0.00    +0.000 A 
ATOM     23  C   UNL     1       5.509   4.618  18.293  0.00  0.00    +0.000 A 
BRANCH  23  24
ATOM     24  O   UNL     1       5.331   3.989  19.498  0.00  0.00    +0.000 OA
ATOM     25  C   UNL     1       4.471   2.863  19.570  0.00  0.00    +0.000 C 
ENDBRANCH  23  24
ENDBRANCH  17  18
ENDBRANCH  16  17
ENDBRANCH   5  16
TORSDOF 7
ENDMDL
MODEL 9
REMARK VINA RESULT:      -7.2      2.173      3.748
REMARK  Name = 
REMARK  9 active torsions:
REMARK  status: ('A' for Active; 'I' for Inactive)
REMARK    1  A    between atoms: C_1  and  C_2
REMARK    2  A    between atoms: C_2  and  C_3
REMARK    3  A    between atoms: C_3  and  C_4
REMARK    4  A    between atoms: C_5  and  C_6
REMARK    5  A    between atoms: N_15  and  C_16
REMARK    6  A    between atoms: C_16  and  C_17
REMARK    7  A    between atoms: C_17  and  C_18
REMARK    8  A    between atoms: C_23  and  O_24
REMARK    9  A    between atoms: O_24  and  C_25
REMARK                            x       y       z     vdW  Elec       q    Type
REMARK                         _______ _______ _______ _____ _____    ______ ____
ROOT
ATOM      1  C   UNL     1       1.284   9.001  20.055  0.00  0.00    +0.000 A 
ATOM      2  C   UNL     1       0.815  10.044  19.266  0.00  0.00    +0.000 A 
ATOM      3  N   UNL     1       1.173   9.845  17.950  0.00  0.00    +0.000 NA
ATOM      4  C   UNL     1       1.810   8.699  17.923  0.00  0.00    +0.000 A 
ATOM      5  N   UNL     1       1.940   8.165  19.173  0.00  0.00    +0.000 N 
ENDROOT
BRANCH   2   6
ATOM      6  C   UNL     1       0.055  11.216  19.687  0.00  0.00    +0.000 A 
ATOM      7  C   UNL     1      -1.307  11.308  19.367  0.00  0.00    +0.000 A 
ATOM      8  C   UNL     1      -2.062  12.423  19.759  0.00  0.00    +0.000 A 
ATOM      9  C   UNL     1      -1.460  13.444  20.488  0.00  0.00    +0.000 A 
ATOM     10 CL   UNL     1      -2.378  14.815  20.983  0.00  0.00    +0.000 Cl
ATOM     11  C   UNL     1      -0.117  13.368  20.827  0.00  0.00    +0.000 A 
ATOM     12  C   UNL     1       0.627  12.253  20.437  0.00  0.00    +0.000 A 
ENDBRANCH   2   6
BRANCH   1  13
ATOM     13  C   UNL     1       1.178   8.728  21.522  0.00  0.00    +0.000 C 
BRANCH  13  15
ATOM     14  C   UNL     1      -0.469   9.790  23.098  0.00  0.00    +0.000 C 
ATOM     15  C   UNL     1      -0.280   8.769  21.991  0.00  0.00    +0.000 C 
ENDBRANCH  13  15
ENDBRANCH   1  13
BRANCH   5  16
ATOM     16  C   UNL     1       2.593   6.908  19.507  0.00  0.00    +0.000 C 
BRANCH  16  17
ATOM     17  C   UNL     1       2.411   5.784  18.482  0.00  0.00    +0.000 C 
BRANCH  17  18
ATOM     18  C   UNL     1       3.600   5.428  17.616  0.00  0.00    +0.000 A 
ATOM     19  C   UNL     1       4.533   6.421  17.240  0.00  0.00    +0.000 A 
ATOM     20  C   UNL     1       5.609   6.138  16.396  0.00  0.00    +0.000 A 
ATOM     21  C   UNL     1       5.793   4.850  15.921  0.00  0.00    +0.000 A 
ATOM     22  C   UNL     1       4.889   3.852  16.280  0.00  0.00    +0.000 A 
ATOM     23  C   UNL     1       3.797   4.123  17.122  0.00  0.00    +0.000 A 
BRANCH  23  24
ATOM     24  O   UNL     1       2.959   3.046  17.249  0.00  0.00    +0.000 OA
ATOM     25  C   UNL     1       3.319   1.989  18.124  0.00  0.00    +0.000 C 
ENDBRANCH  23  24
ENDBRANCH  17  18
ENDBRANCH  16  17
ENDBRANCH   5  16
TORSDOF 7
ENDMDL
