MODEL 1
REMARK VINA RESULT:      -8.1      0.000      0.000
REMARK  Name = 
REMARK  11 active torsions:
REMARK  status: ('A' for Active; 'I' for Inactive)
REMARK    1  A    between atoms: C_1  and  O_2
REMARK    2  A    between atoms: O_2  and  C_3
REMARK    3  A    between atoms: C_6  and  C_7
REMARK    4  A    between atoms: C_8  and  C_9
REMARK    5  A    between atoms: C_12  and  C_13
REMARK    6  A    between atoms: C_13  and  C_14
REMARK    7  A    between atoms: C_14  and  C_15
REMARK    8  A    between atoms: C_14  and  N_16
REMARK    9  A    between atoms: C_17  and  C_19
REMARK   10  A    between atoms: C_25  and  O_26
REMARK   11  A    between atoms: O_26  and  C_27
REMARK                            x       y       z     vdW  Elec       q    Type
REMARK                         _______ _______ _______ _____ _____    ______ ____
ROOT
ATOM      1  C   UNL     1       7.804   8.003  18.075  0.00  0.00    +0.000 A 
ATOM      2  C   UNL     1       6.688   7.806  17.264  0.00  0.00    +0.000 A 
ATOM      3  C   UNL     1       6.032   6.570  17.268  0.00  0.00    +0.000 A 
ATOM      4  C   UNL     1       6.496   5.519  18.071  0.00  0.00    +0.000 A 
ATOM      5  C   UNL     1       7.636   5.723  18.862  0.00  0.00    +0.000 A 
ATOM      6  C   UNL     1       8.281   6.962  18.871  0.00  0.00    +0.000 A 
ENDROOT
BRANCH   1   8
ATOM      7  C   UNL     1       8.993  10.344  18.126  0.00  0.00    +0.000 C 
ATOM      8  C   UNL     1       8.462   9.272  18.116  0.00  0.00    +0.000 C 
BRANCH   7  12
ATOM      9  C   UNL     1      10.918  14.098  17.953  0.00  0.00    +0.000 A 
ATOM     10  C   UNL     1      11.598  12.914  17.612  0.00  0.00    +0.000 A 
ATOM     11  C   UNL     1      10.957  11.682  17.649  0.00  0.00    +0.000 A 
ATOM     12  C   UNL     1       9.653  11.608  18.111  0.00  0.00    +0.000 A 
ATOM     13  C   UNL     1       8.998  12.759  18.546  0.00  0.00    +0.000 A 
ATOM     14  C   UNL     1       9.617  14.016  18.468  0.00  0.00    +0.000 A 
BRANCH   9  16
ATOM     15  C   UNL     1      11.092  16.052  16.639  0.00  0.00    +0.000 C 
ATOM     16  O   UNL     1      11.529  15.312  17.784  0.00  0.00    +0.000 OA
ENDBRANCH   9  16
BRANCH  14  17
ATOM     17  O   UNL     1       8.786  15.011  18.915  0.00  0.00    +0.000 OA
ATOM     18  C   UNL     1       7.707  15.436  18.098  0.00  0.00    +0.000 C 
ENDBRANCH  14  17
ENDBRANCH   7  12
ENDBRANCH   1   8
BRANCH   4  19
ATOM     19  C   UNL     1       5.753   4.199  18.129  0.00  0.00    +0.000 C 
BRANCH  19  20
ATOM     20  C   UNL     1       4.258   4.277  17.750  0.00  0.00    +0.000 C 
ATOM     21  C   UNL     1       3.916   3.361  16.577  0.00  0.00    +0.000 C 
BRANCH  20  22
ATOM     22  N   UNL     1       3.402   3.933  18.885  0.00  0.00    +0.000 N 
ATOM     23  C   UNL     1       2.926   4.884  19.757  0.00  0.00    +0.000 C 
ATOM     24  O   UNL     1       3.162   6.080  19.653  0.00  0.00    +0.000 OA
ATOM     25  H   UNL     1       3.206   2.959  19.070  0.00  0.00    +0.000 HD
BRANCH  23  26
ATOM     26  C   UNL     1       2.078   4.403  20.883  0.00  0.00    +0.000 C 
ATOM     27  C   UNL     1       1.070   3.284  20.747  0.00  0.00    +0.000 C 
ATOM     28  C   UNL     1       2.320   3.072  21.554  0.00  0.00    +0.000 C 
ENDBRANCH  23  26
ENDBRANCH  20  22
ENDBRANCH  19  20
ENDBRANCH   4  19
TORSDOF 8
ENDMDL
MODEL 2
REMARK VINA RESULT:      -8.0      1.435      1.650
REMARK  Name = 
REMARK  11 active torsions:
REMARK  status: ('A' for Active; 'I' for Inactive)
REMARK    1  A    between atoms: C_1  and  O_2
REMARK    2  A    between atoms: O_2  and  C_3
REMARK    3  A    between atoms: C_6  and  C_7
REMARK    4  A    between atoms: C_8  and  C_9
REMARK    5  A    between atoms: C_12  and  C_13
REMARK    6  A    between atoms: C_13  and  C_14
REMARK    7  A    between atoms: C_14  and  C_15
REMARK    8  A    between atoms: C_14  and  N_16
REMARK    9  A    between atoms: C_17  and  C_19
REMARK   10  A    between atoms: C_25  and  O_26
REMARK   11  A    between atoms: O_26  and  C_27
REMARK                            x       y       z     vdW  Elec       q    Type
REMARK                         _______ _______ _______ _____ _____    ______ ____
ROOT
ATOM      1  C   UNL     1       7.502   7.429  18.011  0.00  0.00    +0.000 A 
ATOM      2  C   UNL     1       6.470   7.471  17.077  0.00  0.00    +0.000 A 
ATOM      3  C   UNL     1       5.700   6.327  16.838  0.00  0.00    +0.000 A 
ATOM      4  C   UNL     1       5.965   5.132  17.520  0.00  0.00    +0.000 A 
ATOM      5  C   UNL     1       7.024   5.098  18.439  0.00  0.00    +0.000 A 
ATOM      6  C   UNL     1       7.783   6.244  18.690  0.00  0.00    +0.000 A 
ENDROOT
BRANCH   1   8
ATOM      7  C   UNL     1       8.901   9.594  18.519  0.00  0.00    +0.000 C 
ATOM      8  C   UNL     1       8.274   8.599  18.300  0.00  0.00    +0.000 C 
BRANCH   7  12
ATOM      9  C   UNL     1      11.097  13.144  19.151  0.00  0.00    +0.000 A 
ATOM     10  C   UNL     1      11.172  12.448  17.930  0.00  0.00    +0.000 A 
ATOM     11  C   UNL     1      10.432  11.292  17.716  0.00  0.00    +0.000 A 
ATOM     12  C   UNL     1       9.675  10.768  18.751  0.00  0.00    +0.000 A 
ATOM     13  C   UNL     1       9.667  11.392  19.998  0.00  0.00    +0.000 A 
ATOM     14  C   UNL     1      10.371  12.587  20.212  0.00  0.00    +0.000 A 
BRANCH   9  16
ATOM     15  C   UNL     1      11.034  15.466  18.731  0.00  0.00    +0.000 C 
ATOM     16  O   UNL     1      11.732  14.350  19.292  0.00  0.00    +0.000 OA
ENDBRANCH   9  16
BRANCH  14  17
ATOM     17  O   UNL     1      10.201  13.044  21.494  0.00  0.00    +0.000 OA
ATOM     18  C   UNL     1       9.014  12.714  22.198  0.00  0.00    +0.000 C 
ENDBRANCH  14  17
ENDBRANCH   7  12
ENDBRANCH   1   8
BRANCH   4  19
ATOM     19  C   UNL     1       5.094   3.909  17.314  0.00  0.00    +0.000 C 
BRANCH  19  20
ATOM     20  C   UNL     1       3.603   4.106  17.665  0.00  0.00    +0.000 C 
ATOM     21  C   UNL     1       2.685   3.346  16.711  0.00  0.00    +0.000 C 
BRANCH  20  22
ATOM     22  N   UNL     1       3.318   3.682  19.035  0.00  0.00    +0.000 N 
ATOM     23  C   UNL     1       2.462   4.381  19.854  0.00  0.00    +0.000 C 
ATOM     24  O   UNL     1       1.865   5.391  19.508  0.00  0.00    +0.000 OA
ATOM     25  H   UNL     1       3.814   2.887  19.412  0.00  0.00    +0.000 HD
BRANCH  23  26
ATOM     26  C   UNL     1       2.268   3.855  21.234  0.00  0.00    +0.000 C 
ATOM     27  C   UNL     1       1.268   2.775  21.581  0.00  0.00    +0.000 C 
ATOM     28  C   UNL     1       2.740   2.478  21.639  0.00  0.00    +0.000 C 
ENDBRANCH  23  26
ENDBRANCH  20  22
ENDBRANCH  19  20
ENDBRANCH   4  19
TORSDOF 8
ENDMDL
MODEL 3
REMARK VINA RESULT:      -8.0      2.002      2.581
REMARK  Name = 
REMARK  11 active torsions:
REMARK  status: ('A' for Active; 'I' for Inactive)
REMARK    1  A    between atoms: C_1  and  O_2
REMARK    2  A    between atoms: O_2  and  C_3
REMARK    3  A    between atoms: C_6  and  C_7
REMARK    4  A    between atoms: C_8  and  C_9
REMARK    5  A    between atoms: C_12  and  C_13
REMARK    6  A    between atoms: C_13  and  C_14
REMARK    7  A    between atoms: C_14  and  C_15
REMARK    8  A    between atoms: C_14  and  N_16
REMARK    9  A    between atoms: C_17  and  C_19
REMARK   10  A    between atoms: C_25  and  O_26
REMARK   11  A    between atoms: O_26  and  C_27
REMARK                            x       y       z     vdW  Elec       q    Type
REMARK                         _______ _______ _______ _____ _____    ______ ____
ROOT
ATOM      1  C   UNL     1       7.316   7.238  17.575  0.00  0.00    +0.000 A 
ATOM      2  C   UNL     1       6.338   7.310  16.585  0.00  0.00    +0.000 A 
ATOM      3  C   UNL     1       5.650   6.154  16.200  0.00  0.00    +0.000 A 
ATOM      4  C   UNL     1       5.944   4.917  16.791  0.00  0.00    +0.000 A 
ATOM      5  C   UNL     1       6.949   4.855  17.768  0.00  0.00    +0.000 A 
ATOM      6  C   UNL     1       7.625   6.012  18.164  0.00  0.00    +0.000 A 
ENDROOT
BRANCH   1   8
ATOM      7  C   UNL     1       8.594   9.396  18.352  0.00  0.00    +0.000 C 
ATOM      8  C   UNL     1       8.001   8.415  18.012  0.00  0.00    +0.000 C 
BRANCH   7  12
ATOM      9  C   UNL     1      10.869  12.718  19.626  0.00  0.00    +0.000 A 
ATOM     10  C   UNL     1      10.345  11.796  20.551  0.00  0.00    +0.000 A 
ATOM     11  C   UNL     1       9.615  10.692  20.129  0.00  0.00    +0.000 A 
ATOM     12  C   UNL     1       9.325  10.543  18.782  0.00  0.00    +0.000 A 
ATOM     13  C   UNL     1       9.753  11.500  17.864  0.00  0.00    +0.000 A 
ATOM     14  C   UNL     1      10.533  12.594  18.271  0.00  0.00    +0.000 A 
BRANCH   9  16
ATOM     15  C   UNL     1      11.020  14.893  20.530  0.00  0.00    +0.000 C 
ATOM     16  O   UNL     1      11.694  13.724  20.054  0.00  0.00    +0.000 OA
ENDBRANCH   9  16
BRANCH  14  17
ATOM     17  O   UNL     1      10.871  13.390  17.207  0.00  0.00    +0.000 OA
ATOM     18  C   UNL     1      12.212  13.402  16.745  0.00  0.00    +0.000 C 
ENDBRANCH  14  17
ENDBRANCH   7  12
ENDBRANCH   1   8
BRANCH   4  19
ATOM     19  C   UNL     1       5.157   3.675  16.425  0.00  0.00    +0.000 C 
BRANCH  19  20
ATOM     20  C   UNL     1       3.870   3.454  17.248  0.00  0.00    +0.000 C 
ATOM     21  C   UNL     1       4.051   2.381  18.319  0.00  0.00    +0.000 C 
BRANCH  20  22
ATOM     22  N   UNL     1       3.429   4.692  17.890  0.00  0.00    +0.000 N 
ATOM     23  C   UNL     1       2.107   5.070  17.919  0.00  0.00    +0.000 C 
ATOM     24  O   UNL     1       1.200   4.409  17.432  0.00  0.00    +0.000 OA
ATOM     25  H   UNL     1       4.125   5.320  18.267  0.00  0.00    +0.000 HD
BRANCH  23  26
ATOM     26  C   UNL     1       1.789   6.363  18.587  0.00  0.00    +0.000 C 
ATOM     27  C   UNL     1       2.226   6.702  19.995  0.00  0.00    +0.000 C 
ATOM     28  C   UNL     1       2.842   7.420  18.827  0.00  0.00    +0.000 C 
ENDBRANCH  23  26
ENDBRANCH  20  22
ENDBRANCH  19  20
ENDBRANCH   4  19
TORSDOF 8
ENDMDL
MODEL 4
REMARK VINA RESULT:      -7.9      0.650      1.134
REMARK  Name = 
REMARK  11 active torsions:
REMARK  status: ('A' for Active; 'I' for Inactive)
REMARK    1  A    between atoms: C_1  and  O_2
REMARK    2  A    between atoms: O_2  and  C_3
REMARK    3  A    between atoms: C_6  and  C_7
REMARK    4  A    between atoms: C_8  and  C_9
REMARK    5  A    between atoms: C_12  and  C_13
REMARK    6  A    between atoms: C_13  and  C_14
REMARK    7  A    between atoms: C_14  and  C_15
REMARK    8  A    between atoms: C_14  and  N_16
REMARK    9  A    between atoms: C_17  and  C_19
REMARK   10  A    between atoms: C_25  and  O_26
REMARK   11  A    between atoms: O_26  and  C_27
REMARK                            x       y       z     vdW  Elec       q    Type
REMARK                         _______ _______ _______ _____ _____    ______ ____
ROOT
ATOM      1  C   UNL     1       7.716   7.979  17.998  0.00  0.00    +0.000 A 
ATOM      2  C   UNL     1       8.153   6.885  18.743  0.00  0.00    +0.000 A 
ATOM      3  C   UNL     1       7.467   5.668  18.661  0.00  0.00    +0.000 A 
ATOM      4  C   UNL     1       6.334   5.541  17.845  0.00  0.00    +0.000 A 
ATOM      5  C   UNL     1       5.891   6.657  17.121  0.00  0.00    +0.000 A 
ATOM      6  C   UNL     1       6.585   7.868  17.191  0.00  0.00    +0.000 A 
ENDROOT
BRANCH   1   8
ATOM      7  C   UNL     1       9.014  10.261  18.100  0.00  0.00    +0.000 C 
ATOM      8  C   UNL     1       8.428   9.220  18.037  0.00  0.00    +0.000 C 
BRANCH   7  12
ATOM      9  C   UNL     1      10.957  14.009  18.154  0.00  0.00    +0.000 A 
ATOM     10  C   UNL     1      11.641  12.839  17.774  0.00  0.00    +0.000 A 
ATOM     11  C   UNL     1      10.994  11.609  17.736  0.00  0.00    +0.000 A 
ATOM     12  C   UNL     1       9.678  11.520  18.162  0.00  0.00    +0.000 A 
ATOM     13  C   UNL     1       9.018  12.653  18.635  0.00  0.00    +0.000 A 
ATOM     14  C   UNL     1       9.644  13.909  18.633  0.00  0.00    +0.000 A 
BRANCH   9  16
ATOM     15  C   UNL     1      11.370  15.911  16.819  0.00  0.00    +0.000 C 
ATOM     16  O   UNL     1      11.578  15.226  18.058  0.00  0.00    +0.000 OA
ENDBRANCH   9  16
BRANCH  14  17
ATOM     17  O   UNL     1       8.806  14.885  19.106  0.00  0.00    +0.000 OA
ATOM     18  C   UNL     1       8.304  14.790  20.430  0.00  0.00    +0.000 C 
ENDBRANCH  14  17
ENDBRANCH   7  12
ENDBRANCH   1   8
BRANCH   4  19
ATOM     19  C   UNL     1       5.627   4.208  17.701  0.00  0.00    +0.000 C 
BRANCH  19  20
ATOM     20  C   UNL     1       4.089   4.270  17.832  0.00  0.00    +0.000 C 
ATOM     21  C   UNL     1       3.390   3.410  16.782  0.00  0.00    +0.000 C 
BRANCH  20  22
ATOM     22  N   UNL     1       3.651   3.845  19.161  0.00  0.00    +0.000 N 
ATOM     23  C   UNL     1       2.601   4.448  19.812  0.00  0.00    +0.000 C 
ATOM     24  O   UNL     1       1.945   5.367  19.339  0.00  0.00    +0.000 OA
ATOM     25  H   UNL     1       4.176   3.128  19.641  0.00  0.00    +0.000 HD
BRANCH  23  26
ATOM     26  C   UNL     1       2.263   3.935  21.169  0.00  0.00    +0.000 C 
ATOM     27  C   UNL     1       1.229   2.858  21.419  0.00  0.00    +0.000 C 
ATOM     28  C   UNL     1       2.686   2.560  21.632  0.00  0.00    +0.000 C 
ENDBRANCH  23  26
ENDBRANCH  20  22
ENDBRANCH  19  20
ENDBRANCH   4  19
TORSDOF 8
ENDMDL
MODEL 5
REMARK VINA RESULT:      -7.9      1.153      1.286
REMARK  Name = 
REMARK  11 active torsions:
REMARK  status: ('A' for Active; 'I' for Inactive)
REMARK    1  A    between atoms: C_1  and  O_2
REMARK    2  A    between atoms: O_2  and  C_3
REMARK    3  A    between atoms: C_6  and  C_7
REMARK    4  A    between atoms: C_8  and  C_9
REMARK    5  A    between atoms: C_12  and  C_13
REMARK    6  A    between atoms: C_13  and  C_14
REMARK    7  A    between atoms: C_14  and  C_15
REMARK    8  A    between atoms: C_14  and  N_16
REMARK    9  A    between atoms: C_17  and  C_19
REMARK   10  A    between atoms: C_25  and  O_26
REMARK   11  A    between atoms: O_26  and  C_27
REMARK                            x       y       z     vdW  Elec       q    Type
REMARK                         _______ _______ _______ _____ _____    ______ ____
ROOT
ATOM      1  C   UNL     1       7.988   8.166  18.093  0.00  0.00    +0.000 A 
ATOM      2  C   UNL     1       7.003   7.941  17.133  0.00  0.00    +0.000 A 
ATOM      3  C   UNL     1       6.371   6.694  17.063  0.00  0.00    +0.000 A 
ATOM      4  C   UNL     1       6.730   5.662  17.941  0.00  0.00    +0.000 A 
ATOM      5  C   UNL     1       7.741   5.895  18.885  0.00  0.00    +0.000 A 
ATOM      6  C   UNL     1       8.360   7.145  18.966  0.00  0.00    +0.000 A 
ENDROOT
BRANCH   1   8
ATOM      7  C   UNL     1       9.146  10.517  18.272  0.00  0.00    +0.000 C 
ATOM      8  C   UNL     1       8.615   9.447  18.208  0.00  0.00    +0.000 C 
BRANCH   7  12
ATOM      9  C   UNL     1      11.093  14.262  18.396  0.00  0.00    +0.000 A 
ATOM     10  C   UNL     1      11.754  13.112  17.925  0.00  0.00    +0.000 A 
ATOM     11  C   UNL     1      11.105  11.884  17.864  0.00  0.00    +0.000 A 
ATOM     12  C   UNL     1       9.815  11.773  18.357  0.00  0.00    +0.000 A 
ATOM     13  C   UNL     1       9.182  12.881  18.918  0.00  0.00    +0.000 A 
ATOM     14  C   UNL     1       9.808  14.137  18.940  0.00  0.00    +0.000 A 
BRANCH   9  16
ATOM     15  C   UNL     1      11.625  16.124  17.047  0.00  0.00    +0.000 C 
ATOM     16  O   UNL     1      11.709  15.483  18.323  0.00  0.00    +0.000 OA
ENDBRANCH   9  16
BRANCH  14  17
ATOM     17  O   UNL     1       8.998  15.089  19.504  0.00  0.00    +0.000 OA
ATOM     18  C   UNL     1       7.975  14.689  20.402  0.00  0.00    +0.000 C 
ENDBRANCH  14  17
ENDBRANCH   7  12
ENDBRANCH   1   8
BRANCH   4  19
ATOM     19  C   UNL     1       6.004   4.331  17.913  0.00  0.00    +0.000 C 
BRANCH  19  20
ATOM     20  C   UNL     1       4.916   4.206  16.825  0.00  0.00    +0.000 C 
ATOM     21  C   UNL     1       5.463   3.600  15.535  0.00  0.00    +0.000 C 
BRANCH  20  22
ATOM     22  N   UNL     1       3.790   3.395  17.289  0.00  0.00    +0.000 N 
ATOM     23  C   UNL     1       2.654   3.958  17.820  0.00  0.00    +0.000 C 
ATOM     24  O   UNL     1       2.484   5.164  17.937  0.00  0.00    +0.000 OA
ATOM     25  H   UNL     1       3.877   2.389  17.276  0.00  0.00    +0.000 HD
BRANCH  23  26
ATOM     26  C   UNL     1       1.585   3.024  18.273  0.00  0.00    +0.000 C 
ATOM     27  C   UNL     1       1.776   2.016  19.384  0.00  0.00    +0.000 C 
ATOM     28  C   UNL     1       0.876   3.201  19.595  0.00  0.00    +0.000 C 
ENDBRANCH  23  26
ENDBRANCH  20  22
ENDBRANCH  19  20
ENDBRANCH   4  19
TORSDOF 8
ENDMDL
MODEL 6
REMARK VINA RESULT:      -7.8      1.016      1.068
REMARK  Name = 
REMARK  11 active torsions:
REMARK  status: ('A' for Active; 'I' for Inactive)
REMARK    1  A    between atoms: C_1  and  O_2
REMARK    2  A    between atoms: O_2  and  C_3
REMARK    3  A    between atoms: C_6  and  C_7
REMARK    4  A    between atoms: C_8  and  C_9
REMARK    5  A    between atoms: C_12  and  C_13
REMARK    6  A    between atoms: C_13  and  C_14
REMARK    7  A    between atoms: C_14  and  C_15
REMARK    8  A    between atoms: C_14  and  N_16
REMARK    9  A    between atoms: C_17  and  C_19
REMARK   10  A    between atoms: C_25  and  O_26
REMARK   11  A    between atoms: O_26  and  C_27
REMARK                            x       y       z     vdW  Elec       q    Type
REMARK                         _______ _______ _______ _____ _____    ______ ____
ROOT
ATOM      1  C   UNL     1       7.783   7.874  18.047  0.00  0.00    +0.000 A 
ATOM      2  C   UNL     1       6.720   7.728  17.158  0.00  0.00    +0.000 A 
ATOM      3  C   UNL     1       6.038   6.508  17.083  0.00  0.00    +0.000 A 
ATOM      4  C   UNL     1       6.422   5.424  17.885  0.00  0.00    +0.000 A 
ATOM      5  C   UNL     1       7.511   5.579  18.756  0.00  0.00    +0.000 A 
ATOM      6  C   UNL     1       8.182   6.801  18.843  0.00  0.00    +0.000 A 
ENDROOT
BRANCH   1   8
ATOM      7  C   UNL     1       9.057  10.158  18.291  0.00  0.00    +0.000 C 
ATOM      8  C   UNL     1       8.466   9.126  18.169  0.00  0.00    +0.000 C 
BRANCH   7  12
ATOM      9  C   UNL     1      11.137  13.810  18.702  0.00  0.00    +0.000 A 
ATOM     10  C   UNL     1      11.683  12.603  19.178  0.00  0.00    +0.000 A 
ATOM     11  C   UNL     1      11.007  11.399  19.022  0.00  0.00    +0.000 A 
ATOM     12  C   UNL     1       9.737  11.399  18.468  0.00  0.00    +0.000 A 
ATOM     13  C   UNL     1       9.142  12.599  18.082  0.00  0.00    +0.000 A 
ATOM     14  C   UNL     1       9.833  13.816  18.189  0.00  0.00    +0.000 A 
BRANCH   9  16
ATOM     15  C   UNL     1      11.745  15.713  19.959  0.00  0.00    +0.000 C 
ATOM     16  O   UNL     1      11.878  14.961  18.749  0.00  0.00    +0.000 OA
ENDBRANCH   9  16
BRANCH  14  17
ATOM     17  O   UNL     1       9.078  14.862  17.724  0.00  0.00    +0.000 OA
ATOM     18  C   UNL     1       7.778  15.070  18.252  0.00  0.00    +0.000 C 
ENDBRANCH  14  17
ENDBRANCH   7  12
ENDBRANCH   1   8
BRANCH   4  19
ATOM     19  C   UNL     1       5.647   4.123  17.855  0.00  0.00    +0.000 C 
BRANCH  19  20
ATOM     20  C   UNL     1       4.116   4.280  17.731  0.00  0.00    +0.000 C 
ATOM     21  C   UNL     1       3.512   3.261  16.767  0.00  0.00    +0.000 C 
BRANCH  20  22
ATOM     22  N   UNL     1       3.459   4.149  19.031  0.00  0.00    +0.000 N 
ATOM     23  C   UNL     1       2.103   4.314  19.185  0.00  0.00    +0.000 C 
ATOM     24  O   UNL     1       1.340   4.568  18.263  0.00  0.00    +0.000 OA
ATOM     25  H   UNL     1       4.029   3.994  19.851  0.00  0.00    +0.000 HD
BRANCH  23  26
ATOM     26  C   UNL     1       1.558   4.172  20.565  0.00  0.00    +0.000 C 
ATOM     27  C   UNL     1       1.124   2.849  21.156  0.00  0.00    +0.000 C 
ATOM     28  C   UNL     1       2.356   3.534  21.678  0.00  0.00    +0.000 C 
ENDBRANCH  23  26
ENDBRANCH  20  22
ENDBRANCH  19  20
ENDBRANCH   4  19
TORSDOF 8
ENDMDL
MODEL 7
REMARK VINA RESULT:      -7.8      1.733      2.353
REMARK  Name = 
REMARK  11 active torsions:
REMARK  status: ('A' for Active; 'I' for Inactive)
REMARK    1  A    between atoms: C_1  and  O_2
REMARK    2  A    between atoms: O_2  and  C_3
REMARK    3  A    between atoms: C_6  and  C_7
REMARK    4  A    between atoms: C_8  and  C_9
REMARK    5  A    between atoms: C_12  and  C_13
REMARK    6  A    between atoms: C_13  and  C_14
REMARK    7  A    between atoms: C_14  and  C_15
REMARK    8  A    between atoms: C_14  and  N_16
REMARK    9  A    between atoms: C_17  and  C_19
REMARK   10  A    between atoms: C_25  and  O_26
REMARK   11  A    between atoms: O_26  and  C_27
REMARK                            x       y       z     vdW  Elec       q    Type
REMARK                         _______ _______ _______ _____ _____    ______ ____
ROOT
ATOM      1  C   UNL     1       7.350   7.201  17.801  0.00  0.00    +0.000 A 
ATOM      2  C   UNL     1       7.702   5.947  18.296  0.00  0.00    +0.000 A 
ATOM      3  C   UNL     1       6.973   4.816  17.910  0.00  0.00    +0.000 A 
ATOM      4  C   UNL     1       5.880   4.934  17.040  0.00  0.00    +0.000 A 
ATOM      5  C   UNL     1       5.522   6.206  16.570  0.00  0.00    +0.000 A 
ATOM      6  C   UNL     1       6.260   7.333  16.942  0.00  0.00    +0.000 A 
ENDROOT
BRANCH   1   8
ATOM      7  C   UNL     1       8.717   9.347  18.454  0.00  0.00    +0.000 C 
ATOM      8  C   UNL     1       8.109   8.362  18.150  0.00  0.00    +0.000 C 
BRANCH   7  12
ATOM      9  C   UNL     1      10.734  12.940  19.377  0.00  0.00    +0.000 A 
ATOM     10  C   UNL     1      10.772  12.395  18.080  0.00  0.00    +0.000 A 
ATOM     11  C   UNL     1      10.089  11.224  17.773  0.00  0.00    +0.000 A 
ATOM     12  C   UNL     1       9.433  10.536  18.780  0.00  0.00    +0.000 A 
ATOM     13  C   UNL     1       9.469  11.010  20.090  0.00  0.00    +0.000 A 
ATOM     14  C   UNL     1      10.113  12.217  20.405  0.00  0.00    +0.000 A 
BRANCH   9  16
ATOM     15  C   UNL     1      10.755  15.244  18.869  0.00  0.00    +0.000 C 
ATOM     16  O   UNL     1      11.304  14.160  19.624  0.00  0.00    +0.000 OA
ENDBRANCH   9  16
BRANCH  14  17
ATOM     17  O   UNL     1       9.999  12.511  21.739  0.00  0.00    +0.000 OA
ATOM     18  C   UNL     1       8.955  13.366  22.177  0.00  0.00    +0.000 C 
ENDBRANCH  14  17
ENDBRANCH   7  12
ENDBRANCH   1   8
BRANCH   4  19
ATOM     19  C   UNL     1       5.128   3.706  16.567  0.00  0.00    +0.000 C 
BRANCH  19  20
ATOM     20  C   UNL     1       3.823   3.406  17.336  0.00  0.00    +0.000 C 
ATOM     21  C   UNL     1       3.734   1.943  17.763  0.00  0.00    +0.000 C 
BRANCH  20  22
ATOM     22  N   UNL     1       3.697   4.253  18.522  0.00  0.00    +0.000 N 
ATOM     23  C   UNL     1       2.625   5.095  18.709  0.00  0.00    +0.000 C 
ATOM     24  O   UNL     1       1.695   5.195  17.921  0.00  0.00    +0.000 OA
ATOM     25  H   UNL     1       4.452   4.267  19.193  0.00  0.00    +0.000 HD
BRANCH  23  26
ATOM     26  C   UNL     1       2.622   5.920  19.949  0.00  0.00    +0.000 C 
ATOM     27  C   UNL     1       2.075   7.328  20.011  0.00  0.00    +0.000 C 
ATOM     28  C   UNL     1       1.351   6.213  20.711  0.00  0.00    +0.000 C 
ENDBRANCH  23  26
ENDBRANCH  20  22
ENDBRANCH  19  20
ENDBRANCH   4  19
TORSDOF 8
ENDMDL
MODEL 8
REMARK VINA RESULT:      -7.8      1.847      2.566
REMARK  Name = 
REMARK  11 active torsions:
REMARK  status: ('A' for Active; 'I' for Inactive)
REMARK    1  A    between atoms: C_1  and  O_2
REMARK    2  A    between atoms: O_2  and  C_3
REMARK    3  A    between atoms: C_6  and  C_7
REMARK    4  A    between atoms: C_8  and  C_9
REMARK    5  A    between atoms: C_12  and  C_13
REMARK    6  A    between atoms: C_13  and  C_14
REMARK    7  A    between atoms: C_14  and  C_15
REMARK    8  A    between atoms: C_14  and  N_16
REMARK    9  A    between atoms: C_17  and  C_19
REMARK   10  A    between atoms: C_25  and  O_26
REMARK   11  A    between atoms: O_26  and  C_27
REMARK                            x       y       z     vdW  Elec       q    Type
REMARK                         _______ _______ _______ _____ _____    ______ ____
ROOT
ATOM      1  C   UNL     1       7.344   7.179  17.854  0.00  0.00    +0.000 A 
ATOM      2  C   UNL     1       7.681   5.932  18.377  0.00  0.00    +0.000 A 
ATOM      3  C   UNL     1       6.949   4.800  18.004  0.00  0.00    +0.000 A 
ATOM      4  C   UNL     1       5.867   4.909  17.119  0.00  0.00    +0.000 A 
ATOM      5  C   UNL     1       5.524   6.174  16.621  0.00  0.00    +0.000 A 
ATOM      6  C   UNL     1       6.265   7.303  16.981  0.00  0.00    +0.000 A 
ENDROOT
BRANCH   1   8
ATOM      7  C   UNL     1       8.742   9.307  18.503  0.00  0.00    +0.000 C 
ATOM      8  C   UNL     1       8.108   8.342  18.191  0.00  0.00    +0.000 C 
BRANCH   7  12
ATOM      9  C   UNL     1      10.976  12.697  19.663  0.00  0.00    +0.000 A 
ATOM     10  C   UNL     1      10.094  12.064  20.559  0.00  0.00    +0.000 A 
ATOM     11  C   UNL     1       9.376  10.935  20.182  0.00  0.00    +0.000 A 
ATOM     12  C   UNL     1       9.464  10.477  18.878  0.00  0.00    +0.000 A 
ATOM     13  C   UNL     1      10.257  11.153  17.951  0.00  0.00    +0.000 A 
ATOM     14  C   UNL     1      11.025  12.264  18.331  0.00  0.00    +0.000 A 
BRANCH   9  16
ATOM     15  C   UNL     1      11.077  14.766  20.795  0.00  0.00    +0.000 C 
ATOM     16  O   UNL     1      11.769  13.726  20.096  0.00  0.00    +0.000 OA
ENDBRANCH   9  16
BRANCH  14  17
ATOM     17  O   UNL     1      11.753  12.753  17.276  0.00  0.00    +0.000 OA
ATOM     18  C   UNL     1      11.301  13.913  16.597  0.00  0.00    +0.000 C 
ENDBRANCH  14  17
ENDBRANCH   7  12
ENDBRANCH   1   8
BRANCH   4  19
ATOM     19  C   UNL     1       5.112   3.677  16.660  0.00  0.00    +0.000 C 
BRANCH  19  20
ATOM     20  C   UNL     1       3.743   3.462  17.342  0.00  0.00    +0.000 C 
ATOM     21  C   UNL     1       3.508   1.999  17.706  0.00  0.00    +0.000 C 
BRANCH  20  22
ATOM     22  N   UNL     1       3.616   4.277  18.551  0.00  0.00    +0.000 N 
ATOM     23  C   UNL     1       2.753   5.345  18.626  0.00  0.00    +0.000 C 
ATOM     24  O   UNL     1       2.020   5.691  17.710  0.00  0.00    +0.000 OA
ATOM     25  H   UNL     1       4.228   4.087  19.332  0.00  0.00    +0.000 HD
BRANCH  23  26
ATOM     26  C   UNL     1       2.730   6.105  19.906  0.00  0.00    +0.000 C 
ATOM     27  C   UNL     1       1.921   7.368  20.110  0.00  0.00    +0.000 C 
ATOM     28  C   UNL     1       1.523   6.103  20.816  0.00  0.00    +0.000 C 
ENDBRANCH  23  26
ENDBRANCH  20  22
ENDBRANCH  19  20
ENDBRANCH   4  19
TORSDOF 8
ENDMDL
MODEL 9
REMARK VINA RESULT:      -7.7      1.482      2.043
REMARK  Name = 
REMARK  11 active torsions:
REMARK  status: ('A' for Active; 'I' for Inactive)
REMARK    1  A    between atoms: C_1  and  O_2
REMARK    2  A    between atoms: O_2  and  C_3
REMARK    3  A    between atoms: C_6  and  C_7
REMARK    4  A    between atoms: C_8  and  C_9
REMARK    5  A    between atoms: C_12  and  C_13
REMARK    6  A    between atoms: C_13  and  C_14
REMARK    7  A    between atoms: C_14  and  C_15
REMARK    8  A    between atoms: C_14  and  N_16
REMARK    9  A    between atoms: C_17  and  C_19
REMARK   10  A    between atoms: C_25  and  O_26
REMARK   11  A    between atoms: O_26  and  C_27
REMARK                            x       y       z     vdW  Elec       q    Type
REMARK                         _______ _______ _______ _____ _____    ______ ____
ROOT
ATOM      1  C   UNL     1       7.173   7.224  17.668  0.00  0.00    +0.000 A 
ATOM      2  C   UNL     1       7.630   5.997  18.143  0.00  0.00    +0.000 A 
ATOM      3  C   UNL     1       6.941   4.823  17.816  0.00  0.00    +0.000 A 
ATOM      4  C   UNL     1       5.785   4.870  17.025  0.00  0.00    +0.000 A 
ATOM      5  C   UNL     1       5.323   6.116  16.575  0.00  0.00    +0.000 A 
ATOM      6  C   UNL     1       6.019   7.286  16.888  0.00  0.00    +0.000 A 
ENDROOT
BRANCH   1   8
ATOM      7  C   UNL     1       8.481   9.432  18.229  0.00  0.00    +0.000 C 
ATOM      8  C   UNL     1       7.887   8.430  17.956  0.00  0.00    +0.000 C 
BRANCH   7  12
ATOM      9  C   UNL     1      10.567  12.997  19.104  0.00  0.00    +0.000 A 
ATOM     10  C   UNL     1      10.889  11.788  19.747  0.00  0.00    +0.000 A 
ATOM     11  C   UNL     1      10.216  10.611  19.442  0.00  0.00    +0.000 A 
ATOM     12  C   UNL     1       9.153  10.646  18.554  0.00  0.00    +0.000 A 
ATOM     13  C   UNL     1       8.758  11.855  17.984  0.00  0.00    +0.000 A 
ATOM     14  C   UNL     1       9.460  13.042  18.246  0.00  0.00    +0.000 A 
BRANCH   9  16
ATOM     15  C   UNL     1      12.332  14.362  18.335  0.00  0.00    +0.000 C 
ATOM     16  O   UNL     1      11.329  14.114  19.324  0.00  0.00    +0.000 OA
ENDBRANCH   9  16
BRANCH  14  17
ATOM     17  O   UNL     1       8.924  14.101  17.559  0.00  0.00    +0.000 OA
ATOM     18  C   UNL     1       7.715  14.687  18.015  0.00  0.00    +0.000 C 
ENDBRANCH  14  17
ENDBRANCH   7  12
ENDBRANCH   1   8
BRANCH   4  19
ATOM     19  C   UNL     1       5.073   3.597  16.614  0.00  0.00    +0.000 C 
BRANCH  19  20
ATOM     20  C   UNL     1       3.800   3.272  17.426  0.00  0.00    +0.000 C 
ATOM     21  C   UNL     1       3.797   1.832  17.933  0.00  0.00    +0.000 C 
BRANCH  20  22
ATOM     22  N   UNL     1       3.651   4.176  18.566  0.00  0.00    +0.000 N 
ATOM     23  C   UNL     1       2.420   4.498  19.087  0.00  0.00    +0.000 C 
ATOM     24  O   UNL     1       1.363   4.054  18.660  0.00  0.00    +0.000 OA
ATOM     25  H   UNL     1       4.473   4.627  18.941  0.00  0.00    +0.000 HD
BRANCH  23  26
ATOM     26  C   UNL     1       2.400   5.444  20.239  0.00  0.00    +0.000 C 
ATOM     27  C   UNL     1       2.260   6.942  20.082  0.00  0.00    +0.000 C 
ATOM     28  C   UNL     1       1.135   6.143  20.677  0.00  0.00    +0.000 C 
ENDBRANCH  23  26
ENDBRANCH  20  22
ENDBRANCH  19  20
ENDBRANCH   4  19
TORSDOF 8
ENDMDL
