MODEL 1
REMARK VINA RESULT:      -7.2      0.000      0.000
REMARK  Name = 
REMARK  17 active torsions:
REMARK  status: ('A' for Active; 'I' for Inactive)
REMARK    1  A    between atoms: C_1  and  O_2
REMARK    2  A    between atoms: O_2  and  C_3
REMARK    3  A    between atoms: C_4  and  C_5
REMARK    4  A    between atoms: C_10  and  C_11
REMARK    5  A    between atoms: C_11  and  C_12
REMARK    6  A    between atoms: C_11  and  C_13
REMARK    7  A    between atoms: C_13  and  C_14
REMARK    8  A    between atoms: C_14  and  C_15
REMARK    9  A    between atoms: C_15  and  C_16
REMARK   10  A    between atoms: C_16  and  C_17
REMARK   11  A    between atoms: C_18  and  C_19
REMARK   12  A    between atoms: C_19  and  C_20
REMARK   13  A    between atoms: C_20  and  C_21
REMARK   14  A    between atoms: C_21  and  C_22
REMARK   15  A    between atoms: C_23  and  C_24
REMARK   16  A    between atoms: C_24  and  C_25
REMARK   17  A    between atoms: C_25  and  C_26
REMARK                            x       y       z     vdW  Elec       q    Type
REMARK                         _______ _______ _______ _____ _____    ______ ____
ROOT
ATOM      1  C   UNL     1       1.019   3.778  19.416  0.00  0.00    +0.000 C 
ENDROOT
BRANCH   1   2
ATOM      2  C   UNL     1       1.801   5.059  19.550  0.00  0.00    +0.000 C 
ATOM      3  C   UNL     1       2.257   5.476  20.929  0.00  0.00    +0.000 C 
ATOM      4  C   UNL     1       2.068   5.819  18.472  0.00  0.00    +0.000 C 
BRANCH   4   5
ATOM      5  C   UNL     1       2.825   7.110  18.573  0.00  0.00    +0.000 C 
BRANCH   5   6
ATOM      6  C   UNL     1       2.236   8.220  17.707  0.00  0.00    +0.000 C 
BRANCH   6   7
ATOM      7  C   UNL     1       1.742   9.365  18.559  0.00  0.00    +0.000 C 
ATOM      8  C   UNL     1       1.890  10.765  18.016  0.00  0.00    +0.000 C 
ATOM      9  C   UNL     1       1.173   9.133  19.756  0.00  0.00    +0.000 C 
BRANCH   9  10
ATOM     10  C   UNL     1       0.653  10.228  20.641  0.00  0.00    +0.000 C 
BRANCH  10  11
ATOM     11  C   UNL     1      -0.793  10.606  20.324  0.00  0.00    +0.000 C 
BRANCH  11  12
ATOM     12  C   UNL     1      -1.024  12.059  20.550  0.00  0.00    +0.000 A 
ATOM     13  C   UNL     1      -0.105  12.999  21.083  0.00  0.00    +0.000 A 
ATOM     14  C   UNL     1      -0.754  14.214  21.086  0.00  0.00    +0.000 A 
ATOM     15  O   UNL     1      -2.003  14.083  20.579  0.00  0.00    +0.000 OA
ATOM     16  C   UNL     1      -2.162  12.778  20.252  0.00  0.00    +0.000 A 
ENDBRANCH  11  12
ENDBRANCH  10  11
ENDBRANCH   9  10
ENDBRANCH   6   7
ENDBRANCH   5   6
ENDBRANCH   4   5
ENDBRANCH   1   2
BRANCH   1  17
ATOM     17  C   UNL     1       1.519   2.979  18.224  0.00  0.00    +0.000 C 
BRANCH  17  18
ATOM     18  C   UNL     1       2.242   1.701  18.632  0.00  0.00    +0.000 C 
BRANCH  18  19
ATOM     19  C   UNL     1       3.760   1.937  18.686  0.00  0.00    +0.000 C 
ATOM     20  C   UNL     1       4.245   2.369  20.074  0.00  0.00    +0.000 C 
BRANCH  19  28
ATOM     21  C   UNL     1       5.469   5.065  17.112  0.00  0.00    +0.000 C 
ATOM     22  C   UNL     1       6.366   5.773  17.799  0.00  0.00    +0.000 C 
ATOM     23  C   UNL     1       7.142   6.988  17.488  0.00  0.00    +0.000 C 
ATOM     24  C   UNL     1       6.515   5.086  19.081  0.00  0.00    +0.000 C 
ATOM     25  O   UNL     1       7.273   5.443  19.977  0.00  0.00    +0.000 OA
ATOM     26  O   UNL     1       5.700   3.998  19.142  0.00  0.00    +0.000 OA
ATOM     27  C   UNL     1       5.030   3.963  17.917  0.00  0.00    +0.000 C 
ATOM     28  C   UNL     1       4.135   2.995  17.680  0.00  0.00    +0.000 C 
BRANCH  21  30
ATOM     29  C   UNL     1       5.936   4.852  14.765  0.00  0.00    +0.000 C 
ATOM     30  O   UNL     1       5.117   5.341  15.818  0.00  0.00    +0.000 OA
ENDBRANCH  21  30
ENDBRANCH  19  28
ENDBRANCH  18  19
ENDBRANCH  17  18
ENDBRANCH   1  17
TORSDOF 12
ENDMDL
MODEL 2
REMARK VINA RESULT:      -7.1      2.562      9.430
REMARK  Name = 
REMARK  17 active torsions:
REMARK  status: ('A' for Active; 'I' for Inactive)
REMARK    1  A    between atoms: C_1  and  O_2
REMARK    2  A    between atoms: O_2  and  C_3
REMARK    3  A    between atoms: C_4  and  C_5
REMARK    4  A    between atoms: C_10  and  C_11
REMARK    5  A    between atoms: C_11  and  C_12
REMARK    6  A    between atoms: C_11  and  C_13
REMARK    7  A    between atoms: C_13  and  C_14
REMARK    8  A    between atoms: C_14  and  C_15
REMARK    9  A    between atoms: C_15  and  C_16
REMARK   10  A    between atoms: C_16  and  C_17
REMARK   11  A    between atoms: C_18  and  C_19
REMARK   12  A    between atoms: C_19  and  C_20
REMARK   13  A    between atoms: C_20  and  C_21
REMARK   14  A    between atoms: C_21  and  C_22
REMARK   15  A    between atoms: C_23  and  C_24
REMARK   16  A    between atoms: C_24  and  C_25
REMARK   17  A    between atoms: C_25  and  C_26
REMARK                            x       y       z     vdW  Elec       q    Type
REMARK                         _______ _______ _______ _____ _____    ______ ____
ROOT
ATOM      1  C   UNL     1       1.809   8.571  19.040  0.00  0.00    +0.000 C 
ENDROOT
BRANCH   1   2
ATOM      2  C   UNL     1       2.499   7.520  18.207  0.00  0.00    +0.000 C 
ATOM      3  C   UNL     1       2.001   6.096  18.299  0.00  0.00    +0.000 C 
ATOM      4  C   UNL     1       3.542   7.840  17.420  0.00  0.00    +0.000 C 
BRANCH   4   5
ATOM      5  C   UNL     1       4.264   6.816  16.596  0.00  0.00    +0.000 C 
BRANCH   5   6
ATOM      6  C   UNL     1       5.498   6.248  17.290  0.00  0.00    +0.000 C 
BRANCH   6   7
ATOM      7  C   UNL     1       5.233   4.856  17.812  0.00  0.00    +0.000 C 
ATOM      8  C   UNL     1       5.966   4.415  19.054  0.00  0.00    +0.000 C 
ATOM      9  C   UNL     1       4.354   4.048  17.191  0.00  0.00    +0.000 C 
BRANCH   9  10
ATOM     10  C   UNL     1       4.039   2.660  17.669  0.00  0.00    +0.000 C 
BRANCH  10  11
ATOM     11  C   UNL     1       2.544   2.437  17.888  0.00  0.00    +0.000 C 
BRANCH  11  12
ATOM     12  C   UNL     1       2.185   2.612  19.321  0.00  0.00    +0.000 A 
ATOM     13  C   UNL     1       3.061   2.559  20.436  0.00  0.00    +0.000 A 
ATOM     14  C   UNL     1       2.284   2.797  21.548  0.00  0.00    +0.000 A 
ATOM     15  O   UNL     1       0.995   3.003  21.189  0.00  0.00    +0.000 OA
ATOM     16  C   UNL     1       0.939   2.895  19.840  0.00  0.00    +0.000 A 
ENDBRANCH  11  12
ENDBRANCH  10  11
ENDBRANCH   9  10
ENDBRANCH   6   7
ENDBRANCH   5   6
ENDBRANCH   4   5
ENDBRANCH   1   2
BRANCH   1  17
ATOM     17  C   UNL     1       1.360   9.726  18.160  0.00  0.00    +0.000 C 
BRANCH  17  18
ATOM     18  C   UNL     1       1.332  11.056  18.903  0.00  0.00    +0.000 C 
BRANCH  18  19
ATOM     19  C   UNL     1      -0.075  11.331  19.458  0.00  0.00    +0.000 C 
ATOM     20  C   UNL     1      -0.324  10.651  20.809  0.00  0.00    +0.000 C 
BRANCH  19  28
ATOM     21  C   UNL     1      -3.509  10.817  17.689  0.00  0.00    +0.000 C 
ATOM     22  C   UNL     1      -4.607  11.429  18.135  0.00  0.00    +0.000 C 
ATOM     23  C   UNL     1      -6.016  11.410  17.701  0.00  0.00    +0.000 C 
ATOM     24  C   UNL     1      -4.171  12.250  19.264  0.00  0.00    +0.000 C 
ATOM     25  O   UNL     1      -4.911  12.972  19.923  0.00  0.00    +0.000 OA
ATOM     26  O   UNL     1      -2.835  12.104  19.480  0.00  0.00    +0.000 OA
ATOM     27  C   UNL     1      -2.394  11.207  18.504  0.00  0.00    +0.000 C 
ATOM     28  C   UNL     1      -1.104  10.851  18.467  0.00  0.00    +0.000 C 
BRANCH  21  30
ATOM     29  C   UNL     1      -3.111  10.586  15.331  0.00  0.00    +0.000 C 
ATOM     30  O   UNL     1      -3.486  10.018  16.578  0.00  0.00    +0.000 OA
ENDBRANCH  21  30
ENDBRANCH  19  28
ENDBRANCH  18  19
ENDBRANCH  17  18
ENDBRANCH   1  17
TORSDOF 12
ENDMDL
MODEL 3
REMARK VINA RESULT:      -7.0      1.145      1.500
REMARK  Name = 
REMARK  17 active torsions:
REMARK  status: ('A' for Active; 'I' for Inactive)
REMARK    1  A    between atoms: C_1  and  O_2
REMARK    2  A    between atoms: O_2  and  C_3
REMARK    3  A    between atoms: C_4  and  C_5
REMARK    4  A    between atoms: C_10  and  C_11
REMARK    5  A    between atoms: C_11  and  C_12
REMARK    6  A    between atoms: C_11  and  C_13
REMARK    7  A    between atoms: C_13  and  C_14
REMARK    8  A    between atoms: C_14  and  C_15
REMARK    9  A    between atoms: C_15  and  C_16
REMARK   10  A    between atoms: C_16  and  C_17
REMARK   11  A    between atoms: C_18  and  C_19
REMARK   12  A    between atoms: C_19  and  C_20
REMARK   13  A    between atoms: C_20  and  C_21
REMARK   14  A    between atoms: C_21  and  C_22
REMARK   15  A    between atoms: C_23  and  C_24
REMARK   16  A    between atoms: C_24  and  C_25
REMARK   17  A    between atoms: C_25  and  C_26
REMARK                            x       y       z     vdW  Elec       q    Type
REMARK                         _______ _______ _______ _____ _____    ______ ____
ROOT
ATOM      1  C   UNL     1       1.456   4.019  17.789  0.00  0.00    +0.000 C 
ENDROOT
BRANCH   1   2
ATOM      2  C   UNL     1       1.819   5.244  18.589  0.00  0.00    +0.000 C 
ATOM      3  C   UNL     1       1.672   5.184  20.091  0.00  0.00    +0.000 C 
ATOM      4  C   UNL     1       2.243   6.365  17.977  0.00  0.00    +0.000 C 
BRANCH   4   5
ATOM      5  C   UNL     1       2.592   7.607  18.741  0.00  0.00    +0.000 C 
BRANCH   5   6
ATOM      6  C   UNL     1       2.089   8.884  18.073  0.00  0.00    +0.000 C 
BRANCH   6   7
ATOM      7  C   UNL     1       0.949   9.492  18.856  0.00  0.00    +0.000 C 
ATOM      8  C   UNL     1       0.913   9.261  20.346  0.00  0.00    +0.000 C 
ATOM      9  C   UNL     1       0.010  10.230  18.238  0.00  0.00    +0.000 C 
BRANCH   9  10
ATOM     10  C   UNL     1      -1.138  10.870  18.963  0.00  0.00    +0.000 C 
BRANCH  10  11
ATOM     11  C   UNL     1      -1.097  12.395  18.904  0.00  0.00    +0.000 C 
BRANCH  11  12
ATOM     12  C   UNL     1      -0.610  12.964  20.191  0.00  0.00    +0.000 A 
ATOM     13  C   UNL     1      -1.345  13.756  21.110  0.00  0.00    +0.000 A 
ATOM     14  C   UNL     1      -0.489  14.029  22.154  0.00  0.00    +0.000 A 
ATOM     15  O   UNL     1       0.716  13.449  21.941  0.00  0.00    +0.000 OA
ATOM     16  C   UNL     1       0.638  12.801  20.753  0.00  0.00    +0.000 A 
ENDBRANCH  11  12
ENDBRANCH  10  11
ENDBRANCH   9  10
ENDBRANCH   6   7
ENDBRANCH   5   6
ENDBRANCH   4   5
ENDBRANCH   1   2
BRANCH   1  17
ATOM     17  C   UNL     1       1.725   2.762  18.601  0.00  0.00    +0.000 C 
BRANCH  17  18
ATOM     18  C   UNL     1       2.791   1.871  17.974  0.00  0.00    +0.000 C 
BRANCH  18  19
ATOM     19  C   UNL     1       4.192   2.306  18.435  0.00  0.00    +0.000 C 
ATOM     20  C   UNL     1       4.223   2.752  19.901  0.00  0.00    +0.000 C 
BRANCH  19  28
ATOM     21  C   UNL     1       6.115   5.495  17.291  0.00  0.00    +0.000 C 
ATOM     22  C   UNL     1       6.985   6.098  18.103  0.00  0.00    +0.000 C 
ATOM     23  C   UNL     1       7.823   7.304  17.964  0.00  0.00    +0.000 C 
ATOM     24  C   UNL     1       7.018   5.288  19.319  0.00  0.00    +0.000 C 
ATOM     25  O   UNL     1       7.722   5.528  20.295  0.00  0.00    +0.000 OA
ATOM     26  O   UNL     1       6.164   4.233  19.219  0.00  0.00    +0.000 OA
ATOM     27  C   UNL     1       5.582   4.341  17.954  0.00  0.00    +0.000 C 
ATOM     28  C   UNL     1       4.674   3.437  17.564  0.00  0.00    +0.000 C 
BRANCH  21  30
ATOM     29  C   UNL     1       4.911   6.935  15.791  0.00  0.00    +0.000 C 
ATOM     30  O   UNL     1       5.866   5.906  16.010  0.00  0.00    +0.000 OA
ENDBRANCH  21  30
ENDBRANCH  19  28
ENDBRANCH  18  19
ENDBRANCH  17  18
ENDBRANCH   1  17
TORSDOF 12
ENDMDL
MODEL 4
REMARK VINA RESULT:      -7.0      5.854      8.192
REMARK  Name = 
REMARK  17 active torsions:
REMARK  status: ('A' for Active; 'I' for Inactive)
REMARK    1  A    between atoms: C_1  and  O_2
REMARK    2  A    between atoms: O_2  and  C_3
REMARK    3  A    between atoms: C_4  and  C_5
REMARK    4  A    between atoms: C_10  and  C_11
REMARK    5  A    between atoms: C_11  and  C_12
REMARK    6  A    between atoms: C_11  and  C_13
REMARK    7  A    between atoms: C_13  and  C_14
REMARK    8  A    between atoms: C_14  and  C_15
REMARK    9  A    between atoms: C_15  and  C_16
REMARK   10  A    between atoms: C_16  and  C_17
REMARK   11  A    between atoms: C_18  and  C_19
REMARK   12  A    between atoms: C_19  and  C_20
REMARK   13  A    between atoms: C_20  and  C_21
REMARK   14  A    between atoms: C_21  and  C_22
REMARK   15  A    between atoms: C_23  and  C_24
REMARK   16  A    between atoms: C_24  and  C_25
REMARK   17  A    between atoms: C_25  and  C_26
REMARK                            x       y       z     vdW  Elec       q    Type
REMARK                         _______ _______ _______ _____ _____    ______ ____
ROOT
ATOM      1  C   UNL     1       8.096   6.269  18.835  0.00  0.00    +0.000 C 
ENDROOT
BRANCH   1   2
ATOM      2  C   UNL     1       8.035   7.682  18.314  0.00  0.00    +0.000 C 
ATOM      3  C   UNL     1       7.116   7.975  17.151  0.00  0.00    +0.000 C 
ATOM      4  C   UNL     1       8.794   8.650  18.859  0.00  0.00    +0.000 C 
BRANCH   4   5
ATOM      5  C   UNL     1       8.773  10.061  18.351  0.00  0.00    +0.000 C 
BRANCH   5   6
ATOM      6  C   UNL     1       9.243  11.079  19.387  0.00  0.00    +0.000 C 
BRANCH   6   7
ATOM      7  C   UNL     1      10.269  12.017  18.797  0.00  0.00    +0.000 C 
ATOM      8  C   UNL     1      11.180  11.481  17.722  0.00  0.00    +0.000 C 
ATOM      9  C   UNL     1      10.349  13.294  19.213  0.00  0.00    +0.000 C 
BRANCH   9  10
ATOM     10  C   UNL     1      11.339  14.276  18.657  0.00  0.00    +0.000 C 
BRANCH  10  11
ATOM     11  C   UNL     1      11.439  15.550  19.494  0.00  0.00    +0.000 C 
BRANCH  11  12
ATOM     12  C   UNL     1      10.785  16.694  18.801  0.00  0.00    +0.000 A 
ATOM     13  C   UNL     1       9.953  17.685  19.383  0.00  0.00    +0.000 A 
ATOM     14  C   UNL     1       9.600  18.540  18.363  0.00  0.00    +0.000 A 
ATOM     15  O   UNL     1      10.169  18.146  17.199  0.00  0.00    +0.000 OA
ATOM     16  C   UNL     1      10.889  17.030  17.468  0.00  0.00    +0.000 A 
ENDBRANCH  11  12
ENDBRANCH  10  11
ENDBRANCH   9  10
ENDBRANCH   6   7
ENDBRANCH   5   6
ENDBRANCH   4   5
ENDBRANCH   1   2
BRANCH   1  17
ATOM     17  C   UNL     1       6.954   5.447  18.259  0.00  0.00    +0.000 C 
BRANCH  17  18
ATOM     18  C   UNL     1       7.376   4.611  17.058  0.00  0.00    +0.000 C 
BRANCH  18  19
ATOM     19  C   UNL     1       6.148   4.210  16.225  0.00  0.00    +0.000 C 
ATOM     20  C   UNL     1       6.286   4.580  14.745  0.00  0.00    +0.000 C 
BRANCH  19  28
ATOM     21  C   UNL     1       2.727   4.691  18.028  0.00  0.00    +0.000 C 
ATOM     22  C   UNL     1       2.102   3.659  18.597  0.00  0.00    +0.000 C 
ATOM     23  C   UNL     1       0.818   3.529  19.311  0.00  0.00    +0.000 C 
ATOM     24  C   UNL     1       2.984   2.509  18.407  0.00  0.00    +0.000 C 
ATOM     25  O   UNL     1       2.745   1.376  18.813  0.00  0.00    +0.000 OA
ATOM     26  O   UNL     1       4.103   2.867  17.721  0.00  0.00    +0.000 OA
ATOM     27  C   UNL     1       3.967   4.234  17.470  0.00  0.00    +0.000 C 
ATOM     28  C   UNL     1       4.922   4.881  16.790  0.00  0.00    +0.000 C 
BRANCH  21  30
ATOM     29  C   UNL     1       2.452   6.740  19.251  0.00  0.00    +0.000 C 
ATOM     30  O   UNL     1       2.258   5.976  18.069  0.00  0.00    +0.000 OA
ENDBRANCH  21  30
ENDBRANCH  19  28
ENDBRANCH  18  19
ENDBRANCH  17  18
ENDBRANCH   1  17
TORSDOF 12
ENDMDL
MODEL 5
REMARK VINA RESULT:      -6.9      1.797      3.773
REMARK  Name = 
REMARK  17 active torsions:
REMARK  status: ('A' for Active; 'I' for Inactive)
REMARK    1  A    between atoms: C_1  and  O_2
REMARK    2  A    between atoms: O_2  and  C_3
REMARK    3  A    between atoms: C_4  and  C_5
REMARK    4  A    between atoms: C_10  and  C_11
REMARK    5  A    between atoms: C_11  and  C_12
REMARK    6  A    between atoms: C_11  and  C_13
REMARK    7  A    between atoms: C_13  and  C_14
REMARK    8  A    between atoms: C_14  and  C_15
REMARK    9  A    between atoms: C_15  and  C_16
REMARK   10  A    between atoms: C_16  and  C_17
REMARK   11  A    between atoms: C_18  and  C_19
REMARK   12  A    between atoms: C_19  and  C_20
REMARK   13  A    between atoms: C_20  and  C_21
REMARK   14  A    between atoms: C_21  and  C_22
REMARK   15  A    between atoms: C_23  and  C_24
REMARK   16  A    between atoms: C_24  and  C_25
REMARK   17  A    between atoms: C_25  and  C_26
REMARK                            x       y       z     vdW  Elec       q    Type
REMARK                         _______ _______ _______ _____ _____    ______ ____
ROOT
ATOM      1  C   UNL     1       4.671   6.990  18.026  0.00  0.00    +0.000 C 
ENDROOT
BRANCH   1   2
ATOM      2  C   UNL     1       3.272   7.488  18.284  0.00  0.00    +0.000 C 
ATOM      3  C   UNL     1       2.473   6.834  19.388  0.00  0.00    +0.000 C 
ATOM      4  C   UNL     1       2.743   8.474  17.536  0.00  0.00    +0.000 C 
BRANCH   4   5
ATOM      5  C   UNL     1       1.347   8.979  17.752  0.00  0.00    +0.000 C 
BRANCH   5   6
ATOM      6  C   UNL     1       1.280  10.170  18.704  0.00  0.00    +0.000 C 
BRANCH   6   7
ATOM      7  C   UNL     1       0.187   9.981  19.730  0.00  0.00    +0.000 C 
ATOM      8  C   UNL     1      -1.212  10.401  19.357  0.00  0.00    +0.000 C 
ATOM      9  C   UNL     1       0.461   9.437  20.930  0.00  0.00    +0.000 C 
BRANCH   9  10
ATOM     10  C   UNL     1      -0.584   9.213  21.985  0.00  0.00    +0.000 C 
BRANCH  10  11
ATOM     11  C   UNL     1      -0.432  10.160  23.174  0.00  0.00    +0.000 C 
BRANCH  11  12
ATOM     12  C   UNL     1      -1.136  11.447  22.922  0.00  0.00    +0.000 A 
ATOM     13  C   UNL     1      -0.609  12.599  22.284  0.00  0.00    +0.000 A 
ATOM     14  C   UNL     1      -1.627  13.527  22.262  0.00  0.00    +0.000 A 
ATOM     15  O   UNL     1      -2.745  13.016  22.832  0.00  0.00    +0.000 OA
ATOM     16  C   UNL     1      -2.445  11.755  23.227  0.00  0.00    +0.000 A 
ENDBRANCH  11  12
ENDBRANCH  10  11
ENDBRANCH   9  10
ENDBRANCH   6   7
ENDBRANCH   5   6
ENDBRANCH   4   5
ENDBRANCH   1   2
BRANCH   1  17
ATOM     17  C   UNL     1       4.786   6.460  16.606  0.00  0.00    +0.000 C 
BRANCH  17  18
ATOM     18  C   UNL     1       5.975   5.525  16.421  0.00  0.00    +0.000 C 
BRANCH  18  19
ATOM     19  C   UNL     1       5.520   4.058  16.496  0.00  0.00    +0.000 C 
ATOM     20  C   UNL     1       5.423   3.394  15.118  0.00  0.00    +0.000 C 
BRANCH  19  28
ATOM     21  C   UNL     1       2.785   3.250  19.152  0.00  0.00    +0.000 C 
ATOM     22  C   UNL     1       3.102   2.645  20.298  0.00  0.00    +0.000 C 
ATOM     23  C   UNL     1       2.303   2.198  21.453  0.00  0.00    +0.000 C 
ATOM     24  C   UNL     1       4.552   2.465  20.263  0.00  0.00    +0.000 C 
ATOM     25  O   UNL     1       5.210   1.950  21.161  0.00  0.00    +0.000 OA
ATOM     26  O   UNL     1       5.070   2.950  19.101  0.00  0.00    +0.000 OA
ATOM     27  C   UNL     1       3.981   3.448  18.384  0.00  0.00    +0.000 C 
ATOM     28  C   UNL     1       4.176   3.988  17.174  0.00  0.00    +0.000 C 
BRANCH  21  30
ATOM     29  C   UNL     1       0.520   2.695  18.576  0.00  0.00    +0.000 C 
ATOM     30  O   UNL     1       1.520   3.669  18.842  0.00  0.00    +0.000 OA
ENDBRANCH  21  30
ENDBRANCH  19  28
ENDBRANCH  18  19
ENDBRANCH  17  18
ENDBRANCH   1  17
TORSDOF 12
ENDMDL
MODEL 6
REMARK VINA RESULT:      -6.9      3.549      8.735
REMARK  Name = 
REMARK  17 active torsions:
REMARK  status: ('A' for Active; 'I' for Inactive)
REMARK    1  A    between atoms: C_1  and  O_2
REMARK    2  A    between atoms: O_2  and  C_3
REMARK    3  A    between atoms: C_4  and  C_5
REMARK    4  A    between atoms: C_10  and  C_11
REMARK    5  A    between atoms: C_11  and  C_12
REMARK    6  A    between atoms: C_11  and  C_13
REMARK    7  A    between atoms: C_13  and  C_14
REMARK    8  A    between atoms: C_14  and  C_15
REMARK    9  A    between atoms: C_15  and  C_16
REMARK   10  A    between atoms: C_16  and  C_17
REMARK   11  A    between atoms: C_18  and  C_19
REMARK   12  A    between atoms: C_19  and  C_20
REMARK   13  A    between atoms: C_20  and  C_21
REMARK   14  A    between atoms: C_21  and  C_22
REMARK   15  A    between atoms: C_23  and  C_24
REMARK   16  A    between atoms: C_24  and  C_25
REMARK   17  A    between atoms: C_25  and  C_26
REMARK                            x       y       z     vdW  Elec       q    Type
REMARK                         _______ _______ _______ _____ _____    ______ ____
ROOT
ATOM      1  C   UNL     1       2.423   6.218  18.069  0.00  0.00    +0.000 C 
ENDROOT
BRANCH   1   2
ATOM      2  C   UNL     1       3.695   5.426  18.233  0.00  0.00    +0.000 C 
ATOM      3  C   UNL     1       3.780   4.067  17.577  0.00  0.00    +0.000 C 
ATOM      4  C   UNL     1       4.718   5.910  18.961  0.00  0.00    +0.000 C 
BRANCH   4   5
ATOM      5  C   UNL     1       5.989   5.140  19.162  0.00  0.00    +0.000 C 
BRANCH   5   6
ATOM      6  C   UNL     1       6.971   5.290  18.003  0.00  0.00    +0.000 C 
BRANCH   6   7
ATOM      7  C   UNL     1       7.190   6.745  17.665  0.00  0.00    +0.000 C 
ATOM      8  C   UNL     1       6.411   7.328  16.512  0.00  0.00    +0.000 C 
ATOM      9  C   UNL     1       8.042   7.496  18.386  0.00  0.00    +0.000 C 
BRANCH   9  10
ATOM     10  C   UNL     1       8.292   8.949  18.106  0.00  0.00    +0.000 C 
BRANCH  10  11
ATOM     11  C   UNL     1       9.082   9.637  19.218  0.00  0.00    +0.000 C 
BRANCH  11  12
ATOM     12  C   UNL     1       9.501  11.004  18.805  0.00  0.00    +0.000 A 
ATOM     13  C   UNL     1      10.257  11.358  17.657  0.00  0.00    +0.000 A 
ATOM     14  C   UNL     1      10.380  12.729  17.684  0.00  0.00    +0.000 A 
ATOM     15  O   UNL     1       9.741  13.240  18.764  0.00  0.00    +0.000 OA
ATOM     16  C   UNL     1       9.207  12.193  19.438  0.00  0.00    +0.000 A 
ENDBRANCH  11  12
ENDBRANCH  10  11
ENDBRANCH   9  10
ENDBRANCH   6   7
ENDBRANCH   5   6
ENDBRANCH   4   5
ENDBRANCH   1   2
BRANCH   1  17
ATOM     17  C   UNL     1       2.481   7.485  18.907  0.00  0.00    +0.000 C 
BRANCH  17  18
ATOM     18  C   UNL     1       2.308   8.750  18.075  0.00  0.00    +0.000 C 
BRANCH  18  19
ATOM     19  C   UNL     1       1.163   9.608  18.638  0.00  0.00    +0.000 C 
ATOM     20  C   UNL     1       0.724   9.168  20.039  0.00  0.00    +0.000 C 
BRANCH  19  28
ATOM     21  C   UNL     1      -2.362  10.281  17.119  0.00  0.00    +0.000 C 
ATOM     22  C   UNL     1      -3.196  11.154  17.685  0.00  0.00    +0.000 C 
ATOM     23  C   UNL     1      -4.567  11.590  17.364  0.00  0.00    +0.000 C 
ATOM     24  C   UNL     1      -2.468  11.716  18.822  0.00  0.00    +0.000 C 
ATOM     25  O   UNL     1      -2.916  12.570  19.580  0.00  0.00    +0.000 OA
ATOM     26  O   UNL     1      -1.229  11.162  18.923  0.00  0.00    +0.000 OA
ATOM     27  C   UNL     1      -1.136  10.256  17.864  0.00  0.00    +0.000 C 
ATOM     28  C   UNL     1      -0.018   9.537  17.705  0.00  0.00    +0.000 C 
BRANCH  21  30
ATOM     29  C   UNL     1      -3.063  10.337  14.822  0.00  0.00    +0.000 C 
ATOM     30  O   UNL     1      -2.645   9.603  15.964  0.00  0.00    +0.000 OA
ENDBRANCH  21  30
ENDBRANCH  19  28
ENDBRANCH  18  19
ENDBRANCH  17  18
ENDBRANCH   1  17
TORSDOF 12
ENDMDL
MODEL 7
REMARK VINA RESULT:      -6.9      4.906      9.021
REMARK  Name = 
REMARK  17 active torsions:
REMARK  status: ('A' for Active; 'I' for Inactive)
REMARK    1  A    between atoms: C_1  and  O_2
REMARK    2  A    between atoms: O_2  and  C_3
REMARK    3  A    between atoms: C_4  and  C_5
REMARK    4  A    between atoms: C_10  and  C_11
REMARK    5  A    between atoms: C_11  and  C_12
REMARK    6  A    between atoms: C_11  and  C_13
REMARK    7  A    between atoms: C_13  and  C_14
REMARK    8  A    between atoms: C_14  and  C_15
REMARK    9  A    between atoms: C_15  and  C_16
REMARK   10  A    between atoms: C_16  and  C_17
REMARK   11  A    between atoms: C_18  and  C_19
REMARK   12  A    between atoms: C_19  and  C_20
REMARK   13  A    between atoms: C_20  and  C_21
REMARK   14  A    between atoms: C_21  and  C_22
REMARK   15  A    between atoms: C_23  and  C_24
REMARK   16  A    between atoms: C_24  and  C_25
REMARK   17  A    between atoms: C_25  and  C_26
REMARK                            x       y       z     vdW  Elec       q    Type
REMARK                         _______ _______ _______ _____ _____    ______ ____
ROOT
ATOM      1  C   UNL     1       7.345   8.516  17.799  0.00  0.00    +0.000 C 
ENDROOT
BRANCH   1   2
ATOM      2  C   UNL     1       7.125   7.029  17.688  0.00  0.00    +0.000 C 
ATOM      3  C   UNL     1       7.719   6.138  18.754  0.00  0.00    +0.000 C 
ATOM      4  C   UNL     1       6.434   6.510  16.656  0.00  0.00    +0.000 C 
BRANCH   4   5
ATOM      5  C   UNL     1       6.215   5.035  16.504  0.00  0.00    +0.000 C 
BRANCH   5   6
ATOM      6  C   UNL     1       4.788   4.679  16.097  0.00  0.00    +0.000 C 
BRANCH   6   7
ATOM      7  C   UNL     1       4.156   3.744  17.102  0.00  0.00    +0.000 C 
ATOM      8  C   UNL     1       4.826   3.592  18.444  0.00  0.00    +0.000 C 
ATOM      9  C   UNL     1       3.020   3.086  16.805  0.00  0.00    +0.000 C 
BRANCH   9  10
ATOM     10  C   UNL     1       2.340   2.154  17.765  0.00  0.00    +0.000 C 
BRANCH  10  11
ATOM     11  C   UNL     1       1.147   2.800  18.468  0.00  0.00    +0.000 C 
BRANCH  11  12
ATOM     12  C   UNL     1       1.538   3.326  19.804  0.00  0.00    +0.000 A 
ATOM     13  C   UNL     1       1.794   2.574  20.979  0.00  0.00    +0.000 A 
ATOM     14  C   UNL     1       2.138   3.485  21.953  0.00  0.00    +0.000 A 
ATOM     15  O   UNL     1       2.122   4.742  21.450  0.00  0.00    +0.000 OA
ATOM     16  C   UNL     1       1.763   4.642  20.148  0.00  0.00    +0.000 A 
ENDBRANCH  11  12
ENDBRANCH  10  11
ENDBRANCH   9  10
ENDBRANCH   6   7
ENDBRANCH   5   6
ENDBRANCH   4   5
ENDBRANCH   1   2
BRANCH   1  17
ATOM     17  C   UNL     1       8.784   8.806  18.195  0.00  0.00    +0.000 C 
BRANCH  17  18
ATOM     18  C   UNL     1       8.938  10.133  18.927  0.00  0.00    +0.000 C 
BRANCH  18  19
ATOM     19  C   UNL     1       9.688  11.146  18.046  0.00  0.00    +0.000 C 
ATOM     20  C   UNL     1      11.061  11.524  18.611  0.00  0.00    +0.000 C 
BRANCH  19  28
ATOM     21  C   UNL     1       7.894  14.489  18.936  0.00  0.00    +0.000 C 
ATOM     22  C   UNL     1       8.028  15.037  20.144  0.00  0.00    +0.000 C 
ATOM     23  C   UNL     1       7.467  16.250  20.768  0.00  0.00    +0.000 C 
ATOM     24  C   UNL     1       8.946  14.164  20.875  0.00  0.00    +0.000 C 
ATOM     25  O   UNL     1       9.319  14.357  22.028  0.00  0.00    +0.000 OA
ATOM     26  O   UNL     1       9.328  13.111  20.102  0.00  0.00    +0.000 OA
ATOM     27  C   UNL     1       8.680  13.290  18.878  0.00  0.00    +0.000 C 
ATOM     28  C   UNL     1       8.854  12.393  17.900  0.00  0.00    +0.000 C 
BRANCH  21  30
ATOM     29  C   UNL     1       5.810  14.700  17.759  0.00  0.00    +0.000 C 
ATOM     30  O   UNL     1       7.175  15.061  17.922  0.00  0.00    +0.000 OA
ENDBRANCH  21  30
ENDBRANCH  19  28
ENDBRANCH  18  19
ENDBRANCH  17  18
ENDBRANCH   1  17
TORSDOF 12
ENDMDL
MODEL 8
REMARK VINA RESULT:      -6.9      2.183      3.810
REMARK  Name = 
REMARK  17 active torsions:
REMARK  status: ('A' for Active; 'I' for Inactive)
REMARK    1  A    between atoms: C_1  and  O_2
REMARK    2  A    between atoms: O_2  and  C_3
REMARK    3  A    between atoms: C_4  and  C_5
REMARK    4  A    between atoms: C_10  and  C_11
REMARK    5  A    between atoms: C_11  and  C_12
REMARK    6  A    between atoms: C_11  and  C_13
REMARK    7  A    between atoms: C_13  and  C_14
REMARK    8  A    between atoms: C_14  and  C_15
REMARK    9  A    between atoms: C_15  and  C_16
REMARK   10  A    between atoms: C_16  and  C_17
REMARK   11  A    between atoms: C_18  and  C_19
REMARK   12  A    between atoms: C_19  and  C_20
REMARK   13  A    between atoms: C_20  and  C_21
REMARK   14  A    between atoms: C_21  and  C_22
REMARK   15  A    between atoms: C_23  and  C_24
REMARK   16  A    between atoms: C_24  and  C_25
REMARK   17  A    between atoms: C_25  and  C_26
REMARK                            x       y       z     vdW  Elec       q    Type
REMARK                         _______ _______ _______ _____ _____    ______ ____
ROOT
ATOM      1  C   UNL     1       2.531   6.625  19.316  0.00  0.00    +0.000 C 
ENDROOT
BRANCH   1   2
ATOM      2  C   UNL     1       2.114   8.017  18.917  0.00  0.00    +0.000 C 
ATOM      3  C   UNL     1       2.658   8.583  17.626  0.00  0.00    +0.000 C 
ATOM      4  C   UNL     1       1.296   8.743  19.702  0.00  0.00    +0.000 C 
BRANCH   4   5
ATOM      5  C   UNL     1       0.879  10.139  19.346  0.00  0.00    +0.000 C 
BRANCH   5   6
ATOM      6  C   UNL     1      -0.601  10.251  18.993  0.00  0.00    +0.000 C 
BRANCH   6   7
ATOM      7  C   UNL     1      -1.266  11.347  19.791  0.00  0.00    +0.000 C 
ATOM      8  C   UNL     1      -2.463  12.036  19.185  0.00  0.00    +0.000 C 
ATOM      9  C   UNL     1      -0.808  11.680  21.012  0.00  0.00    +0.000 C 
BRANCH   9  10
ATOM     10  C   UNL     1      -1.434  12.752  21.856  0.00  0.00    +0.000 C 
BRANCH  10  11
ATOM     11  C   UNL     1      -1.927  12.228  23.204  0.00  0.00    +0.000 C 
BRANCH  11  12
ATOM     12  C   UNL     1      -3.397  12.417  23.341  0.00  0.00    +0.000 A 
ATOM     13  C   UNL     1      -4.149  12.435  24.544  0.00  0.00    +0.000 A 
ATOM     14  C   UNL     1      -5.458  12.658  24.177  0.00  0.00    +0.000 A 
ATOM     15  O   UNL     1      -5.556  12.789  22.832  0.00  0.00    +0.000 OA
ATOM     16  C   UNL     1      -4.305  12.647  22.330  0.00  0.00    +0.000 A 
ENDBRANCH  11  12
ENDBRANCH  10  11
ENDBRANCH   9  10
ENDBRANCH   6   7
ENDBRANCH   5   6
ENDBRANCH   4   5
ENDBRANCH   1   2
BRANCH   1  17
ATOM     17  C   UNL     1       3.044   5.863  18.104  0.00  0.00    +0.000 C 
BRANCH  17  18
ATOM     18  C   UNL     1       2.485   4.449  18.016  0.00  0.00    +0.000 C 
BRANCH  18  19
ATOM     19  C   UNL     1       3.611   3.445  17.721  0.00  0.00    +0.000 C 
ATOM     20  C   UNL     1       3.822   2.437  18.856  0.00  0.00    +0.000 C 
BRANCH  19  28
ATOM     21  C   UNL     1       6.688   4.958  15.870  0.00  0.00    +0.000 C 
ATOM     22  C   UNL     1       6.832   4.816  14.552  0.00  0.00    +0.000 C 
ATOM     23  C   UNL     1       7.875   5.244  13.601  0.00  0.00    +0.000 C 
ATOM     24  C   UNL     1       5.646   4.089  14.101  0.00  0.00    +0.000 C 
ATOM     25  O   UNL     1       5.420   3.785  12.934  0.00  0.00    +0.000 OA
ATOM     26  O   UNL     1       4.830   3.799  15.151  0.00  0.00    +0.000 OA
ATOM     27  C   UNL     1       5.462   4.333  16.275  0.00  0.00    +0.000 C 
ATOM     28  C   UNL     1       4.896   4.194  17.481  0.00  0.00    +0.000 C 
BRANCH  21  30
ATOM     29  C   UNL     1       7.110   6.866  17.268  0.00  0.00    +0.000 C 
ATOM     30  O   UNL     1       7.559   5.665  16.655  0.00  0.00    +0.000 OA
ENDBRANCH  21  30
ENDBRANCH  19  28
ENDBRANCH  18  19
ENDBRANCH  17  18
ENDBRANCH   1  17
TORSDOF 12
ENDMDL
MODEL 9
REMARK VINA RESULT:      -6.8      2.709     10.813
REMARK  Name = 
REMARK  17 active torsions:
REMARK  status: ('A' for Active; 'I' for Inactive)
REMARK    1  A    between atoms: C_1  and  O_2
REMARK    2  A    between atoms: O_2  and  C_3
REMARK    3  A    between atoms: C_4  and  C_5
REMARK    4  A    between atoms: C_10  and  C_11
REMARK    5  A    between atoms: C_11  and  C_12
REMARK    6  A    between atoms: C_11  and  C_13
REMARK    7  A    between atoms: C_13  and  C_14
REMARK    8  A    between atoms: C_14  and  C_15
REMARK    9  A    between atoms: C_15  and  C_16
REMARK   10  A    between atoms: C_16  and  C_17
REMARK   11  A    between atoms: C_18  and  C_19
REMARK   12  A    between atoms: C_19  and  C_20
REMARK   13  A    between atoms: C_20  and  C_21
REMARK   14  A    between atoms: C_21  and  C_22
REMARK   15  A    between atoms: C_23  and  C_24
REMARK   16  A    between atoms: C_24  and  C_25
REMARK   17  A    between atoms: C_25  and  C_26
REMARK                            x       y       z     vdW  Elec       q    Type
REMARK                         _______ _______ _______ _____ _____    ______ ____
ROOT
ATOM      1  C   UNL     1       1.108   8.888  20.796  0.00  0.00    +0.000 C 
ENDROOT
BRANCH   1   2
ATOM      2  C   UNL     1       1.661   8.662  19.412  0.00  0.00    +0.000 C 
ATOM      3  C   UNL     1       1.335   9.675  18.339  0.00  0.00    +0.000 C 
ATOM      4  C   UNL     1       2.407   7.576  19.137  0.00  0.00    +0.000 C 
BRANCH   4   5
ATOM      5  C   UNL     1       2.955   7.311  17.766  0.00  0.00    +0.000 C 
BRANCH   5   6
ATOM      6  C   UNL     1       4.243   6.492  17.783  0.00  0.00    +0.000 C 
BRANCH   6   7
ATOM      7  C   UNL     1       3.996   5.086  17.288  0.00  0.00    +0.000 C 
ATOM      8  C   UNL     1       5.079   4.423  16.474  0.00  0.00    +0.000 C 
ATOM      9  C   UNL     1       2.849   4.447  17.583  0.00  0.00    +0.000 C 
BRANCH   9  10
ATOM     10  C   UNL     1       2.552   3.047  17.131  0.00  0.00    +0.000 C 
BRANCH  10  11
ATOM     11  C   UNL     1       2.933   1.997  18.173  0.00  0.00    +0.000 C 
BRANCH  11  12
ATOM     12  C   UNL     1       2.421   2.374  19.518  0.00  0.00    +0.000 A 
ATOM     13  C   UNL     1       3.186   2.622  20.687  0.00  0.00    +0.000 A 
ATOM     14  C   UNL     1       2.284   2.954  21.674  0.00  0.00    +0.000 A 
ATOM     15  O   UNL     1       1.021   2.937  21.186  0.00  0.00    +0.000 OA
ATOM     16  C   UNL     1       1.107   2.590  19.880  0.00  0.00    +0.000 A 
ENDBRANCH  11  12
ENDBRANCH  10  11
ENDBRANCH   9  10
ENDBRANCH   6   7
ENDBRANCH   5   6
ENDBRANCH   4   5
ENDBRANCH   1   2
BRANCH   1  17
ATOM     17  C   UNL     1      -0.231   9.604  20.715  0.00  0.00    +0.000 C 
BRANCH  17  18
ATOM     18  C   UNL     1      -0.505  10.479  21.932  0.00  0.00    +0.000 C 
BRANCH  18  19
ATOM     19  C   UNL     1      -1.132  11.815  21.501  0.00  0.00    +0.000 C 
ATOM     20  C   UNL     1      -0.101  12.805  20.949  0.00  0.00    +0.000 C 
BRANCH  19  28
ATOM     21  C   UNL     1      -3.955  13.377  23.686  0.00  0.00    +0.000 C 
ATOM     22  C   UNL     1      -5.201  13.481  23.222  0.00  0.00    +0.000 C 
ATOM     23  C   UNL     1      -6.444  14.036  23.790  0.00  0.00    +0.000 C 
ATOM     24  C   UNL     1      -5.179  12.878  21.890  0.00  0.00    +0.000 C 
ATOM     25  O   UNL     1      -6.157  12.780  21.156  0.00  0.00    +0.000 OA
ATOM     26  O   UNL     1      -3.928  12.441  21.579  0.00  0.00    +0.000 OA
ATOM     27  C   UNL     1      -3.139  12.743  22.691  0.00  0.00    +0.000 C 
ATOM     28  C   UNL     1      -1.835  12.439  22.679  0.00  0.00    +0.000 C 
BRANCH  21  30
ATOM     29  C   UNL     1      -2.993  15.032  25.137  0.00  0.00    +0.000 C 
ATOM     30  O   UNL     1      -3.584  13.754  24.948  0.00  0.00    +0.000 OA
ENDBRANCH  21  30
ENDBRANCH  19  28
ENDBRANCH  18  19
ENDBRANCH  17  18
ENDBRANCH   1  17
TORSDOF 12
ENDMDL
