MODEL 1
REMARK VINA RESULT:      -9.4      0.000      0.000
REMARK  Name = 
REMARK  3 active torsions:
REMARK  status: ('A' for Active; 'I' for Inactive)
REMARK    1  A    between atoms: C_1  and  C_2
REMARK    2  A    between atoms: N_5  and  C_6
REMARK    3  A    between atoms: C_8  and  C_9
REMARK                            x       y       z     vdW  Elec       q    Type
REMARK                         _______ _______ _______ _____ _____    ______ ____
ROOT
ATOM      1  C   UNL     1       4.493   5.097  18.325  0.00  0.00    +0.000 A 
ATOM      2  N   UNL     1       3.981   6.333  18.446  0.00  0.00    +0.000 NA
ATOM      3  C   UNL     1       2.692   6.454  18.780  0.00  0.00    +0.000 A 
ATOM      4  N   UNL     1       1.863   5.419  18.979  0.00  0.00    +0.000 NA
ATOM      5  C   UNL     1       2.372   4.190  18.851  0.00  0.00    +0.000 A 
ATOM      6  C   UNL     1       1.519   3.104  19.002  0.00  0.00    +0.000 A 
ATOM      7  C   UNL     1       1.970   1.788  18.873  0.00  0.00    +0.000 A 
ATOM      8  C   UNL     1       3.306   1.541  18.595  0.00  0.00    +0.000 A 
ATOM      9  C   UNL     1       4.182   2.613  18.429  0.00  0.00    +0.000 A 
ATOM     10  C   UNL     1       3.719   3.949  18.546  0.00  0.00    +0.000 A 
ENDROOT
BRANCH   1  15
ATOM     11  C   UNL     1       6.146   3.860  13.083  0.00  0.00    +0.000 C 
ATOM     12  C   UNL     1       6.337   4.339  14.467  0.00  0.00    +0.000 A 
ATOM     13  C   UNL     1       5.523   4.287  15.574  0.00  0.00    +0.000 A 
ATOM     14  C   UNL     1       6.261   4.885  16.624  0.00  0.00    +0.000 A 
ATOM     15  N   UNL     1       5.835   4.984  17.902  0.00  0.00    +0.000 N 
ATOM     16  N   UNL     1       7.469   5.269  16.205  0.00  0.00    +0.000 NA
ATOM     17  N   UNL     1       7.476   4.962  14.896  0.00  0.00    +0.000 N 
ATOM     18  H   UNL     1       6.475   5.437  18.541  0.00  0.00    +0.000 HD
ATOM     19  H   UNL     1       8.301   5.194  14.354  0.00  0.00    +0.000 HD
ENDBRANCH   1  15
BRANCH   3  20
ATOM     20  C   UNL     1       2.156   7.824  18.896  0.00  0.00    +0.000 A 
ATOM     21  C   UNL     1       2.260   8.742  17.826  0.00  0.00    +0.000 A 
ATOM     22  C   UNL     1       1.735  10.034  17.917  0.00  0.00    +0.000 A 
ATOM     23  C   UNL     1       1.099  10.430  19.083  0.00  0.00    +0.000 A 
ATOM     24  F   UNL     1       0.586  11.664  19.169  0.00  0.00    +0.000 F 
ATOM     25  C   UNL     1       0.985   9.562  20.161  0.00  0.00    +0.000 A 
ATOM     26  C   UNL     1       1.512   8.271  20.067  0.00  0.00    +0.000 A 
ENDBRANCH   3  20
TORSDOF 2
ENDMDL
MODEL 2
REMARK VINA RESULT:      -9.3      0.184      1.001
REMARK  Name = 
REMARK  3 active torsions:
REMARK  status: ('A' for Active; 'I' for Inactive)
REMARK    1  A    between atoms: C_1  and  C_2
REMARK    2  A    between atoms: N_5  and  C_6
REMARK    3  A    between atoms: C_8  and  C_9
REMARK                            x       y       z     vdW  Elec       q    Type
REMARK                         _______ _______ _______ _____ _____    ______ ____
ROOT
ATOM      1  C   UNL     1       4.410   5.035  18.472  0.00  0.00    +0.000 A 
ATOM      2  N   UNL     1       3.925   6.285  18.549  0.00  0.00    +0.000 NA
ATOM      3  C   UNL     1       2.629   6.446  18.834  0.00  0.00    +0.000 A 
ATOM      4  N   UNL     1       1.767   5.437  19.025  0.00  0.00    +0.000 NA
ATOM      5  C   UNL     1       2.249   4.193  18.942  0.00  0.00    +0.000 A 
ATOM      6  C   UNL     1       1.364   3.132  19.086  0.00  0.00    +0.000 A 
ATOM      7  C   UNL     1       1.785   1.802  19.000  0.00  0.00    +0.000 A 
ATOM      8  C   UNL     1       3.124   1.516  18.775  0.00  0.00    +0.000 A 
ATOM      9  C   UNL     1       4.032   2.562  18.618  0.00  0.00    +0.000 A 
ATOM     10  C   UNL     1       3.599   3.912  18.690  0.00  0.00    +0.000 A 
ENDROOT
BRANCH   1  15
ATOM     11  C   UNL     1       6.223   3.852  13.270  0.00  0.00    +0.000 C 
ATOM     12  C   UNL     1       6.376   4.292  14.672  0.00  0.00    +0.000 A 
ATOM     13  C   UNL     1       5.517   4.247  15.745  0.00  0.00    +0.000 A 
ATOM     14  C   UNL     1       6.235   4.792  16.837  0.00  0.00    +0.000 A 
ATOM     15  N   UNL     1       5.762   4.879  18.099  0.00  0.00    +0.000 N 
ATOM     16  N   UNL     1       7.472   5.139  16.475  0.00  0.00    +0.000 NA
ATOM     17  N   UNL     1       7.520   4.861  15.160  0.00  0.00    +0.000 N 
ATOM     18  H   UNL     1       6.392   5.293  18.773  0.00  0.00    +0.000 HD
ATOM     19  H   UNL     1       8.375   5.072  14.657  0.00  0.00    +0.000 HD
ENDBRANCH   1  15
BRANCH   3  20
ATOM     20  C   UNL     1       2.125   7.831  18.901  0.00  0.00    +0.000 A 
ATOM     21  C   UNL     1       1.479   8.319  20.059  0.00  0.00    +0.000 A 
ATOM     22  C   UNL     1       1.019   9.636  20.142  0.00  0.00    +0.000 A 
ATOM     23  C   UNL     1       1.197  10.487  19.063  0.00  0.00    +0.000 A 
ATOM     24  F   UNL     1       0.767  11.753  19.142  0.00  0.00    +0.000 F 
ATOM     25  C   UNL     1       1.818  10.045  17.902  0.00  0.00    +0.000 A 
ATOM     26  C   UNL     1       2.276   8.727  17.822  0.00  0.00    +0.000 A 
ENDBRANCH   3  20
TORSDOF 2
ENDMDL
MODEL 3
REMARK VINA RESULT:      -8.7      1.624      2.448
REMARK  Name = 
REMARK  3 active torsions:
REMARK  status: ('A' for Active; 'I' for Inactive)
REMARK    1  A    between atoms: C_1  and  C_2
REMARK    2  A    between atoms: N_5  and  C_6
REMARK    3  A    between atoms: C_8  and  C_9
REMARK                            x       y       z     vdW  Elec       q    Type
REMARK                         _______ _______ _______ _____ _____    ______ ____
ROOT
ATOM      1  C   UNL     1       3.628   5.530  17.827  0.00  0.00    +0.000 A 
ATOM      2  N   UNL     1       3.155   6.677  18.342  0.00  0.00    +0.000 NA
ATOM      3  C   UNL     1       2.211   6.606  19.287  0.00  0.00    +0.000 A 
ATOM      4  N   UNL     1       1.683   5.460  19.741  0.00  0.00    +0.000 NA
ATOM      5  C   UNL     1       2.150   4.320  19.223  0.00  0.00    +0.000 A 
ATOM      6  C   UNL     1       1.581   3.124  19.642  0.00  0.00    +0.000 A 
ATOM      7  C   UNL     1       2.003   1.890  19.140  0.00  0.00    +0.000 A 
ATOM      8  C   UNL     1       3.026   1.839  18.204  0.00  0.00    +0.000 A 
ATOM      9  C   UNL     1       3.607   3.025  17.759  0.00  0.00    +0.000 A 
ATOM     10  C   UNL     1       3.166   4.279  18.259  0.00  0.00    +0.000 A 
ENDROOT
BRANCH   1  15
ATOM     11  C   UNL     1       8.270   8.722  17.914  0.00  0.00    +0.000 C 
ATOM     12  C   UNL     1       7.391   7.652  17.396  0.00  0.00    +0.000 A 
ATOM     13  C   UNL     1       6.087   7.324  17.678  0.00  0.00    +0.000 A 
ATOM     14  C   UNL     1       5.780   6.218  16.848  0.00  0.00    +0.000 A 
ATOM     15  N   UNL     1       4.569   5.623  16.780  0.00  0.00    +0.000 N 
ATOM     16  N   UNL     1       6.821   5.889  16.080  0.00  0.00    +0.000 NA
ATOM     17  N   UNL     1       7.789   6.744  16.455  0.00  0.00    +0.000 N 
ATOM     18  H   UNL     1       4.502   4.843  16.139  0.00  0.00    +0.000 HD
ATOM     19  H   UNL     1       8.698   6.661  16.014  0.00  0.00    +0.000 HD
ENDBRANCH   1  15
BRANCH   3  20
ATOM     20  C   UNL     1       1.705   7.882  19.826  0.00  0.00    +0.000 A 
ATOM     21  C   UNL     1       1.391   8.025  21.196  0.00  0.00    +0.000 A 
ATOM     22  C   UNL     1       0.934   9.236  21.720  0.00  0.00    +0.000 A 
ATOM     23  C   UNL     1       0.780  10.327  20.879  0.00  0.00    +0.000 A 
ATOM     24  F   UNL     1       0.352  11.493  21.380  0.00  0.00    +0.000 F 
ATOM     25  C   UNL     1       1.068  10.227  19.525  0.00  0.00    +0.000 A 
ATOM     26  C   UNL     1       1.525   9.013  19.003  0.00  0.00    +0.000 A 
ENDBRANCH   3  20
TORSDOF 2
ENDMDL
MODEL 4
REMARK VINA RESULT:      -8.4      2.896      6.296
REMARK  Name = 
REMARK  3 active torsions:
REMARK  status: ('A' for Active; 'I' for Inactive)
REMARK    1  A    between atoms: C_1  and  C_2
REMARK    2  A    between atoms: N_5  and  C_6
REMARK    3  A    between atoms: C_8  and  C_9
REMARK                            x       y       z     vdW  Elec       q    Type
REMARK                         _______ _______ _______ _____ _____    ______ ____
ROOT
ATOM      1  C   UNL     1       3.059   5.530  18.997  0.00  0.00    +0.000 A 
ATOM      2  N   UNL     1       4.017   5.651  18.063  0.00  0.00    +0.000 NA
ATOM      3  C   UNL     1       4.186   4.648  17.195  0.00  0.00    +0.000 A 
ATOM      4  N   UNL     1       3.476   3.511  17.208  0.00  0.00    +0.000 NA
ATOM      5  C   UNL     1       2.527   3.389  18.141  0.00  0.00    +0.000 A 
ATOM      6  C   UNL     1       1.814   2.199  18.205  0.00  0.00    +0.000 A 
ATOM      7  C   UNL     1       0.815   1.987  19.159  0.00  0.00    +0.000 A 
ATOM      8  C   UNL     1       0.507   2.988  20.069  0.00  0.00    +0.000 A 
ATOM      9  C   UNL     1       1.213   4.189  20.032  0.00  0.00    +0.000 A 
ATOM     10  C   UNL     1       2.238   4.396  19.073  0.00  0.00    +0.000 A 
ENDROOT
BRANCH   1  15
ATOM     11  C   UNL     1       0.354  10.405  18.179  0.00  0.00    +0.000 C 
ATOM     12  C   UNL     1       1.009   9.358  18.991  0.00  0.00    +0.000 A 
ATOM     13  C   UNL     1       1.765   8.266  18.638  0.00  0.00    +0.000 A 
ATOM     14  C   UNL     1       2.141   7.648  19.856  0.00  0.00    +0.000 A 
ATOM     15  N   UNL     1       2.941   6.564  19.950  0.00  0.00    +0.000 N 
ATOM     16  N   UNL     1       1.665   8.322  20.905  0.00  0.00    +0.000 NA
ATOM     17  N   UNL     1       0.958   9.326  20.357  0.00  0.00    +0.000 N 
ATOM     18  H   UNL     1       3.121   6.235  20.890  0.00  0.00    +0.000 HD
ATOM     19  H   UNL     1       0.475   9.966  20.978  0.00  0.00    +0.000 HD
ENDBRANCH   1  15
BRANCH   3  20
ATOM     20  C   UNL     1       5.253   4.806  16.189  0.00  0.00    +0.000 A 
ATOM     21  C   UNL     1       5.178   4.159  14.935  0.00  0.00    +0.000 A 
ATOM     22  C   UNL     1       6.171   4.321  13.966  0.00  0.00    +0.000 A 
ATOM     23  C   UNL     1       7.260   5.134  14.237  0.00  0.00    +0.000 A 
ATOM     24  F   UNL     1       8.209   5.300  13.307  0.00  0.00    +0.000 F 
ATOM     25  C   UNL     1       7.378   5.780  15.461  0.00  0.00    +0.000 A 
ATOM     26  C   UNL     1       6.383   5.616  16.428  0.00  0.00    +0.000 A 
ENDBRANCH   3  20
TORSDOF 2
ENDMDL
MODEL 5
REMARK VINA RESULT:      -8.3      1.921      2.648
REMARK  Name = 
REMARK  3 active torsions:
REMARK  status: ('A' for Active; 'I' for Inactive)
REMARK    1  A    between atoms: C_1  and  C_2
REMARK    2  A    between atoms: N_5  and  C_6
REMARK    3  A    between atoms: C_8  and  C_9
REMARK                            x       y       z     vdW  Elec       q    Type
REMARK                         _______ _______ _______ _____ _____    ______ ____
ROOT
ATOM      1  C   UNL     1       3.426   5.844  18.570  0.00  0.00    +0.000 A 
ATOM      2  N   UNL     1       2.825   7.024  18.796  0.00  0.00    +0.000 NA
ATOM      3  C   UNL     1       2.027   7.135  19.864  0.00  0.00    +0.000 A 
ATOM      4  N   UNL     1       1.764   6.134  20.716  0.00  0.00    +0.000 NA
ATOM      5  C   UNL     1       2.356   4.958  20.486  0.00  0.00    +0.000 A 
ATOM      6  C   UNL     1       2.058   3.893  21.326  0.00  0.00    +0.000 A 
ATOM      7  C   UNL     1       2.626   2.629  21.147  0.00  0.00    +0.000 A 
ATOM      8  C   UNL     1       3.523   2.417  20.110  0.00  0.00    +0.000 A 
ATOM      9  C   UNL     1       3.833   3.466  19.246  0.00  0.00    +0.000 A 
ATOM     10  C   UNL     1       3.243   4.745  19.422  0.00  0.00    +0.000 A 
ENDROOT
BRANCH   1  15
ATOM     11  C   UNL     1       8.290   8.524  17.621  0.00  0.00    +0.000 C 
ATOM     12  C   UNL     1       7.254   7.501  17.366  0.00  0.00    +0.000 A 
ATOM     13  C   UNL     1       5.983   7.343  17.863  0.00  0.00    +0.000 A 
ATOM     14  C   UNL     1       5.461   6.191  17.227  0.00  0.00    +0.000 A 
ATOM     15  N   UNL     1       4.206   5.721  17.401  0.00  0.00    +0.000 N 
ATOM     16  N   UNL     1       6.343   5.671  16.371  0.00  0.00    +0.000 NA
ATOM     17  N   UNL     1       7.427   6.457  16.500  0.00  0.00    +0.000 N 
ATOM     18  H   UNL     1       3.977   4.886  16.877  0.00  0.00    +0.000 HD
ATOM     19  H   UNL     1       8.250   6.231  15.953  0.00  0.00    +0.000 HD
ENDBRANCH   1  15
BRANCH   3  20
ATOM     20  C   UNL     1       1.374   8.440  20.079  0.00  0.00    +0.000 A 
ATOM     21  C   UNL     1       0.911   8.823  21.358  0.00  0.00    +0.000 A 
ATOM     22  C   UNL     1       0.313  10.067  21.577  0.00  0.00    +0.000 A 
ATOM     23  C   UNL     1       0.166  10.948  20.518  0.00  0.00    +0.000 A 
ATOM     24  F   UNL     1      -0.398  12.145  20.727  0.00  0.00    +0.000 F 
ATOM     25  C   UNL     1       0.598  10.606  19.243  0.00  0.00    +0.000 A 
ATOM     26  C   UNL     1       1.196   9.361  19.027  0.00  0.00    +0.000 A 
ENDBRANCH   3  20
TORSDOF 2
ENDMDL
MODEL 6
REMARK VINA RESULT:      -8.2      2.162      2.334
REMARK  Name = 
REMARK  3 active torsions:
REMARK  status: ('A' for Active; 'I' for Inactive)
REMARK    1  A    between atoms: C_1  and  C_2
REMARK    2  A    between atoms: N_5  and  C_6
REMARK    3  A    between atoms: C_8  and  C_9
REMARK                            x       y       z     vdW  Elec       q    Type
REMARK                         _______ _______ _______ _____ _____    ______ ____
ROOT
ATOM      1  C   UNL     1       4.372   4.762  19.257  0.00  0.00    +0.000 A 
ATOM      2  N   UNL     1       3.892   6.015  19.305  0.00  0.00    +0.000 NA
ATOM      3  C   UNL     1       2.574   6.195  19.163  0.00  0.00    +0.000 A 
ATOM      4  N   UNL     1       1.696   5.205  18.949  0.00  0.00    +0.000 NA
ATOM      5  C   UNL     1       2.176   3.959  18.895  0.00  0.00    +0.000 A 
ATOM      6  C   UNL     1       1.292   2.923  18.623  0.00  0.00    +0.000 A 
ATOM      7  C   UNL     1       1.715   1.593  18.537  0.00  0.00    +0.000 A 
ATOM      8  C   UNL     1       3.052   1.282  18.736  0.00  0.00    +0.000 A 
ATOM      9  C   UNL     1       3.962   2.303  19.001  0.00  0.00    +0.000 A 
ATOM     10  C   UNL     1       3.533   3.654  19.073  0.00  0.00    +0.000 A 
ENDROOT
BRANCH   1  15
ATOM     11  C   UNL     1       8.192   8.507  17.488  0.00  0.00    +0.000 C 
ATOM     12  C   UNL     1       7.733   7.311  18.224  0.00  0.00    +0.000 A 
ATOM     13  C   UNL     1       6.540   6.627  18.204  0.00  0.00    +0.000 A 
ATOM     14  C   UNL     1       6.702   5.545  19.104  0.00  0.00    +0.000 A 
ATOM     15  N   UNL     1       5.771   4.594  19.335  0.00  0.00    +0.000 N 
ATOM     16  N   UNL     1       7.925   5.542  19.638  0.00  0.00    +0.000 NA
ATOM     17  N   UNL     1       8.513   6.635  19.120  0.00  0.00    +0.000 N 
ATOM     18  H   UNL     1       6.031   3.883  20.006  0.00  0.00    +0.000 HD
ATOM     19  H   UNL     1       9.459   6.853  19.411  0.00  0.00    +0.000 HD
ENDBRANCH   1  15
BRANCH   3  20
ATOM     20  C   UNL     1       2.079   7.584  19.210  0.00  0.00    +0.000 A 
ATOM     21  C   UNL     1       2.151   8.425  18.076  0.00  0.00    +0.000 A 
ATOM     22  C   UNL     1       1.664   9.734  18.104  0.00  0.00    +0.000 A 
ATOM     23  C   UNL     1       1.097  10.225  19.270  0.00  0.00    +0.000 A 
ATOM     24  F   UNL     1       0.619  11.476  19.296  0.00  0.00    +0.000 F 
ATOM     25  C   UNL     1       1.016   9.435  20.408  0.00  0.00    +0.000 A 
ATOM     26  C   UNL     1       1.505   8.126  20.378  0.00  0.00    +0.000 A 
ENDBRANCH   3  20
TORSDOF 2
ENDMDL
MODEL 7
REMARK VINA RESULT:      -8.2      4.033      7.834
REMARK  Name = 
REMARK  3 active torsions:
REMARK  status: ('A' for Active; 'I' for Inactive)
REMARK    1  A    between atoms: C_1  and  C_2
REMARK    2  A    between atoms: N_5  and  C_6
REMARK    3  A    between atoms: C_8  and  C_9
REMARK                            x       y       z     vdW  Elec       q    Type
REMARK                         _______ _______ _______ _____ _____    ______ ____
ROOT
ATOM      1  C   UNL     1       0.568   9.959  19.188  0.00  0.00    +0.000 A 
ATOM      2  N   UNL     1       1.334   9.070  18.534  0.00  0.00    +0.000 NA
ATOM      3  C   UNL     1       1.864   8.058  19.229  0.00  0.00    +0.000 A 
ATOM      4  N   UNL     1       1.702   7.882  20.549  0.00  0.00    +0.000 NA
ATOM      5  C   UNL     1       0.946   8.771  21.199  0.00  0.00    +0.000 A 
ATOM      6  C   UNL     1       0.807   8.638  22.575  0.00  0.00    +0.000 A 
ATOM      7  C   UNL     1       0.043   9.532  23.330  0.00  0.00    +0.000 A 
ATOM      8  C   UNL     1      -0.609  10.583  22.702  0.00  0.00    +0.000 A 
ATOM      9  C   UNL     1      -0.479  10.745  21.324  0.00  0.00    +0.000 A 
ATOM     10  C   UNL     1       0.309   9.845  20.561  0.00  0.00    +0.000 A 
ENDROOT
BRANCH   1  15
ATOM     11  C   UNL     1      -3.721   9.776  15.539  0.00  0.00    +0.000 C 
ATOM     12  C   UNL     1      -2.735  10.446  16.412  0.00  0.00    +0.000 A 
ATOM     13  C   UNL     1      -1.631   9.971  17.078  0.00  0.00    +0.000 A 
ATOM     14  C   UNL     1      -1.063  11.092  17.732  0.00  0.00    +0.000 A 
ATOM     15  N   UNL     1       0.076  11.061  18.457  0.00  0.00    +0.000 N 
ATOM     16  N   UNL     1      -1.758  12.202  17.475  0.00  0.00    +0.000 NA
ATOM     17  N   UNL     1      -2.779  11.780  16.708  0.00  0.00    +0.000 N 
ATOM     18  H   UNL     1       0.358  11.944  18.864  0.00  0.00    +0.000 HD
ATOM     19  H   UNL     1      -3.466  12.463  16.408  0.00  0.00    +0.000 HD
ENDBRANCH   1  15
BRANCH   3  20
ATOM     20  C   UNL     1       2.708   7.104  18.485  0.00  0.00    +0.000 A 
ATOM     21  C   UNL     1       3.700   7.555  17.584  0.00  0.00    +0.000 A 
ATOM     22  C   UNL     1       4.520   6.660  16.892  0.00  0.00    +0.000 A 
ATOM     23  C   UNL     1       4.361   5.298  17.089  0.00  0.00    +0.000 A 
ATOM     24  F   UNL     1       5.153   4.438  16.436  0.00  0.00    +0.000 F 
ATOM     25  C   UNL     1       3.393   4.814  17.958  0.00  0.00    +0.000 A 
ATOM     26  C   UNL     1       2.572   5.711  18.649  0.00  0.00    +0.000 A 
ENDBRANCH   3  20
TORSDOF 2
ENDMDL
MODEL 8
REMARK VINA RESULT:      -8.1      1.950      4.827
REMARK  Name = 
REMARK  3 active torsions:
REMARK  status: ('A' for Active; 'I' for Inactive)
REMARK    1  A    between atoms: C_1  and  C_2
REMARK    2  A    between atoms: N_5  and  C_6
REMARK    3  A    between atoms: C_8  and  C_9
REMARK                            x       y       z     vdW  Elec       q    Type
REMARK                         _______ _______ _______ _____ _____    ______ ____
ROOT
ATOM      1  C   UNL     1       3.159   5.019  17.473  0.00  0.00    +0.000 A 
ATOM      2  N   UNL     1       2.439   6.038  17.970  0.00  0.00    +0.000 NA
ATOM      3  C   UNL     1       3.007   7.247  18.027  0.00  0.00    +0.000 A 
ATOM      4  N   UNL     1       4.265   7.509  17.643  0.00  0.00    +0.000 NA
ATOM      5  C   UNL     1       4.983   6.492  17.155  0.00  0.00    +0.000 A 
ATOM      6  C   UNL     1       6.304   6.729  16.799  0.00  0.00    +0.000 A 
ATOM      7  C   UNL     1       7.126   5.718  16.293  0.00  0.00    +0.000 A 
ATOM      8  C   UNL     1       6.619   4.438  16.126  0.00  0.00    +0.000 A 
ATOM      9  C   UNL     1       5.299   4.170  16.484  0.00  0.00    +0.000 A 
ATOM     10  C   UNL     1       4.471   5.195  17.012  0.00  0.00    +0.000 A 
ENDROOT
BRANCH   1  15
ATOM     11  C   UNL     1       1.340   2.333  22.080  0.00  0.00    +0.000 C 
ATOM     12  C   UNL     1       1.460   2.562  20.625  0.00  0.00    +0.000 A 
ATOM     13  C   UNL     1       2.276   3.392  19.894  0.00  0.00    +0.000 A 
ATOM     14  C   UNL     1       1.952   3.153  18.536  0.00  0.00    +0.000 A 
ATOM     15  N   UNL     1       2.572   3.735  17.487  0.00  0.00    +0.000 N 
ATOM     16  N   UNL     1       1.007   2.218  18.424  0.00  0.00    +0.000 NA
ATOM     17  N   UNL     1       0.702   1.904  19.696  0.00  0.00    +0.000 N 
ATOM     18  H   UNL     1       2.230   3.465  16.574  0.00  0.00    +0.000 HD
ATOM     19  H   UNL     1      -0.026   1.219  19.858  0.00  0.00    +0.000 HD
ENDBRANCH   1  15
BRANCH   3  20
ATOM     20  C   UNL     1       2.194   8.343  18.586  0.00  0.00    +0.000 A 
ATOM     21  C   UNL     1       1.663   8.266  19.894  0.00  0.00    +0.000 A 
ATOM     22  C   UNL     1       0.911   9.308  20.442  0.00  0.00    +0.000 A 
ATOM     23  C   UNL     1       0.677  10.448  19.688  0.00  0.00    +0.000 A 
ATOM     24  F   UNL     1      -0.034  11.453  20.214  0.00  0.00    +0.000 F 
ATOM     25  C   UNL     1       1.172  10.560  18.396  0.00  0.00    +0.000 A 
ATOM     26  C   UNL     1       1.923   9.515  17.850  0.00  0.00    +0.000 A 
ENDBRANCH   3  20
TORSDOF 2
ENDMDL
MODEL 9
REMARK VINA RESULT:      -8.0      1.968      4.708
REMARK  Name = 
REMARK  3 active torsions:
REMARK  status: ('A' for Active; 'I' for Inactive)
REMARK    1  A    between atoms: C_1  and  C_2
REMARK    2  A    between atoms: N_5  and  C_6
REMARK    3  A    between atoms: C_8  and  C_9
REMARK                            x       y       z     vdW  Elec       q    Type
REMARK                         _______ _______ _______ _____ _____    ______ ____
ROOT
ATOM      1  C   UNL     1       3.329   5.033  17.501  0.00  0.00    +0.000 A 
ATOM      2  N   UNL     1       2.554   6.015  17.991  0.00  0.00    +0.000 NA
ATOM      3  C   UNL     1       3.073   7.243  18.088  0.00  0.00    +0.000 A 
ATOM      4  N   UNL     1       4.332   7.560  17.751  0.00  0.00    +0.000 NA
ATOM      5  C   UNL     1       5.104   6.581  17.270  0.00  0.00    +0.000 A 
ATOM      6  C   UNL     1       6.426   6.875  16.962  0.00  0.00    +0.000 A 
ATOM      7  C   UNL     1       7.303   5.906  16.466  0.00  0.00    +0.000 A 
ATOM      8  C   UNL     1       6.852   4.610  16.260  0.00  0.00    +0.000 A 
ATOM      9  C   UNL     1       5.532   4.286  16.569  0.00  0.00    +0.000 A 
ATOM     10  C   UNL     1       4.648   5.268  17.087  0.00  0.00    +0.000 A 
ENDROOT
BRANCH   1  15
ATOM     11  C   UNL     1       1.364   2.236  21.979  0.00  0.00    +0.000 C 
ATOM     12  C   UNL     1       1.556   2.483  20.535  0.00  0.00    +0.000 A 
ATOM     13  C   UNL     1       2.378   3.351  19.857  0.00  0.00    +0.000 A 
ATOM     14  C   UNL     1       2.139   3.113  18.481  0.00  0.00    +0.000 A 
ATOM     15  N   UNL     1       2.792   3.728  17.472  0.00  0.00    +0.000 N 
ATOM     16  N   UNL     1       1.238   2.144  18.310  0.00  0.00    +0.000 NA
ATOM     17  N   UNL     1       0.876   1.806  19.561  0.00  0.00    +0.000 N 
ATOM     18  H   UNL     1       2.511   3.454  16.540  0.00  0.00    +0.000 HD
ATOM     19  H   UNL     1       0.166   1.092  19.678  0.00  0.00    +0.000 HD
ENDBRANCH   1  15
BRANCH   3  20
ATOM     20  C   UNL     1       2.201   8.297  18.639  0.00  0.00    +0.000 A 
ATOM     21  C   UNL     1       1.824   9.416  17.862  0.00  0.00    +0.000 A 
ATOM     22  C   UNL     1       0.979  10.407  18.367  0.00  0.00    +0.000 A 
ATOM     23  C   UNL     1       0.497  10.296  19.662  0.00  0.00    +0.000 A 
ATOM     24  F   UNL     1      -0.322  11.239  20.145  0.00  0.00    +0.000 F 
ATOM     25  C   UNL     1       0.851   9.218  20.462  0.00  0.00    +0.000 A 
ATOM     26  C   UNL     1       1.697   8.228  19.955  0.00  0.00    +0.000 A 
ENDBRANCH   3  20
TORSDOF 2
ENDMDL
