MODEL 1
REMARK VINA RESULT:      -9.3      0.000      0.000
REMARK  Name = 
REMARK  5 active torsions:
REMARK  status: ('A' for Active; 'I' for Inactive)
REMARK    1  A    between atoms: C_2  and  C_3
REMARK    2  A    between atoms: C_2  and  C_20
REMARK    3  A    between atoms: C_4  and  C_5
REMARK    4  A    between atoms: N_8  and  C_9
REMARK    5  A    between atoms: C_9  and  C_10
REMARK                            x       y       z     vdW  Elec       q    Type
REMARK                         _______ _______ _______ _____ _____    ______ ____
ROOT
ATOM      1  C   UNL     1       7.761   7.161  18.175  0.00  0.00    +0.000 A 
ATOM      2  C   UNL     1       6.853   7.576  17.199  0.00  0.00    +0.000 A 
ATOM      3  C   UNL     1       5.757   6.786  16.905  0.00  0.00    +0.000 A 
ATOM      4  N   UNL     1       5.583   5.593  17.516  0.00  0.00    +0.000 N 
ATOM      5  C   UNL     1       6.543   5.102  18.336  0.00  0.00    +0.000 A 
ATOM      6  C   UNL     1       7.649   5.870  18.679  0.00  0.00    +0.000 A 
ENDROOT
BRANCH   1   8
ATOM      7  C   UNL     1       8.576   9.404  18.496  0.00  0.00    +0.000 C 
ATOM      8  C   UNL     1       8.708   8.098  18.782  0.00  0.00    +0.000 C 
BRANCH   7  10
ATOM      9  O   UNL     1       9.303  10.494  20.450  0.00  0.00    +0.000 OA
ATOM     10  C   UNL     1       9.261  10.520  19.215  0.00  0.00    +0.000 C 
BRANCH  10  11
ATOM     11  C   UNL     1       9.530  11.691  18.410  0.00  0.00    +0.000 A 
ATOM     12  C   UNL     1      10.554  11.952  17.522  0.00  0.00    +0.000 A 
ATOM     13  C   UNL     1      10.601  13.360  17.374  0.00  0.00    +0.000 A 
ATOM     14  C   UNL     1      11.514  14.283  16.840  0.00  0.00    +0.000 A 
ATOM     15  C   UNL     1      11.217  15.648  16.920  0.00  0.00    +0.000 A 
ATOM     16  C   UNL     1      10.006  16.088  17.456  0.00  0.00    +0.000 A 
ATOM     17  C   UNL     1       9.078  15.188  17.993  0.00  0.00    +0.000 A 
ATOM     18  C   UNL     1       9.445  13.846  17.967  0.00  0.00    +0.000 A 
ATOM     19  O   UNL     1       8.782  12.835  18.589  0.00  0.00    +0.000 OA
ENDBRANCH  10  11
ENDBRANCH   7  10
ENDBRANCH   1   8
BRANCH   4  20
ATOM     20  C   UNL     1       4.288   4.882  17.365  0.00  0.00    +0.000 C 
BRANCH  20  21
ATOM     21  C   UNL     1       3.461   4.972  18.622  0.00  0.00    +0.000 A 
ATOM     22  C   UNL     1       2.856   6.203  18.948  0.00  0.00    +0.000 A 
ATOM     23  C   UNL     1       2.011   6.311  20.049  0.00  0.00    +0.000 A 
ATOM     24  C   UNL     1       1.758   5.196  20.844  0.00  0.00    +0.000 A 
ATOM     25  C   UNL     1       2.372   3.977  20.560  0.00  0.00    +0.000 A 
ATOM     26 CL   UNL     1       2.013   2.643  21.598  0.00  0.00    +0.000 Cl
ATOM     27  C   UNL     1       3.235   3.861  19.460  0.00  0.00    +0.000 A 
ATOM     28 CL   UNL     1       4.049   2.362  19.146  0.00  0.00    +0.000 Cl
ENDBRANCH  20  21
ENDBRANCH   4  20
TORSDOF 5
ENDMDL
MODEL 2
REMARK VINA RESULT:      -8.9      1.444      1.708
REMARK  Name = 
REMARK  5 active torsions:
REMARK  status: ('A' for Active; 'I' for Inactive)
REMARK    1  A    between atoms: C_2  and  C_3
REMARK    2  A    between atoms: C_2  and  C_20
REMARK    3  A    between atoms: C_4  and  C_5
REMARK    4  A    between atoms: N_8  and  C_9
REMARK    5  A    between atoms: C_9  and  C_10
REMARK                            x       y       z     vdW  Elec       q    Type
REMARK                         _______ _______ _______ _____ _____    ______ ____
ROOT
ATOM      1  C   UNL     1       7.774   7.087  18.238  0.00  0.00    +0.000 A 
ATOM      2  C   UNL     1       7.056   7.410  17.086  0.00  0.00    +0.000 A 
ATOM      3  C   UNL     1       5.932   6.677  16.752  0.00  0.00    +0.000 A 
ATOM      4  N   UNL     1       5.551   5.620  17.503  0.00  0.00    +0.000 N 
ATOM      5  C   UNL     1       6.332   5.192  18.523  0.00  0.00    +0.000 A 
ATOM      6  C   UNL     1       7.458   5.910  18.909  0.00  0.00    +0.000 A 
ENDROOT
BRANCH   1   8
ATOM      7  C   UNL     1       8.572   9.335  18.565  0.00  0.00    +0.000 C 
ATOM      8  C   UNL     1       8.725   8.028  18.833  0.00  0.00    +0.000 C 
BRANCH   7  10
ATOM      9  O   UNL     1       9.279  10.444  20.515  0.00  0.00    +0.000 OA
ATOM     10  C   UNL     1       9.260  10.452  19.280  0.00  0.00    +0.000 C 
BRANCH  10  11
ATOM     11  C   UNL     1       9.563  11.605  18.461  0.00  0.00    +0.000 A 
ATOM     12  C   UNL     1      10.612  11.838  17.595  0.00  0.00    +0.000 A 
ATOM     13  C   UNL     1      10.681  13.243  17.424  0.00  0.00    +0.000 A 
ATOM     14  C   UNL     1      11.618  14.146  16.897  0.00  0.00    +0.000 A 
ATOM     15  C   UNL     1      11.336  15.515  16.947  0.00  0.00    +0.000 A 
ATOM     16  C   UNL     1      10.119  15.979  17.447  0.00  0.00    +0.000 A 
ATOM     17  C   UNL     1       9.167  15.100  17.977  0.00  0.00    +0.000 A 
ATOM     18  C   UNL     1       9.517  13.754  17.982  0.00  0.00    +0.000 A 
ATOM     19  O   UNL     1       8.827  12.761  18.604  0.00  0.00    +0.000 OA
ENDBRANCH  10  11
ENDBRANCH   7  10
ENDBRANCH   1   8
BRANCH   4  20
ATOM     20  C   UNL     1       4.219   5.005  17.268  0.00  0.00    +0.000 C 
BRANCH  20  21
ATOM     21  C   UNL     1       3.364   5.054  18.507  0.00  0.00    +0.000 A 
ATOM     22  C   UNL     1       3.191   3.875  19.258  0.00  0.00    +0.000 A 
ATOM     23  C   UNL     1       2.483   3.892  20.458  0.00  0.00    +0.000 A 
ATOM     24  C   UNL     1       1.937   5.083  20.927  0.00  0.00    +0.000 A 
ATOM     25  C   UNL     1       2.068   6.256  20.184  0.00  0.00    +0.000 A 
ATOM     26 CL   UNL     1       1.355   7.692  20.829  0.00  0.00    +0.000 Cl
ATOM     27  C   UNL     1       2.767   6.246  18.967  0.00  0.00    +0.000 A 
ATOM     28 CL   UNL     1       2.874   7.690  18.013  0.00  0.00    +0.000 Cl
ENDBRANCH  20  21
ENDBRANCH   4  20
TORSDOF 5
ENDMDL
MODEL 3
REMARK VINA RESULT:      -8.4      4.776     10.464
REMARK  Name = 
REMARK  5 active torsions:
REMARK  status: ('A' for Active; 'I' for Inactive)
REMARK    1  A    between atoms: C_2  and  C_3
REMARK    2  A    between atoms: C_2  and  C_20
REMARK    3  A    between atoms: C_4  and  C_5
REMARK    4  A    between atoms: N_8  and  C_9
REMARK    5  A    between atoms: C_9  and  C_10
REMARK                            x       y       z     vdW  Elec       q    Type
REMARK                         _______ _______ _______ _____ _____    ______ ____
ROOT
ATOM      1  C   UNL     1       9.051  10.021  18.913  0.00  0.00    +0.000 A 
ATOM      2  C   UNL     1       9.179  10.862  17.805  0.00  0.00    +0.000 A 
ATOM      3  C   UNL     1      10.002  11.970  17.880  0.00  0.00    +0.000 A 
ATOM      4  N   UNL     1      10.643  12.277  19.030  0.00  0.00    +0.000 N 
ATOM      5  C   UNL     1      10.393  11.569  20.158  0.00  0.00    +0.000 A 
ATOM      6  C   UNL     1       9.593  10.434  20.125  0.00  0.00    +0.000 A 
ENDROOT
BRANCH   1   8
ATOM      7  C   UNL     1       7.786   8.379  17.688  0.00  0.00    +0.000 C 
ATOM      8  C   UNL     1       8.508   8.667  18.783  0.00  0.00    +0.000 C 
BRANCH   7  10
ATOM      9  O   UNL     1       7.835   6.566  16.190  0.00  0.00    +0.000 OA
ATOM     10  C   UNL     1       7.385   7.007  17.253  0.00  0.00    +0.000 C 
BRANCH  10  11
ATOM     11  C   UNL     1       6.252   6.448  17.959  0.00  0.00    +0.000 A 
ATOM     12  C   UNL     1       6.192   5.442  18.901  0.00  0.00    +0.000 A 
ATOM     13  C   UNL     1       4.850   4.990  18.913  0.00  0.00    +0.000 A 
ATOM     14  C   UNL     1       4.170   3.876  19.430  0.00  0.00    +0.000 A 
ATOM     15  C   UNL     1       2.797   3.753  19.190  0.00  0.00    +0.000 A 
ATOM     16  C   UNL     1       2.096   4.750  18.510  0.00  0.00    +0.000 A 
ATOM     17  C   UNL     1       2.750   5.871  17.986  0.00  0.00    +0.000 A 
ATOM     18  C   UNL     1       4.127   5.918  18.176  0.00  0.00    +0.000 A 
ATOM     19  O   UNL     1       4.973   6.815  17.603  0.00  0.00    +0.000 OA
ENDBRANCH  10  11
ENDBRANCH   7  10
ENDBRANCH   1   8
BRANCH   4  20
ATOM     20  C   UNL     1      11.699  13.321  19.016  0.00  0.00    +0.000 C 
BRANCH  20  21
ATOM     21  C   UNL     1      11.151  14.653  18.576  0.00  0.00    +0.000 A 
ATOM     22  C   UNL     1      11.412  15.092  17.263  0.00  0.00    +0.000 A 
ATOM     23  C   UNL     1      10.852  16.274  16.782  0.00  0.00    +0.000 A 
ATOM     24  C   UNL     1      10.026  17.036  17.603  0.00  0.00    +0.000 A 
ATOM     25  C   UNL     1       9.780  16.638  18.917  0.00  0.00    +0.000 A 
ATOM     26 CL   UNL     1       8.750  17.641  19.875  0.00  0.00    +0.000 Cl
ATOM     27  C   UNL     1      10.351  15.456  19.414  0.00  0.00    +0.000 A 
ATOM     28 CL   UNL     1      10.097  14.995  21.067  0.00  0.00    +0.000 Cl
ENDBRANCH  20  21
ENDBRANCH   4  20
TORSDOF 5
ENDMDL
MODEL 4
REMARK VINA RESULT:      -8.4      5.773      8.602
REMARK  Name = 
REMARK  5 active torsions:
REMARK  status: ('A' for Active; 'I' for Inactive)
REMARK    1  A    between atoms: C_2  and  C_3
REMARK    2  A    between atoms: C_2  and  C_20
REMARK    3  A    between atoms: C_4  and  C_5
REMARK    4  A    between atoms: N_8  and  C_9
REMARK    5  A    between atoms: C_9  and  C_10
REMARK                            x       y       z     vdW  Elec       q    Type
REMARK                         _______ _______ _______ _____ _____    ______ ____
ROOT
ATOM      1  C   UNL     1       1.687   5.963  20.237  0.00  0.00    +0.000 A 
ATOM      2  C   UNL     1       2.136   4.808  20.880  0.00  0.00    +0.000 A 
ATOM      3  C   UNL     1       2.945   3.918  20.199  0.00  0.00    +0.000 A 
ATOM      4  N   UNL     1       3.266   4.129  18.904  0.00  0.00    +0.000 N 
ATOM      5  C   UNL     1       2.700   5.153  18.221  0.00  0.00    +0.000 A 
ATOM      6  C   UNL     1       1.899   6.086  18.868  0.00  0.00    +0.000 A 
ENDROOT
BRANCH   1   8
ATOM      7  C   UNL     1       1.661   8.317  20.747  0.00  0.00    +0.000 C 
ATOM      8  C   UNL     1       1.153   7.098  20.994  0.00  0.00    +0.000 C 
BRANCH   7  10
ATOM      9  O   UNL     1       1.137   9.895  22.411  0.00  0.00    +0.000 OA
ATOM     10  C   UNL     1       1.072   9.609  21.210  0.00  0.00    +0.000 C 
BRANCH  10  11
ATOM     11  C   UNL     1       0.196  10.257  20.259  0.00  0.00    +0.000 A 
ATOM     12  C   UNL     1      -0.662  11.326  20.416  0.00  0.00    +0.000 A 
ATOM     13  C   UNL     1      -1.587  11.252  19.346  0.00  0.00    +0.000 A 
ATOM     14  C   UNL     1      -2.821  11.849  19.042  0.00  0.00    +0.000 A 
ATOM     15  C   UNL     1      -3.478  11.476  17.864  0.00  0.00    +0.000 A 
ATOM     16  C   UNL     1      -2.893  10.580  16.970  0.00  0.00    +0.000 A 
ATOM     17  C   UNL     1      -1.663   9.973  17.248  0.00  0.00    +0.000 A 
ATOM     18  C   UNL     1      -1.079  10.309  18.464  0.00  0.00    +0.000 A 
ATOM     19  O   UNL     1       0.013   9.708  19.008  0.00  0.00    +0.000 OA
ENDBRANCH  10  11
ENDBRANCH   7  10
ENDBRANCH   1   8
BRANCH   4  20
ATOM     20  C   UNL     1       4.322   3.298  18.272  0.00  0.00    +0.000 C 
BRANCH  20  21
ATOM     21  C   UNL     1       5.190   4.117  17.351  0.00  0.00    +0.000 A 
ATOM     22  C   UNL     1       5.126   3.873  15.965  0.00  0.00    +0.000 A 
ATOM     23  C   UNL     1       5.841   4.664  15.069  0.00  0.00    +0.000 A 
ATOM     24  C   UNL     1       6.632   5.708  15.541  0.00  0.00    +0.000 A 
ATOM     25  C   UNL     1       6.736   5.947  16.911  0.00  0.00    +0.000 A 
ATOM     26 CL   UNL     1       7.744   7.256  17.418  0.00  0.00    +0.000 Cl
ATOM     27  C   UNL     1       6.030   5.147  17.822  0.00  0.00    +0.000 A 
ATOM     28 CL   UNL     1       6.211   5.403  19.528  0.00  0.00    +0.000 Cl
ENDBRANCH  20  21
ENDBRANCH   4  20
TORSDOF 5
ENDMDL
MODEL 5
REMARK VINA RESULT:      -8.4      2.205      2.958
REMARK  Name = 
REMARK  5 active torsions:
REMARK  status: ('A' for Active; 'I' for Inactive)
REMARK    1  A    between atoms: C_2  and  C_3
REMARK    2  A    between atoms: C_2  and  C_20
REMARK    3  A    between atoms: C_4  and  C_5
REMARK    4  A    between atoms: N_8  and  C_9
REMARK    5  A    between atoms: C_9  and  C_10
REMARK                            x       y       z     vdW  Elec       q    Type
REMARK                         _______ _______ _______ _____ _____    ______ ____
ROOT
ATOM      1  C   UNL     1       7.606   7.745  17.668  0.00  0.00    +0.000 A 
ATOM      2  C   UNL     1       6.743   7.224  16.702  0.00  0.00    +0.000 A 
ATOM      3  C   UNL     1       6.141   5.997  16.913  0.00  0.00    +0.000 A 
ATOM      4  N   UNL     1       6.417   5.276  18.022  0.00  0.00    +0.000 N 
ATOM      5  C   UNL     1       7.379   5.690  18.882  0.00  0.00    +0.000 A 
ATOM      6  C   UNL     1       7.994   6.926  18.722  0.00  0.00    +0.000 A 
ENDROOT
BRANCH   1   8
ATOM      7  C   UNL     1       8.870   9.578  18.586  0.00  0.00    +0.000 C 
ATOM      8  C   UNL     1       7.971   9.163  17.677  0.00  0.00    +0.000 C 
BRANCH   7  10
ATOM      9  O   UNL     1      10.373  11.143  17.681  0.00  0.00    +0.000 OA
ATOM     10  C   UNL     1       9.559  10.903  18.579  0.00  0.00    +0.000 C 
BRANCH  10  11
ATOM     11  C   UNL     1       9.447  11.657  19.808  0.00  0.00    +0.000 A 
ATOM     12  C   UNL     1       9.591  11.256  21.121  0.00  0.00    +0.000 A 
ATOM     13  C   UNL     1       8.939  12.237  21.908  0.00  0.00    +0.000 A 
ATOM     14  C   UNL     1       8.506  12.330  23.240  0.00  0.00    +0.000 A 
ATOM     15  C   UNL     1       7.836  13.487  23.652  0.00  0.00    +0.000 A 
ATOM     16  C   UNL     1       7.658  14.561  22.780  0.00  0.00    +0.000 A 
ATOM     17  C   UNL     1       8.082  14.495  21.447  0.00  0.00    +0.000 A 
ATOM     18  C   UNL     1       8.672  13.298  21.055  0.00  0.00    +0.000 A 
ATOM     19  O   UNL     1       8.990  12.956  19.777  0.00  0.00    +0.000 OA
ENDBRANCH  10  11
ENDBRANCH   7  10
ENDBRANCH   1   8
BRANCH   4  20
ATOM     20  C   UNL     1       5.584   4.089  18.343  0.00  0.00    +0.000 C 
BRANCH  20  21
ATOM     21  C   UNL     1       4.367   4.471  19.145  0.00  0.00    +0.000 A 
ATOM     22  C   UNL     1       3.832   5.765  18.989  0.00  0.00    +0.000 A 
ATOM     23  C   UNL     1       2.658   6.133  19.641  0.00  0.00    +0.000 A 
ATOM     24  C   UNL     1       2.000   5.218  20.459  0.00  0.00    +0.000 A 
ATOM     25  C   UNL     1       2.529   3.943  20.654  0.00  0.00    +0.000 A 
ATOM     26 CL   UNL     1       1.658   2.868  21.689  0.00  0.00    +0.000 Cl
ATOM     27  C   UNL     1       3.719   3.567  20.011  0.00  0.00    +0.000 A 
ATOM     28 CL   UNL     1       4.411   2.004  20.305  0.00  0.00    +0.000 Cl
ENDBRANCH  20  21
ENDBRANCH   4  20
TORSDOF 5
ENDMDL
MODEL 6
REMARK VINA RESULT:      -8.3      5.075     10.592
REMARK  Name = 
REMARK  5 active torsions:
REMARK  status: ('A' for Active; 'I' for Inactive)
REMARK    1  A    between atoms: C_2  and  C_3
REMARK    2  A    between atoms: C_2  and  C_20
REMARK    3  A    between atoms: C_4  and  C_5
REMARK    4  A    between atoms: N_8  and  C_9
REMARK    5  A    between atoms: C_9  and  C_10
REMARK                            x       y       z     vdW  Elec       q    Type
REMARK                         _______ _______ _______ _____ _____    ______ ____
ROOT
ATOM      1  C   UNL     1       9.079   9.983  18.926  0.00  0.00    +0.000 A 
ATOM      2  C   UNL     1       9.439  10.748  17.814  0.00  0.00    +0.000 A 
ATOM      3  C   UNL     1      10.241  11.861  17.980  0.00  0.00    +0.000 A 
ATOM      4  N   UNL     1      10.639  12.246  19.213  0.00  0.00    +0.000 N 
ATOM      5  C   UNL     1      10.159  11.615  20.311  0.00  0.00    +0.000 A 
ATOM      6  C   UNL     1       9.369  10.478  20.193  0.00  0.00    +0.000 A 
ENDROOT
BRANCH   1   8
ATOM      7  C   UNL     1       7.755   8.362  17.735  0.00  0.00    +0.000 C 
ATOM      8  C   UNL     1       8.560   8.622  18.779  0.00  0.00    +0.000 C 
BRANCH   7  10
ATOM      9  O   UNL     1       7.806   6.578  16.203  0.00  0.00    +0.000 OA
ATOM     10  C   UNL     1       7.352   7.000  17.272  0.00  0.00    +0.000 C 
BRANCH  10  11
ATOM     11  C   UNL     1       6.214   6.433  17.961  0.00  0.00    +0.000 A 
ATOM     12  C   UNL     1       6.149   5.431  18.908  0.00  0.00    +0.000 A 
ATOM     13  C   UNL     1       4.811   4.963  18.899  0.00  0.00    +0.000 A 
ATOM     14  C   UNL     1       4.135   3.845  19.410  0.00  0.00    +0.000 A 
ATOM     15  C   UNL     1       2.768   3.704  19.147  0.00  0.00    +0.000 A 
ATOM     16  C   UNL     1       2.068   4.689  18.449  0.00  0.00    +0.000 A 
ATOM     17  C   UNL     1       2.718   5.815  17.930  0.00  0.00    +0.000 A 
ATOM     18  C   UNL     1       4.091   5.879  18.144  0.00  0.00    +0.000 A 
ATOM     19  O   UNL     1       4.936   6.782  17.581  0.00  0.00    +0.000 OA
ENDBRANCH  10  11
ENDBRANCH   7  10
ENDBRANCH   1   8
BRANCH   4  20
ATOM     20  C   UNL     1      11.687  13.290  19.345  0.00  0.00    +0.000 C 
BRANCH  20  21
ATOM     21  C   UNL     1      11.083  14.658  19.526  0.00  0.00    +0.000 A 
ATOM     22  C   UNL     1      10.691  15.059  20.819  0.00  0.00    +0.000 A 
ATOM     23  C   UNL     1      10.211  16.346  21.050  0.00  0.00    +0.000 A 
ATOM     24  C   UNL     1      10.112  17.251  19.997  0.00  0.00    +0.000 A 
ATOM     25  C   UNL     1      10.463  16.866  18.704  0.00  0.00    +0.000 A 
ATOM     26 CL   UNL     1      10.305  18.044  17.450  0.00  0.00    +0.000 Cl
ATOM     27  C   UNL     1      10.935  15.567  18.459  0.00  0.00    +0.000 A 
ATOM     28 CL   UNL     1      11.310  15.068  16.840  0.00  0.00    +0.000 Cl
ENDBRANCH  20  21
ENDBRANCH   4  20
TORSDOF 5
ENDMDL
MODEL 7
REMARK VINA RESULT:      -8.3      6.018      8.907
REMARK  Name = 
REMARK  5 active torsions:
REMARK  status: ('A' for Active; 'I' for Inactive)
REMARK    1  A    between atoms: C_2  and  C_3
REMARK    2  A    between atoms: C_2  and  C_20
REMARK    3  A    between atoms: C_4  and  C_5
REMARK    4  A    between atoms: N_8  and  C_9
REMARK    5  A    between atoms: C_9  and  C_10
REMARK                            x       y       z     vdW  Elec       q    Type
REMARK                         _______ _______ _______ _____ _____    ______ ____
ROOT
ATOM      1  C   UNL     1       1.583   6.732  20.469  0.00  0.00    +0.000 A 
ATOM      2  C   UNL     1       1.505   5.425  20.956  0.00  0.00    +0.000 A 
ATOM      3  C   UNL     1       2.449   4.493  20.565  0.00  0.00    +0.000 A 
ATOM      4  N   UNL     1       3.415   4.820  19.679  0.00  0.00    +0.000 N 
ATOM      5  C   UNL     1       3.400   6.031  19.071  0.00  0.00    +0.000 A 
ATOM      6  C   UNL     1       2.486   7.007  19.448  0.00  0.00    +0.000 A 
ENDROOT
BRANCH   1   8
ATOM      7  C   UNL     1       1.136   9.084  20.722  0.00  0.00    +0.000 C 
ATOM      8  C   UNL     1       0.861   7.830  21.115  0.00  0.00    +0.000 C 
BRANCH   7  10
ATOM      9  O   UNL     1       0.252  10.645  22.244  0.00  0.00    +0.000 OA
ATOM     10  C   UNL     1       0.328  10.294  21.062  0.00  0.00    +0.000 C 
BRANCH  10  11
ATOM     11  C   UNL     1      -0.553  10.755  20.011  0.00  0.00    +0.000 A 
ATOM     12  C   UNL     1      -1.564  11.694  20.038  0.00  0.00    +0.000 A 
ATOM     13  C   UNL     1      -2.382  11.428  18.912  0.00  0.00    +0.000 A 
ATOM     14  C   UNL     1      -3.659  11.821  18.484  0.00  0.00    +0.000 A 
ATOM     15  C   UNL     1      -4.163  11.293  17.290  0.00  0.00    +0.000 A 
ATOM     16  C   UNL     1      -3.388  10.444  16.499  0.00  0.00    +0.000 A 
ATOM     17  C   UNL     1      -2.110  10.038  16.902  0.00  0.00    +0.000 A 
ATOM     18  C   UNL     1      -1.677  10.522  18.132  0.00  0.00    +0.000 A 
ATOM     19  O   UNL     1      -0.557  10.117  18.790  0.00  0.00    +0.000 OA
ENDBRANCH  10  11
ENDBRANCH   7  10
ENDBRANCH   1   8
BRANCH   4  20
ATOM     20  C   UNL     1       4.549   3.885  19.462  0.00  0.00    +0.000 C 
BRANCH  20  21
ATOM     21  C   UNL     1       5.378   4.292  18.272  0.00  0.00    +0.000 A 
ATOM     22  C   UNL     1       6.619   4.921  18.494  0.00  0.00    +0.000 A 
ATOM     23  C   UNL     1       7.460   5.233  17.428  0.00  0.00    +0.000 A 
ATOM     24  C   UNL     1       7.076   4.926  16.126  0.00  0.00    +0.000 A 
ATOM     25  C   UNL     1       5.837   4.333  15.880  0.00  0.00    +0.000 A 
ATOM     26 CL   UNL     1       5.431   3.989  14.236  0.00  0.00    +0.000 Cl
ATOM     27  C   UNL     1       4.978   4.026  16.946  0.00  0.00    +0.000 A 
ATOM     28 CL   UNL     1       3.412   3.349  16.634  0.00  0.00    +0.000 Cl
ENDBRANCH  20  21
ENDBRANCH   4  20
TORSDOF 5
ENDMDL
MODEL 8
REMARK VINA RESULT:      -8.3      6.876      8.859
REMARK  Name = 
REMARK  5 active torsions:
REMARK  status: ('A' for Active; 'I' for Inactive)
REMARK    1  A    between atoms: C_2  and  C_3
REMARK    2  A    between atoms: C_2  and  C_20
REMARK    3  A    between atoms: C_4  and  C_5
REMARK    4  A    between atoms: N_8  and  C_9
REMARK    5  A    between atoms: C_9  and  C_10
REMARK                            x       y       z     vdW  Elec       q    Type
REMARK                         _______ _______ _______ _____ _____    ______ ____
ROOT
ATOM      1  C   UNL     1       2.437   7.510  18.595  0.00  0.00    +0.000 A 
ATOM      2  C   UNL     1       1.861   7.790  19.835  0.00  0.00    +0.000 A 
ATOM      3  C   UNL     1       1.237   9.006  20.041  0.00  0.00    +0.000 A 
ATOM      4  N   UNL     1       1.223   9.946  19.070  0.00  0.00    +0.000 N 
ATOM      5  C   UNL     1       1.922   9.754  17.926  0.00  0.00    +0.000 A 
ATOM      6  C   UNL     1       2.545   8.540  17.666  0.00  0.00    +0.000 A 
ENDROOT
BRANCH   1   8
ATOM      7  C   UNL     1       4.028   5.890  17.793  0.00  0.00    +0.000 C 
ATOM      8  C   UNL     1       2.774   6.140  18.202  0.00  0.00    +0.000 C 
BRANCH   7  10
ATOM      9  O   UNL     1       4.542   3.720  18.541  0.00  0.00    +0.000 OA
ATOM     10  C   UNL     1       4.626   4.533  17.614  0.00  0.00    +0.000 C 
BRANCH  10  11
ATOM     11  C   UNL     1       5.528   4.406  16.491  0.00  0.00    +0.000 A 
ATOM     12  C   UNL     1       6.716   5.055  16.219  0.00  0.00    +0.000 A 
ATOM     13  C   UNL     1       6.937   4.910  14.827  0.00  0.00    +0.000 A 
ATOM     14  C   UNL     1       7.786   5.502  13.878  0.00  0.00    +0.000 A 
ATOM     15  C   UNL     1       7.676   5.112  12.539  0.00  0.00    +0.000 A 
ATOM     16  C   UNL     1       6.790   4.104  12.157  0.00  0.00    +0.000 A 
ATOM     17  C   UNL     1       5.934   3.496  13.083  0.00  0.00    +0.000 A 
ATOM     18  C   UNL     1       6.017   3.967  14.389  0.00  0.00    +0.000 A 
ATOM     19  O   UNL     1       5.165   3.647  15.399  0.00  0.00    +0.000 OA
ENDBRANCH  10  11
ENDBRANCH   7  10
ENDBRANCH   1   8
BRANCH   4  20
ATOM     20  C   UNL     1       0.347  11.136  19.224  0.00  0.00    +0.000 C 
BRANCH  20  21
ATOM     21  C   UNL     1      -0.983  10.932  18.545  0.00  0.00    +0.000 A 
ATOM     22  C   UNL     1      -1.079   9.974  17.516  0.00  0.00    +0.000 A 
ATOM     23  C   UNL     1      -2.305   9.687  16.922  0.00  0.00    +0.000 A 
ATOM     24  C   UNL     1      -3.455  10.351  17.343  0.00  0.00    +0.000 A 
ATOM     25  C   UNL     1      -3.378  11.325  18.337  0.00  0.00    +0.000 A 
ATOM     26 CL   UNL     1      -4.848  12.109  18.800  0.00  0.00    +0.000 Cl
ATOM     27  C   UNL     1      -2.145  11.631  18.933  0.00  0.00    +0.000 A 
ATOM     28 CL   UNL     1      -2.040  12.888  20.123  0.00  0.00    +0.000 Cl
ENDBRANCH  20  21
ENDBRANCH   4  20
TORSDOF 5
ENDMDL
MODEL 9
REMARK VINA RESULT:      -8.2      7.031      9.284
REMARK  Name = 
REMARK  5 active torsions:
REMARK  status: ('A' for Active; 'I' for Inactive)
REMARK    1  A    between atoms: C_2  and  C_3
REMARK    2  A    between atoms: C_2  and  C_20
REMARK    3  A    between atoms: C_4  and  C_5
REMARK    4  A    between atoms: N_8  and  C_9
REMARK    5  A    between atoms: C_9  and  C_10
REMARK                            x       y       z     vdW  Elec       q    Type
REMARK                         _______ _______ _______ _____ _____    ______ ____
ROOT
ATOM      1  C   UNL     1       1.588   7.915  20.324  0.00  0.00    +0.000 A 
ATOM      2  C   UNL     1       0.890   8.649  21.285  0.00  0.00    +0.000 A 
ATOM      3  C   UNL     1       0.380   9.892  20.958  0.00  0.00    +0.000 A 
ATOM      4  N   UNL     1       0.593  10.425  19.735  0.00  0.00    +0.000 N 
ATOM      5  C   UNL     1       1.410   9.800  18.853  0.00  0.00    +0.000 A 
ATOM      6  C   UNL     1       1.927   8.540  19.128  0.00  0.00    +0.000 A 
ENDROOT
BRANCH   1   8
ATOM      7  C   UNL     1       2.258   5.787  19.418  0.00  0.00    +0.000 C 
ATOM      8  C   UNL     1       1.822   6.478  20.484  0.00  0.00    +0.000 C 
BRANCH   7  10
ATOM      9  O   UNL     1       2.437   3.638  20.358  0.00  0.00    +0.000 OA
ATOM     10  C   UNL     1       2.802   4.396  19.453  0.00  0.00    +0.000 C 
BRANCH  10  11
ATOM     11  C   UNL     1       3.954   4.169  18.608  0.00  0.00    +0.000 A 
ATOM     12  C   UNL     1       5.302   4.267  18.886  0.00  0.00    +0.000 A 
ATOM     13  C   UNL     1       5.956   4.396  17.636  0.00  0.00    +0.000 A 
ATOM     14  C   UNL     1       7.241   4.766  17.208  0.00  0.00    +0.000 A 
ATOM     15  C   UNL     1       7.506   4.818  15.836  0.00  0.00    +0.000 A 
ATOM     16  C   UNL     1       6.538   4.442  14.904  0.00  0.00    +0.000 A 
ATOM     17  C   UNL     1       5.250   4.066  15.304  0.00  0.00    +0.000 A 
ATOM     18  C   UNL     1       5.001   4.104  16.672  0.00  0.00    +0.000 A 
ATOM     19  O   UNL     1       3.783   3.954  17.257  0.00  0.00    +0.000 OA
ENDBRANCH  10  11
ENDBRANCH   7  10
ENDBRANCH   1   8
BRANCH   4  20
ATOM     20  C   UNL     1      -0.161  11.638  19.329  0.00  0.00    +0.000 C 
BRANCH  20  21
ATOM     21  C   UNL     1      -1.481  11.280  18.697  0.00  0.00    +0.000 A 
ATOM     22  C   UNL     1      -1.510  10.268  17.717  0.00  0.00    +0.000 A 
ATOM     23  C   UNL     1      -2.718   9.841  17.170  0.00  0.00    +0.000 A 
ATOM     24  C   UNL     1      -3.914  10.417  17.589  0.00  0.00    +0.000 A 
ATOM     25  C   UNL     1      -3.906  11.443  18.533  0.00  0.00    +0.000 A 
ATOM     26 CL   UNL     1      -5.431  12.112  18.996  0.00  0.00    +0.000 Cl
ATOM     27  C   UNL     1      -2.693  11.889  19.080  0.00  0.00    +0.000 A 
ATOM     28 CL   UNL     1      -2.680  13.209  20.206  0.00  0.00    +0.000 Cl
ENDBRANCH  20  21
ENDBRANCH   4  20
TORSDOF 5
ENDMDL
