MODEL 1
REMARK VINA RESULT:      -7.2      0.000      0.000
REMARK  Name = 
REMARK  16 active torsions:
REMARK  status: ('A' for Active; 'I' for Inactive)
REMARK    1  A    between atoms: C_1  and  N_2
REMARK    2  A    between atoms: N_2  and  C_3
REMARK    3  A    between atoms: C_3  and  C_4
REMARK    4  A    between atoms: C_3  and  C_12
REMARK    5  A    between atoms: C_4  and  C_5
REMARK    6  A    between atoms: C_8  and  O_9
REMARK    7  A    between atoms: C_12  and  N_13
REMARK    8  A    between atoms: N_13  and  C_14
REMARK    9  A    between atoms: N_13  and  C_15
REMARK   10  A    between atoms: C_15  and  C_16
REMARK   11  A    between atoms: C_15  and  C_25
REMARK   12  A    between atoms: C_16  and  N_17
REMARK   13  A    between atoms: N_17  and  C_18
REMARK   14  A    between atoms: C_18  and  C_19
REMARK   15  A    between atoms: C_25  and  C_26
REMARK   16  A    between atoms: C_29  and  O_30
REMARK                            x       y       z     vdW  Elec       q    Type
REMARK                         _______ _______ _______ _____ _____    ______ ____
ROOT
ATOM      1  C   UNL     1       2.529   6.529  19.251  0.00  0.00    +0.000 C 
ENDROOT
BRANCH   1   2
ATOM      2  N   UNL     1       2.448   8.027  19.044  0.00  0.00    +0.000 NA
ATOM      3  C   UNL     1       1.793   8.372  17.764  0.00  0.00    +0.000 C 
BRANCH   2   4
ATOM      4  C   UNL     1       1.720   8.800  20.114  0.00  0.00    +0.000 C 
BRANCH   4   5
ATOM      5  C   UNL     1       0.191   9.135  19.978  0.00  0.00    +0.000 C 
BRANCH   5   7
ATOM      6  C   UNL     1       0.062   9.847  22.313  0.00  0.00    +0.000 C 
ATOM      7  N   UNL     1      -0.500   9.000  21.272  0.00  0.00    +0.000 NA
ATOM      8  H   UNL     1      -1.487   9.209  21.129  0.00  0.00    +0.000 HD
ENDBRANCH   5   7
BRANCH   5   9
ATOM      9  C   UNL     1      -0.077  10.526  19.339  0.00  0.00    +0.000 C 
BRANCH   9  10
ATOM     10  C   UNL     1      -1.369  10.657  18.568  0.00  0.00    +0.000 A 
ATOM     11  C   UNL     1      -1.558   9.933  17.387  0.00  0.00    +0.000 A 
ATOM     12  C   UNL     1      -2.721  10.093  16.639  0.00  0.00    +0.000 A 
ATOM     13  C   UNL     1      -3.704  10.978  17.071  0.00  0.00    +0.000 A 
ATOM     14  C   UNL     1      -3.545  11.696  18.250  0.00  0.00    +0.000 A 
ATOM     15  C   UNL     1      -2.383  11.533  18.993  0.00  0.00    +0.000 A 
BRANCH  13  16
ATOM     16  O   UNL     1      -4.846  11.172  16.367  0.00  0.00    +0.000 OA
ATOM     17  H   UNL     1      -5.499  11.583  16.955  0.00  0.00    +0.000 HD
ENDBRANCH  13  16
ENDBRANCH   9  10
ENDBRANCH   5   9
ENDBRANCH   4   5
ENDBRANCH   2   4
ENDBRANCH   1   2
BRANCH   1  18
ATOM     18  C   UNL     1       1.596   6.073  20.419  0.00  0.00    +0.000 C 
BRANCH  18  19
ATOM     19  N   UNL     1       2.268   5.095  21.270  0.00  0.00    +0.000 NA
ATOM     20  H   UNL     1       2.292   5.428  22.235  0.00  0.00    +0.000 HD
BRANCH  19  21
ATOM     21  C   UNL     1       1.692   3.773  21.145  0.00  0.00    +0.000 C 
BRANCH  21  22
ATOM     22  C   UNL     1       2.363   3.014  20.041  0.00  0.00    +0.000 A 
ATOM     23  C   UNL     1       3.630   2.438  20.212  0.00  0.00    +0.000 A 
ATOM     24  C   UNL     1       4.246   1.770  19.156  0.00  0.00    +0.000 A 
ATOM     25  C   UNL     1       3.598   1.677  17.925  0.00  0.00    +0.000 A 
ATOM     26  C   UNL     1       2.340   2.256  17.746  0.00  0.00    +0.000 A 
ATOM     27  C   UNL     1       1.729   2.924  18.798  0.00  0.00    +0.000 A 
ENDBRANCH  21  22
ENDBRANCH  19  21
ENDBRANCH  18  19
ENDBRANCH   1  18
BRANCH   1  28
ATOM     28  C   UNL     1       3.960   5.971  19.623  0.00  0.00    +0.000 C 
BRANCH  28  29
ATOM     29  C   UNL     1       4.849   5.560  18.453  0.00  0.00    +0.000 A 
ATOM     30  C   UNL     1       4.374   5.556  17.131  0.00  0.00    +0.000 A 
ATOM     31  C   UNL     1       5.205   5.192  16.069  0.00  0.00    +0.000 A 
ATOM     32  C   UNL     1       6.532   4.866  16.319  0.00  0.00    +0.000 A 
ATOM     33  C   UNL     1       7.024   4.847  17.618  0.00  0.00    +0.000 A 
ATOM     34  C   UNL     1       6.185   5.190  18.683  0.00  0.00    +0.000 A 
BRANCH  32  35
ATOM     35  O   UNL     1       7.390   4.575  15.301  0.00  0.00    +0.000 OA
ATOM     36  H   UNL     1       6.881   4.546  14.475  0.00  0.00    +0.000 HD
ENDBRANCH  32  35
ENDBRANCH  28  29
ENDBRANCH   1  28
TORSDOF 14
ENDMDL
MODEL 2
REMARK VINA RESULT:      -7.0      1.684      3.751
REMARK  Name = 
REMARK  16 active torsions:
REMARK  status: ('A' for Active; 'I' for Inactive)
REMARK    1  A    between atoms: C_1  and  N_2
REMARK    2  A    between atoms: N_2  and  C_3
REMARK    3  A    between atoms: C_3  and  C_4
REMARK    4  A    between atoms: C_3  and  C_12
REMARK    5  A    between atoms: C_4  and  C_5
REMARK    6  A    between atoms: C_8  and  O_9
REMARK    7  A    between atoms: C_12  and  N_13
REMARK    8  A    between atoms: N_13  and  C_14
REMARK    9  A    between atoms: N_13  and  C_15
REMARK   10  A    between atoms: C_15  and  C_16
REMARK   11  A    between atoms: C_15  and  C_25
REMARK   12  A    between atoms: C_16  and  N_17
REMARK   13  A    between atoms: N_17  and  C_18
REMARK   14  A    between atoms: C_18  and  C_19
REMARK   15  A    between atoms: C_25  and  C_26
REMARK   16  A    between atoms: C_29  and  O_30
REMARK                            x       y       z     vdW  Elec       q    Type
REMARK                         _______ _______ _______ _____ _____    ______ ____
ROOT
ATOM      1  C   UNL     1       2.180   6.819  19.755  0.00  0.00    +0.000 C 
ENDROOT
BRANCH   1   2
ATOM      2  N   UNL     1       1.309   8.034  19.999  0.00  0.00    +0.000 NA
ATOM      3  C   UNL     1       1.462   8.554  21.375  0.00  0.00    +0.000 C 
BRANCH   2   4
ATOM      4  C   UNL     1       1.540   9.204  19.076  0.00  0.00    +0.000 C 
BRANCH   4   5
ATOM      5  C   UNL     1       0.363  10.157  18.661  0.00  0.00    +0.000 C 
BRANCH   5   7
ATOM      6  C   UNL     1       0.926  12.407  19.435  0.00  0.00    +0.000 C 
ATOM      7  N   UNL     1       0.863  11.495  18.302  0.00  0.00    +0.000 NA
ATOM      8  H   UNL     1       1.781  11.387  17.873  0.00  0.00    +0.000 HD
ENDBRANCH   5   7
BRANCH   5   9
ATOM      9  C   UNL     1      -0.534   9.569  17.536  0.00  0.00    +0.000 C 
BRANCH   9  10
ATOM     10  C   UNL     1      -1.869  10.247  17.339  0.00  0.00    +0.000 A 
ATOM     11  C   UNL     1      -2.499  10.883  18.413  0.00  0.00    +0.000 A 
ATOM     12  C   UNL     1      -3.756  11.458  18.255  0.00  0.00    +0.000 A 
ATOM     13  C   UNL     1      -4.391  11.403  17.018  0.00  0.00    +0.000 A 
ATOM     14  C   UNL     1      -3.778  10.791  15.931  0.00  0.00    +0.000 A 
ATOM     15  C   UNL     1      -2.522  10.218  16.094  0.00  0.00    +0.000 A 
BRANCH  13  16
ATOM     16  O   UNL     1      -5.620  11.940  16.823  0.00  0.00    +0.000 OA
ATOM     17  H   UNL     1      -5.574  12.886  17.032  0.00  0.00    +0.000 HD
ENDBRANCH  13  16
ENDBRANCH   9  10
ENDBRANCH   5   9
ENDBRANCH   4   5
ENDBRANCH   2   4
ENDBRANCH   1   2
BRANCH   1  18
ATOM     18  C   UNL     1       2.445   6.616  18.229  0.00  0.00    +0.000 C 
BRANCH  18  19
ATOM     19  N   UNL     1       3.784   7.073  17.869  0.00  0.00    +0.000 NA
ATOM     20  H   UNL     1       3.928   8.031  18.193  0.00  0.00    +0.000 HD
BRANCH  19  21
ATOM     21  C   UNL     1       4.815   6.165  18.328  0.00  0.00    +0.000 C 
BRANCH  21  22
ATOM     22  C   UNL     1       5.463   5.480  17.162  0.00  0.00    +0.000 A 
ATOM     23  C   UNL     1       6.692   5.916  16.648  0.00  0.00    +0.000 A 
ATOM     24  C   UNL     1       7.253   5.284  15.541  0.00  0.00    +0.000 A 
ATOM     25  C   UNL     1       6.586   4.215  14.942  0.00  0.00    +0.000 A 
ATOM     26  C   UNL     1       5.357   3.782  15.445  0.00  0.00    +0.000 A 
ATOM     27  C   UNL     1       4.797   4.416  16.547  0.00  0.00    +0.000 A 
ENDBRANCH  21  22
ENDBRANCH  19  21
ENDBRANCH  18  19
ENDBRANCH   1  18
BRANCH   1  28
ATOM     28  C   UNL     1       1.583   5.444  20.258  0.00  0.00    +0.000 C 
BRANCH  28  29
ATOM     29  C   UNL     1       2.258   4.183  19.727  0.00  0.00    +0.000 A 
ATOM     30  C   UNL     1       3.450   3.692  20.286  0.00  0.00    +0.000 A 
ATOM     31  C   UNL     1       4.046   2.527  19.798  0.00  0.00    +0.000 A 
ATOM     32  C   UNL     1       3.432   1.822  18.770  0.00  0.00    +0.000 A 
ATOM     33  C   UNL     1       2.262   2.292  18.189  0.00  0.00    +0.000 A 
ATOM     34  C   UNL     1       1.677   3.471  18.664  0.00  0.00    +0.000 A 
BRANCH  32  35
ATOM     35  O   UNL     1       3.948   0.644  18.317  0.00  0.00    +0.000 OA
ATOM     36  H   UNL     1       4.252   0.778  17.404  0.00  0.00    +0.000 HD
ENDBRANCH  32  35
ENDBRANCH  28  29
ENDBRANCH   1  28
TORSDOF 14
ENDMDL
MODEL 3
REMARK VINA RESULT:      -7.0      0.764      1.421
REMARK  Name = 
REMARK  16 active torsions:
REMARK  status: ('A' for Active; 'I' for Inactive)
REMARK    1  A    between atoms: C_1  and  N_2
REMARK    2  A    between atoms: N_2  and  C_3
REMARK    3  A    between atoms: C_3  and  C_4
REMARK    4  A    between atoms: C_3  and  C_12
REMARK    5  A    between atoms: C_4  and  C_5
REMARK    6  A    between atoms: C_8  and  O_9
REMARK    7  A    between atoms: C_12  and  N_13
REMARK    8  A    between atoms: N_13  and  C_14
REMARK    9  A    between atoms: N_13  and  C_15
REMARK   10  A    between atoms: C_15  and  C_16
REMARK   11  A    between atoms: C_15  and  C_25
REMARK   12  A    between atoms: C_16  and  N_17
REMARK   13  A    between atoms: N_17  and  C_18
REMARK   14  A    between atoms: C_18  and  C_19
REMARK   15  A    between atoms: C_25  and  C_26
REMARK   16  A    between atoms: C_29  and  O_30
REMARK                            x       y       z     vdW  Elec       q    Type
REMARK                         _______ _______ _______ _____ _____    ______ ____
ROOT
ATOM      1  C   UNL     1       2.518   6.436  19.418  0.00  0.00    +0.000 C 
ENDROOT
BRANCH   1   2
ATOM      2  N   UNL     1       2.177   7.899  19.231  0.00  0.00    +0.000 NA
ATOM      3  C   UNL     1       2.579   8.392  17.897  0.00  0.00    +0.000 C 
BRANCH   2   4
ATOM      4  C   UNL     1       0.723   8.261  19.396  0.00  0.00    +0.000 C 
BRANCH   4   5
ATOM      5  C   UNL     1       0.293   9.624  20.049  0.00  0.00    +0.000 C 
BRANCH   5   7
ATOM      6  C   UNL     1       1.095   9.233  22.325  0.00  0.00    +0.000 C 
ATOM      7  N   UNL     1       1.232  10.025  21.111  0.00  0.00    +0.000 NA
ATOM      8  H   UNL     1       2.179   9.957  20.740  0.00  0.00    +0.000 HD
ENDBRANCH   5   7
BRANCH   5   9
ATOM      9  C   UNL     1       0.095  10.764  19.012  0.00  0.00    +0.000 C 
BRANCH   9  10
ATOM     10  C   UNL     1      -1.285  10.868  18.406  0.00  0.00    +0.000 A 
ATOM     11  C   UNL     1      -2.249  11.692  18.995  0.00  0.00    +0.000 A 
ATOM     12  C   UNL     1      -3.541  11.748  18.478  0.00  0.00    +0.000 A 
ATOM     13  C   UNL     1      -3.874  10.980  17.367  0.00  0.00    +0.000 A 
ATOM     14  C   UNL     1      -2.929  10.166  16.756  0.00  0.00    +0.000 A 
ATOM     15  C   UNL     1      -1.641  10.113  17.275  0.00  0.00    +0.000 A 
BRANCH  13  16
ATOM     16  O   UNL     1      -5.123  10.996  16.839  0.00  0.00    +0.000 OA
ATOM     17  H   UNL     1      -5.046  11.135  15.882  0.00  0.00    +0.000 HD
ENDBRANCH  13  16
ENDBRANCH   9  10
ENDBRANCH   5   9
ENDBRANCH   4   5
ENDBRANCH   2   4
ENDBRANCH   1   2
BRANCH   1  18
ATOM     18  C   UNL     1       1.894   5.878  20.738  0.00  0.00    +0.000 C 
BRANCH  18  19
ATOM     19  N   UNL     1       0.886   4.863  20.449  0.00  0.00    +0.000 NA
ATOM     20  H   UNL     1       0.669   4.858  19.451  0.00  0.00    +0.000 HD
BRANCH  19  21
ATOM     21  C   UNL     1       1.264   3.557  20.948  0.00  0.00    +0.000 C 
BRANCH  21  22
ATOM     22  C   UNL     1       2.151   2.859  19.960  0.00  0.00    +0.000 A 
ATOM     23  C   UNL     1       1.683   2.488  18.691  0.00  0.00    +0.000 A 
ATOM     24  C   UNL     1       2.517   1.807  17.808  0.00  0.00    +0.000 A 
ATOM     25  C   UNL     1       3.821   1.493  18.191  0.00  0.00    +0.000 A 
ATOM     26  C   UNL     1       4.289   1.852  19.456  0.00  0.00    +0.000 A 
ATOM     27  C   UNL     1       3.455   2.528  20.337  0.00  0.00    +0.000 A 
ENDBRANCH  21  22
ENDBRANCH  19  21
ENDBRANCH  18  19
ENDBRANCH   1  18
BRANCH   1  28
ATOM     28  C   UNL     1       4.060   6.104  19.517  0.00  0.00    +0.000 C 
BRANCH  28  29
ATOM     29  C   UNL     1       4.672   5.380  18.321  0.00  0.00    +0.000 A 
ATOM     30  C   UNL     1       3.918   5.078  17.175  0.00  0.00    +0.000 A 
ATOM     31  C   UNL     1       4.498   4.429  16.084  0.00  0.00    +0.000 A 
ATOM     32  C   UNL     1       5.849   4.110  16.115  0.00  0.00    +0.000 A 
ATOM     33  C   UNL     1       6.616   4.382  17.241  0.00  0.00    +0.000 A 
ATOM     34  C   UNL     1       6.029   5.013  18.343  0.00  0.00    +0.000 A 
BRANCH  32  35
ATOM     35  O   UNL     1       6.465   3.539  15.041  0.00  0.00    +0.000 OA
ATOM     36  H   UNL     1       6.816   4.250  14.480  0.00  0.00    +0.000 HD
ENDBRANCH  32  35
ENDBRANCH  28  29
ENDBRANCH   1  28
TORSDOF 14
ENDMDL
MODEL 4
REMARK VINA RESULT:      -6.9      4.281      7.621
REMARK  Name = 
REMARK  16 active torsions:
REMARK  status: ('A' for Active; 'I' for Inactive)
REMARK    1  A    between atoms: C_1  and  N_2
REMARK    2  A    between atoms: N_2  and  C_3
REMARK    3  A    between atoms: C_3  and  C_4
REMARK    4  A    between atoms: C_3  and  C_12
REMARK    5  A    between atoms: C_4  and  C_5
REMARK    6  A    between atoms: C_8  and  O_9
REMARK    7  A    between atoms: C_12  and  N_13
REMARK    8  A    between atoms: N_13  and  C_14
REMARK    9  A    between atoms: N_13  and  C_15
REMARK   10  A    between atoms: C_15  and  C_16
REMARK   11  A    between atoms: C_15  and  C_25
REMARK   12  A    between atoms: C_16  and  N_17
REMARK   13  A    between atoms: N_17  and  C_18
REMARK   14  A    between atoms: C_18  and  C_19
REMARK   15  A    between atoms: C_25  and  C_26
REMARK   16  A    between atoms: C_29  and  O_30
REMARK                            x       y       z     vdW  Elec       q    Type
REMARK                         _______ _______ _______ _____ _____    ______ ____
ROOT
ATOM      1  C   UNL     1       4.833   5.755  17.811  0.00  0.00    +0.000 C 
ENDROOT
BRANCH   1   2
ATOM      2  N   UNL     1       5.738   6.399  16.782  0.00  0.00    +0.000 NA
ATOM      3  C   UNL     1       5.056   6.579  15.483  0.00  0.00    +0.000 C 
BRANCH   2   4
ATOM      4  C   UNL     1       6.303   7.747  17.154  0.00  0.00    +0.000 C 
BRANCH   4   5
ATOM      5  C   UNL     1       7.602   7.871  18.027  0.00  0.00    +0.000 C 
BRANCH   5   7
ATOM      6  C   UNL     1       7.969   5.963  19.512  0.00  0.00    +0.000 C 
ATOM      7  N   UNL     1       8.246   6.559  18.212  0.00  0.00    +0.000 NA
ATOM      8  H   UNL     1       7.940   5.944  17.460  0.00  0.00    +0.000 HD
ENDBRANCH   5   7
BRANCH   5   9
ATOM      9  C   UNL     1       8.609   8.921  17.481  0.00  0.00    +0.000 C 
BRANCH   9  10
ATOM     10  C   UNL     1       8.811  10.146  18.340  0.00  0.00    +0.000 A 
ATOM     11  C   UNL     1       8.549  11.418  17.821  0.00  0.00    +0.000 A 
ATOM     12  C   UNL     1       8.789  12.556  18.586  0.00  0.00    +0.000 A 
ATOM     13  C   UNL     1       9.292  12.428  19.877  0.00  0.00    +0.000 A 
ATOM     14  C   UNL     1       9.546  11.174  20.420  0.00  0.00    +0.000 A 
ATOM     15  C   UNL     1       9.304  10.041  19.653  0.00  0.00    +0.000 A 
BRANCH  13  16
ATOM     16  O   UNL     1       9.551  13.510  20.651  0.00  0.00    +0.000 OA
ATOM     17  H   UNL     1       8.735  13.754  21.114  0.00  0.00    +0.000 HD
ENDBRANCH  13  16
ENDBRANCH   9  10
ENDBRANCH   5   9
ENDBRANCH   4   5
ENDBRANCH   2   4
ENDBRANCH   1   2
BRANCH   1  18
ATOM     18  C   UNL     1       5.052   4.209  17.863  0.00  0.00    +0.000 C 
BRANCH  18  19
ATOM     19  N   UNL     1       3.976   3.507  17.169  0.00  0.00    +0.000 NA
ATOM     20  H   UNL     1       4.241   3.331  16.198  0.00  0.00    +0.000 HD
BRANCH  19  21
ATOM     21  C   UNL     1       3.567   2.306  17.866  0.00  0.00    +0.000 C 
BRANCH  21  22
ATOM     22  C   UNL     1       2.776   2.658  19.090  0.00  0.00    +0.000 A 
ATOM     23  C   UNL     1       3.312   2.505  20.377  0.00  0.00    +0.000 A 
ATOM     24  C   UNL     1       2.541   2.804  21.498  0.00  0.00    +0.000 A 
ATOM     25  C   UNL     1       1.231   3.256  21.337  0.00  0.00    +0.000 A 
ATOM     26  C   UNL     1       0.690   3.401  20.058  0.00  0.00    +0.000 A 
ATOM     27  C   UNL     1       1.458   3.099  18.941  0.00  0.00    +0.000 A 
ENDBRANCH  21  22
ENDBRANCH  19  21
ENDBRANCH  18  19
ENDBRANCH   1  18
BRANCH   1  28
ATOM     28  C   UNL     1       3.283   5.945  17.565  0.00  0.00    +0.000 C 
BRANCH  28  29
ATOM     29  C   UNL     1       2.587   6.992  18.431  0.00  0.00    +0.000 A 
ATOM     30  C   UNL     1       2.142   8.214  17.898  0.00  0.00    +0.000 A 
ATOM     31  C   UNL     1       1.493   9.154  18.701  0.00  0.00    +0.000 A 
ATOM     32  C   UNL     1       1.248   8.862  20.037  0.00  0.00    +0.000 A 
ATOM     33  C   UNL     1       1.690   7.668  20.593  0.00  0.00    +0.000 A 
ATOM     34  C   UNL     1       2.359   6.736  19.794  0.00  0.00    +0.000 A 
BRANCH  32  35
ATOM     35  O   UNL     1       0.556   9.725  20.832  0.00  0.00    +0.000 OA
ATOM     36  H   UNL     1      -0.296   9.316  21.054  0.00  0.00    +0.000 HD
ENDBRANCH  32  35
ENDBRANCH  28  29
ENDBRANCH   1  28
TORSDOF 14
ENDMDL
MODEL 5
REMARK VINA RESULT:      -6.9      4.341      7.704
REMARK  Name = 
REMARK  16 active torsions:
REMARK  status: ('A' for Active; 'I' for Inactive)
REMARK    1  A    between atoms: C_1  and  N_2
REMARK    2  A    between atoms: N_2  and  C_3
REMARK    3  A    between atoms: C_3  and  C_4
REMARK    4  A    between atoms: C_3  and  C_12
REMARK    5  A    between atoms: C_4  and  C_5
REMARK    6  A    between atoms: C_8  and  O_9
REMARK    7  A    between atoms: C_12  and  N_13
REMARK    8  A    between atoms: N_13  and  C_14
REMARK    9  A    between atoms: N_13  and  C_15
REMARK   10  A    between atoms: C_15  and  C_16
REMARK   11  A    between atoms: C_15  and  C_25
REMARK   12  A    between atoms: C_16  and  N_17
REMARK   13  A    between atoms: N_17  and  C_18
REMARK   14  A    between atoms: C_18  and  C_19
REMARK   15  A    between atoms: C_25  and  C_26
REMARK   16  A    between atoms: C_29  and  O_30
REMARK                            x       y       z     vdW  Elec       q    Type
REMARK                         _______ _______ _______ _____ _____    ______ ____
ROOT
ATOM      1  C   UNL     1       4.828   5.354  17.343  0.00  0.00    +0.000 C 
ENDROOT
BRANCH   1   2
ATOM      2  N   UNL     1       6.291   5.726  17.219  0.00  0.00    +0.000 NA
ATOM      3  C   UNL     1       6.907   5.143  16.008  0.00  0.00    +0.000 C 
BRANCH   2   4
ATOM      4  C   UNL     1       6.592   7.203  17.179  0.00  0.00    +0.000 C 
BRANCH   4   5
ATOM      5  C   UNL     1       7.630   7.849  18.165  0.00  0.00    +0.000 C 
BRANCH   5   7
ATOM      6  C   UNL     1       7.700   5.918  19.663  0.00  0.00    +0.000 C 
ATOM      7  N   UNL     1       8.463   6.819  18.810  0.00  0.00    +0.000 NA
ATOM      8  H   UNL     1       8.950   6.300  18.081  0.00  0.00    +0.000 HD
ENDBRANCH   5   7
BRANCH   5   9
ATOM      9  C   UNL     1       8.506   8.947  17.500  0.00  0.00    +0.000 C 
BRANCH   9  10
ATOM     10  C   UNL     1       8.793  10.161  18.350  0.00  0.00    +0.000 A 
ATOM     11  C   UNL     1       8.680  11.443  17.803  0.00  0.00    +0.000 A 
ATOM     12  C   UNL     1       9.000  12.566  18.562  0.00  0.00    +0.000 A 
ATOM     13  C   UNL     1       9.435  12.412  19.874  0.00  0.00    +0.000 A 
ATOM     14  C   UNL     1       9.541  11.149  20.445  0.00  0.00    +0.000 A 
ATOM     15  C   UNL     1       9.219  10.031  19.684  0.00  0.00    +0.000 A 
BRANCH  13  16
ATOM     16  O   UNL     1       9.768  13.477  20.644  0.00  0.00    +0.000 OA
ATOM     17  H   UNL     1      10.668  13.339  20.980  0.00  0.00    +0.000 HD
ENDBRANCH  13  16
ENDBRANCH   9  10
ENDBRANCH   5   9
ENDBRANCH   4   5
ENDBRANCH   2   4
ENDBRANCH   1   2
BRANCH   1  18
ATOM     18  C   UNL     1       4.458   4.197  16.361  0.00  0.00    +0.000 C 
BRANCH  18  19
ATOM     19  N   UNL     1       3.324   3.428  16.867  0.00  0.00    +0.000 NA
ATOM     20  H   UNL     1       2.835   2.975  16.094  0.00  0.00    +0.000 HD
BRANCH  19  21
ATOM     21  C   UNL     1       3.713   2.499  17.908  0.00  0.00    +0.000 C 
BRANCH  21  22
ATOM     22  C   UNL     1       2.831   2.662  19.109  0.00  0.00    +0.000 A 
ATOM     23  C   UNL     1       1.462   2.940  18.980  0.00  0.00    +0.000 A 
ATOM     24  C   UNL     1       0.673   3.123  20.113  0.00  0.00    +0.000 A 
ATOM     25  C   UNL     1       1.250   3.032  21.379  0.00  0.00    +0.000 A 
ATOM     26  C   UNL     1       2.614   2.764  21.514  0.00  0.00    +0.000 A 
ATOM     27  C   UNL     1       3.400   2.585  20.383  0.00  0.00    +0.000 A 
ENDBRANCH  21  22
ENDBRANCH  19  21
ENDBRANCH  18  19
ENDBRANCH   1  18
BRANCH   1  28
ATOM     28  C   UNL     1       3.803   6.514  17.021  0.00  0.00    +0.000 C 
BRANCH  28  29
ATOM     29  C   UNL     1       2.999   7.051  18.202  0.00  0.00    +0.000 A 
ATOM     30  C   UNL     1       2.369   8.305  18.157  0.00  0.00    +0.000 A 
ATOM     31  C   UNL     1       1.624   8.774  19.241  0.00  0.00    +0.000 A 
ATOM     32  C   UNL     1       1.472   7.973  20.365  0.00  0.00    +0.000 A 
ATOM     33  C   UNL     1       2.096   6.735  20.443  0.00  0.00    +0.000 A 
ATOM     34  C   UNL     1       2.860   6.275  19.366  0.00  0.00    +0.000 A 
BRANCH  32  35
ATOM     35  O   UNL     1       0.694   8.369  21.413  0.00  0.00    +0.000 OA
ATOM     36  H   UNL     1       1.275   8.727  22.103  0.00  0.00    +0.000 HD
ENDBRANCH  32  35
ENDBRANCH  28  29
ENDBRANCH   1  28
TORSDOF 14
ENDMDL
MODEL 6
REMARK VINA RESULT:      -6.9      4.167      7.623
REMARK  Name = 
REMARK  16 active torsions:
REMARK  status: ('A' for Active; 'I' for Inactive)
REMARK    1  A    between atoms: C_1  and  N_2
REMARK    2  A    between atoms: N_2  and  C_3
REMARK    3  A    between atoms: C_3  and  C_4
REMARK    4  A    between atoms: C_3  and  C_12
REMARK    5  A    between atoms: C_4  and  C_5
REMARK    6  A    between atoms: C_8  and  O_9
REMARK    7  A    between atoms: C_12  and  N_13
REMARK    8  A    between atoms: N_13  and  C_14
REMARK    9  A    between atoms: N_13  and  C_15
REMARK   10  A    between atoms: C_15  and  C_16
REMARK   11  A    between atoms: C_15  and  C_25
REMARK   12  A    between atoms: C_16  and  N_17
REMARK   13  A    between atoms: N_17  and  C_18
REMARK   14  A    between atoms: C_18  and  C_19
REMARK   15  A    between atoms: C_25  and  C_26
REMARK   16  A    between atoms: C_29  and  O_30
REMARK                            x       y       z     vdW  Elec       q    Type
REMARK                         _______ _______ _______ _____ _____    ______ ____
ROOT
ATOM      1  C   UNL     1       4.576   5.380  18.018  0.00  0.00    +0.000 C 
ENDROOT
BRANCH   1   2
ATOM      2  N   UNL     1       5.723   5.838  17.142  0.00  0.00    +0.000 NA
ATOM      3  C   UNL     1       5.426   5.657  15.705  0.00  0.00    +0.000 C 
BRANCH   2   4
ATOM      4  C   UNL     1       6.144   7.276  17.310  0.00  0.00    +0.000 C 
BRANCH   4   5
ATOM      5  C   UNL     1       7.435   7.657  18.119  0.00  0.00    +0.000 C 
BRANCH   5   7
ATOM      6  C   UNL     1       7.844   5.883  19.752  0.00  0.00    +0.000 C 
ATOM      7  N   UNL     1       8.218   6.458  18.467  0.00  0.00    +0.000 NA
ATOM      8  H   UNL     1       8.104   5.776  17.719  0.00  0.00    +0.000 HD
ENDBRANCH   5   7
BRANCH   5   9
ATOM      9  C   UNL     1       8.317   8.717  17.403  0.00  0.00    +0.000 C 
BRANCH   9  10
ATOM     10  C   UNL     1       8.673   9.936  18.221  0.00  0.00    +0.000 A 
ATOM     11  C   UNL     1       8.622  11.208  17.643  0.00  0.00    +0.000 A 
ATOM     12  C   UNL     1       9.006  12.330  18.371  0.00  0.00    +0.000 A 
ATOM     13  C   UNL     1       9.443  12.186  19.684  0.00  0.00    +0.000 A 
ATOM     14  C   UNL     1       9.488  10.934  20.285  0.00  0.00    +0.000 A 
ATOM     15  C   UNL     1       9.103   9.816  19.554  0.00  0.00    +0.000 A 
BRANCH  13  16
ATOM     16  O   UNL     1       9.837  13.251  20.425  0.00  0.00    +0.000 OA
ATOM     17  H   UNL     1       9.778  14.045  19.870  0.00  0.00    +0.000 HD
ENDBRANCH  13  16
ENDBRANCH   9  10
ENDBRANCH   5   9
ENDBRANCH   4   5
ENDBRANCH   2   4
ENDBRANCH   1   2
BRANCH   1  18
ATOM     18  C   UNL     1       4.478   3.821  18.044  0.00  0.00    +0.000 C 
BRANCH  18  19
ATOM     19  N   UNL     1       5.267   3.268  19.142  0.00  0.00    +0.000 NA
ATOM     20  H   UNL     1       5.637   4.022  19.722  0.00  0.00    +0.000 HD
BRANCH  19  21
ATOM     21  C   UNL     1       4.529   2.283  19.905  0.00  0.00    +0.000 C 
BRANCH  21  22
ATOM     22  C   UNL     1       3.073   2.638  19.945  0.00  0.00    +0.000 A 
ATOM     23  C   UNL     1       2.498   3.241  21.073  0.00  0.00    +0.000 A 
ATOM     24  C   UNL     1       1.135   3.526  21.098  0.00  0.00    +0.000 A 
ATOM     25  C   UNL     1       0.342   3.208  19.995  0.00  0.00    +0.000 A 
ATOM     26  C   UNL     1       0.908   2.600  18.873  0.00  0.00    +0.000 A 
ATOM     27  C   UNL     1       2.266   2.313  18.851  0.00  0.00    +0.000 A 
ENDBRANCH  21  22
ENDBRANCH  19  21
ENDBRANCH  18  19
ENDBRANCH   1  18
BRANCH   1  28
ATOM     28  C   UNL     1       3.142   5.877  17.575  0.00  0.00    +0.000 C 
BRANCH  28  29
ATOM     29  C   UNL     1       2.482   6.917  18.476  0.00  0.00    +0.000 A 
ATOM     30  C   UNL     1       2.271   6.681  19.845  0.00  0.00    +0.000 A 
ATOM     31  C   UNL     1       1.679   7.650  20.658  0.00  0.00    +0.000 A 
ATOM     32  C   UNL     1       1.328   8.879  20.115  0.00  0.00    +0.000 A 
ATOM     33  C   UNL     1       1.510   9.134  18.762  0.00  0.00    +0.000 A 
ATOM     34  C   UNL     1       2.083   8.155  17.944  0.00  0.00    +0.000 A 
BRANCH  32  35
ATOM     35  O   UNL     1       0.813   9.873  20.894  0.00  0.00    +0.000 OA
ATOM     36  H   UNL     1       0.365   9.463  21.652  0.00  0.00    +0.000 HD
ENDBRANCH  32  35
ENDBRANCH  28  29
ENDBRANCH   1  28
TORSDOF 14
ENDMDL
MODEL 7
REMARK VINA RESULT:      -6.9      2.356      9.076
REMARK  Name = 
REMARK  16 active torsions:
REMARK  status: ('A' for Active; 'I' for Inactive)
REMARK    1  A    between atoms: C_1  and  N_2
REMARK    2  A    between atoms: N_2  and  C_3
REMARK    3  A    between atoms: C_3  and  C_4
REMARK    4  A    between atoms: C_3  and  C_12
REMARK    5  A    between atoms: C_4  and  C_5
REMARK    6  A    between atoms: C_8  and  O_9
REMARK    7  A    between atoms: C_12  and  N_13
REMARK    8  A    between atoms: N_13  and  C_14
REMARK    9  A    between atoms: N_13  and  C_15
REMARK   10  A    between atoms: C_15  and  C_16
REMARK   11  A    between atoms: C_15  and  C_25
REMARK   12  A    between atoms: C_16  and  N_17
REMARK   13  A    between atoms: N_17  and  C_18
REMARK   14  A    between atoms: C_18  and  C_19
REMARK   15  A    between atoms: C_25  and  C_26
REMARK   16  A    between atoms: C_29  and  O_30
REMARK                            x       y       z     vdW  Elec       q    Type
REMARK                         _______ _______ _______ _____ _____    ______ ____
ROOT
ATOM      1  C   UNL     1       1.835   8.356  19.773  0.00  0.00    +0.000 C 
ENDROOT
BRANCH   1   2
ATOM      2  N   UNL     1       2.454   6.980  19.650  0.00  0.00    +0.000 NA
ATOM      3  C   UNL     1       1.845   6.015  20.590  0.00  0.00    +0.000 C 
BRANCH   2   4
ATOM      4  C   UNL     1       2.377   6.345  18.283  0.00  0.00    +0.000 C 
BRANCH   4   5
ATOM      5  C   UNL     1       2.727   4.829  18.070  0.00  0.00    +0.000 C 
BRANCH   5   7
ATOM      6  C   UNL     1       1.169   2.983  18.443  0.00  0.00    +0.000 C 
ATOM      7  N   UNL     1       1.562   4.079  17.570  0.00  0.00    +0.000 NA
ATOM      8  H   UNL     1       0.792   4.734  17.443  0.00  0.00    +0.000 HD
ENDBRANCH   5   7
BRANCH   5   9
ATOM      9  C   UNL     1       3.970   4.609  17.164  0.00  0.00    +0.000 C 
BRANCH   9  10
ATOM     10  C   UNL     1       5.245   5.277  17.623  0.00  0.00    +0.000 A 
ATOM     11  C   UNL     1       5.826   4.914  18.842  0.00  0.00    +0.000 A 
ATOM     12  C   UNL     1       6.967   5.566  19.301  0.00  0.00    +0.000 A 
ATOM     13  C   UNL     1       7.535   6.584  18.542  0.00  0.00    +0.000 A 
ATOM     14  C   UNL     1       6.984   6.951  17.320  0.00  0.00    +0.000 A 
ATOM     15  C   UNL     1       5.845   6.297  16.865  0.00  0.00    +0.000 A 
BRANCH  13  16
ATOM     16  O   UNL     1       8.639   7.252  18.957  0.00  0.00    +0.000 OA
ATOM     17  H   UNL     1       9.420   6.796  18.606  0.00  0.00    +0.000 HD
ENDBRANCH  13  16
ENDBRANCH   9  10
ENDBRANCH   5   9
ENDBRANCH   4   5
ENDBRANCH   2   4
ENDBRANCH   1   2
BRANCH   1  18
ATOM     18  C   UNL     1       0.773   8.393  20.918  0.00  0.00    +0.000 C 
BRANCH  18  19
ATOM     19  N   UNL     1       0.925   9.598  21.730  0.00  0.00    +0.000 NA
ATOM     20  H   UNL     1       0.985  10.421  21.128  0.00  0.00    +0.000 HD
BRANCH  19  21
ATOM     21  C   UNL     1      -0.110   9.713  22.736  0.00  0.00    +0.000 C 
BRANCH  21  22
ATOM     22  C   UNL     1      -0.735  11.075  22.688  0.00  0.00    +0.000 A 
ATOM     23  C   UNL     1      -1.983  11.330  23.273  0.00  0.00    +0.000 A 
ATOM     24  C   UNL     1      -2.557  12.596  23.180  0.00  0.00    +0.000 A 
ATOM     25  C   UNL     1      -1.885  13.611  22.500  0.00  0.00    +0.000 A 
ATOM     26  C   UNL     1      -0.645  13.361  21.908  0.00  0.00    +0.000 A 
ATOM     27  C   UNL     1      -0.076  12.098  21.998  0.00  0.00    +0.000 A 
ENDBRANCH  21  22
ENDBRANCH  19  21
ENDBRANCH  18  19
ENDBRANCH   1  18
BRANCH   1  28
ATOM     28  C   UNL     1       1.077   8.878  18.488  0.00  0.00    +0.000 C 
BRANCH  28  29
ATOM     29  C   UNL     1       0.644  10.341  18.509  0.00  0.00    +0.000 A 
ATOM     30  C   UNL     1       1.578  11.386  18.613  0.00  0.00    +0.000 A 
ATOM     31  C   UNL     1       1.165  12.721  18.614  0.00  0.00    +0.000 A 
ATOM     32  C   UNL     1      -0.184  13.021  18.473  0.00  0.00    +0.000 A 
ATOM     33  C   UNL     1      -1.130  12.008  18.384  0.00  0.00    +0.000 A 
ATOM     34  C   UNL     1      -0.718  10.671  18.404  0.00  0.00    +0.000 A 
BRANCH  32  35
ATOM     35  O   UNL     1      -0.615  14.312  18.400  0.00  0.00    +0.000 OA
ATOM     36  H   UNL     1      -0.159  14.742  17.658  0.00  0.00    +0.000 HD
ENDBRANCH  32  35
ENDBRANCH  28  29
ENDBRANCH   1  28
TORSDOF 14
ENDMDL
MODEL 8
REMARK VINA RESULT:      -6.8      1.661      3.807
REMARK  Name = 
REMARK  16 active torsions:
REMARK  status: ('A' for Active; 'I' for Inactive)
REMARK    1  A    between atoms: C_1  and  N_2
REMARK    2  A    between atoms: N_2  and  C_3
REMARK    3  A    between atoms: C_3  and  C_4
REMARK    4  A    between atoms: C_3  and  C_12
REMARK    5  A    between atoms: C_4  and  C_5
REMARK    6  A    between atoms: C_8  and  O_9
REMARK    7  A    between atoms: C_12  and  N_13
REMARK    8  A    between atoms: N_13  and  C_14
REMARK    9  A    between atoms: N_13  and  C_15
REMARK   10  A    between atoms: C_15  and  C_16
REMARK   11  A    between atoms: C_15  and  C_25
REMARK   12  A    between atoms: C_16  and  N_17
REMARK   13  A    between atoms: N_17  and  C_18
REMARK   14  A    between atoms: C_18  and  C_19
REMARK   15  A    between atoms: C_25  and  C_26
REMARK   16  A    between atoms: C_29  and  O_30
REMARK                            x       y       z     vdW  Elec       q    Type
REMARK                         _______ _______ _______ _____ _____    ______ ____
ROOT
ATOM      1  C   UNL     1       2.197   6.740  19.805  0.00  0.00    +0.000 C 
ENDROOT
BRANCH   1   2
ATOM      2  N   UNL     1       1.356   7.964  20.104  0.00  0.00    +0.000 NA
ATOM      3  C   UNL     1       1.688   8.554  21.418  0.00  0.00    +0.000 C 
BRANCH   2   4
ATOM      4  C   UNL     1       1.448   9.085  19.100  0.00  0.00    +0.000 C 
BRANCH   4   5
ATOM      5  C   UNL     1       0.839  10.500  19.403  0.00  0.00    +0.000 C 
BRANCH   5   7
ATOM      6  C   UNL     1       1.898  12.593  18.713  0.00  0.00    +0.000 C 
ATOM      7  N   UNL     1       1.107  11.442  18.302  0.00  0.00    +0.000 NA
ATOM      8  H   UNL     1       1.572  10.932  17.553  0.00  0.00    +0.000 HD
ENDBRANCH   5   7
BRANCH   5   9
ATOM      9  C   UNL     1      -0.675  10.454  19.750  0.00  0.00    +0.000 C 
BRANCH   9  10
ATOM     10  C   UNL     1      -1.621  10.568  18.578  0.00  0.00    +0.000 A 
ATOM     11  C   UNL     1      -2.678  11.483  18.616  0.00  0.00    +0.000 A 
ATOM     12  C   UNL     1      -3.589  11.553  17.566  0.00  0.00    +0.000 A 
ATOM     13  C   UNL     1      -3.447  10.708  16.470  0.00  0.00    +0.000 A 
ATOM     14  C   UNL     1      -2.395   9.802  16.403  0.00  0.00    +0.000 A 
ATOM     15  C   UNL     1      -1.488   9.736  17.453  0.00  0.00    +0.000 A 
BRANCH  13  16
ATOM     16  O   UNL     1      -4.318  10.735  15.432  0.00  0.00    +0.000 OA
ATOM     17  H   UNL     1      -4.599  11.653  15.295  0.00  0.00    +0.000 HD
ENDBRANCH  13  16
ENDBRANCH   9  10
ENDBRANCH   5   9
ENDBRANCH   4   5
ENDBRANCH   2   4
ENDBRANCH   1   2
BRANCH   1  18
ATOM     18  C   UNL     1       2.503   6.628  18.278  0.00  0.00    +0.000 C 
BRANCH  18  19
ATOM     19  N   UNL     1       3.869   7.055  17.988  0.00  0.00    +0.000 NA
ATOM     20  H   UNL     1       4.058   7.954  18.435  0.00  0.00    +0.000 HD
BRANCH  19  21
ATOM     21  C   UNL     1       4.844   6.041  18.333  0.00  0.00    +0.000 C 
BRANCH  21  22
ATOM     22  C   UNL     1       5.407   5.416  17.092  0.00  0.00    +0.000 A 
ATOM     23  C   UNL     1       4.736   4.382  16.424  0.00  0.00    +0.000 A 
ATOM     24  C   UNL     1       5.300   3.795  15.294  0.00  0.00    +0.000 A 
ATOM     25  C   UNL     1       6.539   4.237  14.830  0.00  0.00    +0.000 A 
ATOM     26  C   UNL     1       7.216   5.260  15.497  0.00  0.00    +0.000 A 
ATOM     27  C   UNL     1       6.654   5.843  16.625  0.00  0.00    +0.000 A 
ENDBRANCH  21  22
ENDBRANCH  19  21
ENDBRANCH  18  19
ENDBRANCH   1  18
BRANCH   1  28
ATOM     28  C   UNL     1       1.544   5.355  20.198  0.00  0.00    +0.000 C 
BRANCH  28  29
ATOM     29  C   UNL     1       2.247   4.106  19.674  0.00  0.00    +0.000 A 
ATOM     30  C   UNL     1       3.400   3.593  20.292  0.00  0.00    +0.000 A 
ATOM     31  C   UNL     1       4.022   2.440  19.809  0.00  0.00    +0.000 A 
ATOM     32  C   UNL     1       3.472   1.768  18.725  0.00  0.00    +0.000 A 
ATOM     33  C   UNL     1       2.341   2.260  18.086  0.00  0.00    +0.000 A 
ATOM     34  C   UNL     1       1.731   3.427  18.557  0.00  0.00    +0.000 A 
BRANCH  32  35
ATOM     35  O   UNL     1       4.011   0.601  18.271  0.00  0.00    +0.000 OA
ATOM     36  H   UNL     1       3.284   0.016  18.002  0.00  0.00    +0.000 HD
ENDBRANCH  32  35
ENDBRANCH  28  29
ENDBRANCH   1  28
TORSDOF 14
ENDMDL
MODEL 9
REMARK VINA RESULT:      -6.8      0.821      1.077
REMARK  Name = 
REMARK  16 active torsions:
REMARK  status: ('A' for Active; 'I' for Inactive)
REMARK    1  A    between atoms: C_1  and  N_2
REMARK    2  A    between atoms: N_2  and  C_3
REMARK    3  A    between atoms: C_3  and  C_4
REMARK    4  A    between atoms: C_3  and  C_12
REMARK    5  A    between atoms: C_4  and  C_5
REMARK    6  A    between atoms: C_8  and  O_9
REMARK    7  A    between atoms: C_12  and  N_13
REMARK    8  A    between atoms: N_13  and  C_14
REMARK    9  A    between atoms: N_13  and  C_15
REMARK   10  A    between atoms: C_15  and  C_16
REMARK   11  A    between atoms: C_15  and  C_25
REMARK   12  A    between atoms: C_16  and  N_17
REMARK   13  A    between atoms: N_17  and  C_18
REMARK   14  A    between atoms: C_18  and  C_19
REMARK   15  A    between atoms: C_25  and  C_26
REMARK   16  A    between atoms: C_29  and  O_30
REMARK                            x       y       z     vdW  Elec       q    Type
REMARK                         _______ _______ _______ _____ _____    ______ ____
ROOT
ATOM      1  C   UNL     1       2.043   6.757  19.035  0.00  0.00    +0.000 C 
ENDROOT
BRANCH   1   2
ATOM      2  N   UNL     1       2.316   8.246  19.016  0.00  0.00    +0.000 NA
ATOM      3  C   UNL     1       1.882   8.871  17.749  0.00  0.00    +0.000 C 
BRANCH   2   4
ATOM      4  C   UNL     1       1.676   9.046  20.124  0.00  0.00    +0.000 C 
BRANCH   4   5
ATOM      5  C   UNL     1       0.124   9.281  20.164  0.00  0.00    +0.000 C 
BRANCH   5   7
ATOM      6  C   UNL     1      -0.413  10.135  22.391  0.00  0.00    +0.000 C 
ATOM      7  N   UNL     1      -0.425   8.984  21.498  0.00  0.00    +0.000 NA
ATOM      8  H   UNL     1      -1.372   8.627  21.381  0.00  0.00    +0.000 HD
ENDBRANCH   5   7
BRANCH   5   9
ATOM      9  C   UNL     1      -0.293  10.699  19.686  0.00  0.00    +0.000 C 
BRANCH   9  10
ATOM     10  C   UNL     1      -1.512  10.761  18.796  0.00  0.00    +0.000 A 
ATOM     11  C   UNL     1      -1.571   9.987  17.633  0.00  0.00    +0.000 A 
ATOM     12  C   UNL     1      -2.664  10.082  16.776  0.00  0.00    +0.000 A 
ATOM     13  C   UNL     1      -3.707  10.952  17.080  0.00  0.00    +0.000 A 
ATOM     14  C   UNL     1      -3.677  11.720  18.238  0.00  0.00    +0.000 A 
ATOM     15  C   UNL     1      -2.585  11.621  19.090  0.00  0.00    +0.000 A 
BRANCH  13  16
ATOM     16  O   UNL     1      -4.784  11.084  16.267  0.00  0.00    +0.000 OA
ATOM     17  H   UNL     1      -5.254  11.895  16.516  0.00  0.00    +0.000 HD
ENDBRANCH  13  16
ENDBRANCH   9  10
ENDBRANCH   5   9
ENDBRANCH   4   5
ENDBRANCH   2   4
ENDBRANCH   1   2
BRANCH   1  18
ATOM     18  C   UNL     1       2.939   6.035  20.091  0.00  0.00    +0.000 C 
BRANCH  18  19
ATOM     19  N   UNL     1       2.139   5.566  21.219  0.00  0.00    +0.000 NA
ATOM     20  H   UNL     1       1.146   5.698  21.023  0.00  0.00    +0.000 HD
BRANCH  19  21
ATOM     21  C   UNL     1       2.462   4.204  21.591  0.00  0.00    +0.000 C 
BRANCH  21  22
ATOM     22  C   UNL     1       2.288   3.288  20.417  0.00  0.00    +0.000 A 
ATOM     23  C   UNL     1       3.358   2.536  19.910  0.00  0.00    +0.000 A 
ATOM     24  C   UNL     1       3.177   1.721  18.795  0.00  0.00    +0.000 A 
ATOM     25  C   UNL     1       1.927   1.657  18.181  0.00  0.00    +0.000 A 
ATOM     26  C   UNL     1       0.860   2.411  18.676  0.00  0.00    +0.000 A 
ATOM     27  C   UNL     1       1.043   3.225  19.786  0.00  0.00    +0.000 A 
ENDBRANCH  21  22
ENDBRANCH  19  21
ENDBRANCH  18  19
ENDBRANCH   1  18
BRANCH   1  28
ATOM     28  C   UNL     1       2.314   5.999  17.674  0.00  0.00    +0.000 C 
BRANCH  28  29
ATOM     29  C   UNL     1       3.772   5.674  17.363  0.00  0.00    +0.000 A 
ATOM     30  C   UNL     1       4.180   4.379  17.003  0.00  0.00    +0.000 A 
ATOM     31  C   UNL     1       5.516   4.103  16.706  0.00  0.00    +0.000 A 
ATOM     32  C   UNL     1       6.450   5.130  16.730  0.00  0.00    +0.000 A 
ATOM     33  C   UNL     1       6.078   6.417  17.098  0.00  0.00    +0.000 A 
ATOM     34  C   UNL     1       4.744   6.689  17.416  0.00  0.00    +0.000 A 
BRANCH  32  35
ATOM     35  O   UNL     1       7.749   4.911  16.378  0.00  0.00    +0.000 OA
ATOM     36  H   UNL     1       8.255   5.717  16.572  0.00  0.00    +0.000 HD
ENDBRANCH  32  35
ENDBRANCH  28  29
ENDBRANCH   1  28
TORSDOF 14
ENDMDL
