MODEL 1
REMARK VINA RESULT:      -8.2      0.000      0.000
REMARK  Name = 
REMARK  10 active torsions:
REMARK  status: ('A' for Active; 'I' for Inactive)
REMARK    1  A    between atoms: C_1  and  O_2
REMARK    2  A    between atoms: O_2  and  C_3
REMARK    3  A    between atoms: C_3  and  C_4
REMARK    4  A    between atoms: C_4  and  O_5
REMARK    5  A    between atoms: O_5  and  C_6
REMARK    6  A    between atoms: C_9  and  C_10
REMARK    7  A    between atoms: N_12  and  C_13
REMARK    8  A    between atoms: C_18  and  C_19
REMARK    9  A    between atoms: C_19  and  C_20
REMARK   10  A    between atoms: C_30  and  C_31
REMARK                            x       y       z     vdW  Elec       q    Type
REMARK                         _______ _______ _______ _____ _____    ______ ____
ROOT
ATOM      1  C   UNL     1       2.122   8.043  19.284  0.00  0.00    +0.000 A 
ATOM      2  C   UNL     1       2.902   8.336  18.163  0.00  0.00    +0.000 A 
ATOM      3  C   UNL     1       3.451   7.316  17.391  0.00  0.00    +0.000 A 
ATOM      4  C   UNL     1       3.233   5.992  17.742  0.00  0.00    +0.000 A 
ATOM      5  F   UNL     1       3.760   5.040  16.962  0.00  0.00    +0.000 F 
ATOM      6  C   UNL     1       2.484   5.639  18.873  0.00  0.00    +0.000 A 
ATOM      7  C   UNL     1       1.936   6.693  19.644  0.00  0.00    +0.000 A 
ENDROOT
BRANCH   6   8
ATOM      8  C   UNL     1       2.274   4.153  19.228  0.00  0.00    +0.000 C 
ATOM      9  C   UNL     1       1.475   4.058  20.567  0.00  0.00    +0.000 C 
ATOM     10  O   UNL     1       1.563   2.775  21.190  0.00  0.00    +0.000 OA
ATOM     11  C   UNL     1       2.914   2.489  21.490  0.00  0.00    +0.000 C 
ATOM     12  C   UNL     1       3.814   2.615  20.263  0.00  0.00    +0.000 C 
ATOM     13  N   UNL     1       4.944   1.843  20.201  0.00  0.00    +0.000 N 
ATOM     14  N   UNL     1       3.583   3.430  19.287  0.00  0.00    +0.000 NA
ATOM     15  H   UNL     1       4.882   0.935  20.651  0.00  0.00    +0.000 HD
ATOM     16  H   UNL     1       5.282   1.769  19.246  0.00  0.00    +0.000 HD
BRANCH   8  17
ATOM     17  C   UNL     1       1.423   3.467  18.112  0.00  0.00    +0.000 C 
ATOM     18  F   UNL     1       0.878   4.396  17.280  0.00  0.00    +0.000 F 
ATOM     19  F   UNL     1       2.198   2.671  17.327  0.00  0.00    +0.000 F 
ENDBRANCH   8  17
ENDBRANCH   6   8
BRANCH   1  22
ATOM     20  C   UNL     1       0.462   9.883  19.691  0.00  0.00    +0.000 C 
ATOM     21  O   UNL     1      -0.080   9.883  18.593  0.00  0.00    +0.000 OA
ATOM     22  N   UNL     1       1.506   9.043  20.070  0.00  0.00    +0.000 N 
ATOM     23  H   UNL     1       1.804   9.142  21.039  0.00  0.00    +0.000 HD
BRANCH  20  27
ATOM     24  C   UNL     1      -0.783  12.623  22.631  0.00  0.00    +0.000 A 
ATOM     25  C   UNL     1      -0.463  13.008  21.342  0.00  0.00    +0.000 A 
ATOM     26  N   UNL     1      -0.043  12.133  20.396  0.00  0.00    +0.000 NA
ATOM     27  C   UNL     1      -0.002  10.817  20.780  0.00  0.00    +0.000 A 
ATOM     28  C   UNL     1      -0.353  10.413  22.078  0.00  0.00    +0.000 A 
ATOM     29  C   UNL     1      -0.393   9.007  22.595  0.00  0.00    +0.000 C 
ATOM     30  N   UNL     1      -0.740  11.333  23.020  0.00  0.00    +0.000 NA
BRANCH  24  31
ATOM     31  O   UNL     1      -1.223  13.587  23.507  0.00  0.00    +0.000 OA
BRANCH  31  32
ATOM     32  C   UNL     1      -2.415  14.241  23.060  0.00  0.00    +0.000 C 
BRANCH  32  33
ATOM     33  C   UNL     1      -3.313  14.461  24.276  0.00  0.00    +0.000 C 
BRANCH  33  35
ATOM     34  C   UNL     1      -4.379  12.407  24.709  0.00  0.00    +0.000 C 
ATOM     35  O   UNL     1      -4.515  13.707  24.146  0.00  0.00    +0.000 OA
ENDBRANCH  33  35
ENDBRANCH  32  33
ENDBRANCH  31  32
ENDBRANCH  24  31
ENDBRANCH  20  27
ENDBRANCH   1  22
TORSDOF 8
ENDMDL
MODEL 2
REMARK VINA RESULT:      -8.1      0.999      1.547
REMARK  Name = 
REMARK  10 active torsions:
REMARK  status: ('A' for Active; 'I' for Inactive)
REMARK    1  A    between atoms: C_1  and  O_2
REMARK    2  A    between atoms: O_2  and  C_3
REMARK    3  A    between atoms: C_3  and  C_4
REMARK    4  A    between atoms: C_4  and  O_5
REMARK    5  A    between atoms: O_5  and  C_6
REMARK    6  A    between atoms: C_9  and  C_10
REMARK    7  A    between atoms: N_12  and  C_13
REMARK    8  A    between atoms: C_18  and  C_19
REMARK    9  A    between atoms: C_19  and  C_20
REMARK   10  A    between atoms: C_30  and  C_31
REMARK                            x       y       z     vdW  Elec       q    Type
REMARK                         _______ _______ _______ _____ _____    ______ ____
ROOT
ATOM      1  C   UNL     1       2.166   7.980  19.144  0.00  0.00    +0.000 A 
ATOM      2  C   UNL     1       2.984   8.252  18.045  0.00  0.00    +0.000 A 
ATOM      3  C   UNL     1       3.565   7.217  17.316  0.00  0.00    +0.000 A 
ATOM      4  C   UNL     1       3.338   5.900  17.689  0.00  0.00    +0.000 A 
ATOM      5  F   UNL     1       3.897   4.934  16.948  0.00  0.00    +0.000 F 
ATOM      6  C   UNL     1       2.550   5.569  18.799  0.00  0.00    +0.000 A 
ATOM      7  C   UNL     1       1.972   6.637  19.527  0.00  0.00    +0.000 A 
ENDROOT
BRANCH   6   8
ATOM      8  C   UNL     1       2.333   4.090  19.179  0.00  0.00    +0.000 C 
ATOM      9  C   UNL     1       1.512   4.021  20.506  0.00  0.00    +0.000 C 
ATOM     10  O   UNL     1       1.588   2.751  21.155  0.00  0.00    +0.000 OA
ATOM     11  C   UNL     1       2.933   2.470  21.483  0.00  0.00    +0.000 C 
ATOM     12  C   UNL     1       3.854   2.571  20.270  0.00  0.00    +0.000 C 
ATOM     13  N   UNL     1       4.984   1.798  20.241  0.00  0.00    +0.000 N 
ATOM     14  N   UNL     1       3.641   3.367  19.274  0.00  0.00    +0.000 NA
ATOM     15  H   UNL     1       4.914   0.899  20.707  0.00  0.00    +0.000 HD
ATOM     16  H   UNL     1       5.339   1.706  19.293  0.00  0.00    +0.000 HD
BRANCH   8  17
ATOM     17  C   UNL     1       1.500   3.383  18.063  0.00  0.00    +0.000 C 
ATOM     18  F   UNL     1       0.515   2.617  18.607  0.00  0.00    +0.000 F 
ATOM     19  F   UNL     1       0.870   4.295  17.273  0.00  0.00    +0.000 F 
ENDBRANCH   8  17
ENDBRANCH   6   8
BRANCH   1  22
ATOM     20  C   UNL     1       0.503   9.838  19.443  0.00  0.00    +0.000 C 
ATOM     21  O   UNL     1       0.019   9.830  18.318  0.00  0.00    +0.000 OA
ATOM     22  N   UNL     1       1.518   8.994  19.886  0.00  0.00    +0.000 N 
ATOM     23  H   UNL     1       1.767   9.102  20.867  0.00  0.00    +0.000 HD
BRANCH  20  27
ATOM     24  C   UNL     1      -0.978  12.354  22.473  0.00  0.00    +0.000 A 
ATOM     25  C   UNL     1      -0.828  10.989  22.644  0.00  0.00    +0.000 A 
ATOM     26  N   UNL     1      -0.371  10.171  21.666  0.00  0.00    +0.000 NA
ATOM     27  C   UNL     1      -0.009  10.789  20.496  0.00  0.00    +0.000 A 
ATOM     28  C   UNL     1      -0.129  12.176  20.323  0.00  0.00    +0.000 A 
ATOM     29  C   UNL     1       0.276  12.964  19.114  0.00  0.00    +0.000 C 
ATOM     30  N   UNL     1      -0.630  12.968  21.325  0.00  0.00    +0.000 NA
BRANCH  24  31
ATOM     31  O   UNL     1      -1.427  13.097  23.539  0.00  0.00    +0.000 OA
BRANCH  31  32
ATOM     32  C   UNL     1      -2.648  13.789  23.258  0.00  0.00    +0.000 C 
BRANCH  32  33
ATOM     33  C   UNL     1      -3.778  13.058  23.979  0.00  0.00    +0.000 C 
BRANCH  33  35
ATOM     34  C   UNL     1      -4.591  12.889  21.777  0.00  0.00    +0.000 C 
ATOM     35  O   UNL     1      -4.526  12.271  23.057  0.00  0.00    +0.000 OA
ENDBRANCH  33  35
ENDBRANCH  32  33
ENDBRANCH  31  32
ENDBRANCH  24  31
ENDBRANCH  20  27
ENDBRANCH   1  22
TORSDOF 8
ENDMDL
MODEL 3
REMARK VINA RESULT:      -8.0      1.567      1.908
REMARK  Name = 
REMARK  10 active torsions:
REMARK  status: ('A' for Active; 'I' for Inactive)
REMARK    1  A    between atoms: C_1  and  O_2
REMARK    2  A    between atoms: O_2  and  C_3
REMARK    3  A    between atoms: C_3  and  C_4
REMARK    4  A    between atoms: C_4  and  O_5
REMARK    5  A    between atoms: O_5  and  C_6
REMARK    6  A    between atoms: C_9  and  C_10
REMARK    7  A    between atoms: N_12  and  C_13
REMARK    8  A    between atoms: C_18  and  C_19
REMARK    9  A    between atoms: C_19  and  C_20
REMARK   10  A    between atoms: C_30  and  C_31
REMARK                            x       y       z     vdW  Elec       q    Type
REMARK                         _______ _______ _______ _____ _____    ______ ____
ROOT
ATOM      1  C   UNL     1       2.388   7.595  18.566  0.00  0.00    +0.000 A 
ATOM      2  C   UNL     1       3.443   7.821  17.677  0.00  0.00    +0.000 A 
ATOM      3  C   UNL     1       4.224   6.765  17.217  0.00  0.00    +0.000 A 
ATOM      4  C   UNL     1       3.963   5.474  17.651  0.00  0.00    +0.000 A 
ATOM      5  F   UNL     1       4.723   4.483  17.167  0.00  0.00    +0.000 F 
ATOM      6  C   UNL     1       2.937   5.191  18.564  0.00  0.00    +0.000 A 
ATOM      7  C   UNL     1       2.157   6.281  19.020  0.00  0.00    +0.000 A 
ENDROOT
BRANCH   6   8
ATOM      8  C   UNL     1       2.689   3.741  19.023  0.00  0.00    +0.000 C 
ATOM      9  C   UNL     1       1.718   3.753  20.246  0.00  0.00    +0.000 C 
ATOM     10  O   UNL     1       1.727   2.534  20.991  0.00  0.00    +0.000 OA
ATOM     11  C   UNL     1       3.027   2.301  21.494  0.00  0.00    +0.000 C 
ATOM     12  C   UNL     1       4.084   2.330  20.392  0.00  0.00    +0.000 C 
ATOM     13  N   UNL     1       5.215   1.575  20.553  0.00  0.00    +0.000 N 
ATOM     14  N   UNL     1       3.983   3.048  19.323  0.00  0.00    +0.000 NA
ATOM     15  H   UNL     1       5.098   0.711  21.072  0.00  0.00    +0.000 HD
ATOM     16  H   UNL     1       5.680   1.421  19.662  0.00  0.00    +0.000 HD
BRANCH   8  17
ATOM     17  C   UNL     1       1.999   2.941  17.872  0.00  0.00    +0.000 C 
ATOM     18  F   UNL     1       2.727   1.838  17.546  0.00  0.00    +0.000 F 
ATOM     19  F   UNL     1       0.779   2.482  18.260  0.00  0.00    +0.000 F 
ENDBRANCH   8  17
ENDBRANCH   6   8
BRANCH   1  22
ATOM     20  C   UNL     1       1.440   9.920  18.515  0.00  0.00    +0.000 C 
ATOM     21  O   UNL     1       2.095  10.362  17.579  0.00  0.00    +0.000 OA
ATOM     22  N   UNL     1       1.539   8.628  19.024  0.00  0.00    +0.000 N 
ATOM     23  H   UNL     1       0.882   8.411  19.772  0.00  0.00    +0.000 HD
BRANCH  20  27
ATOM     24  C   UNL     1      -1.342  12.325  20.559  0.00  0.00    +0.000 A 
ATOM     25  C   UNL     1      -0.009  12.254  20.922  0.00  0.00    +0.000 A 
ATOM     26  N   UNL     1       0.888  11.467  20.281  0.00  0.00    +0.000 NA
ATOM     27  C   UNL     1       0.403  10.773  19.201  0.00  0.00    +0.000 A 
ATOM     28  C   UNL     1      -0.941  10.861  18.807  0.00  0.00    +0.000 A 
ATOM     29  C   UNL     1      -1.570  10.192  17.622  0.00  0.00    +0.000 C 
ATOM     30  N   UNL     1      -1.828  11.643  19.504  0.00  0.00    +0.000 NA
BRANCH  24  31
ATOM     31  O   UNL     1      -2.163  13.175  21.262  0.00  0.00    +0.000 OA
BRANCH  31  32
ATOM     32  C   UNL     1      -3.552  12.945  21.006  0.00  0.00    +0.000 C 
BRANCH  32  33
ATOM     33  C   UNL     1      -4.295  13.029  22.337  0.00  0.00    +0.000 C 
BRANCH  33  35
ATOM     34  C   UNL     1      -4.230  12.367  24.595  0.00  0.00    +0.000 C 
ATOM     35  O   UNL     1      -3.702  12.152  23.291  0.00  0.00    +0.000 OA
ENDBRANCH  33  35
ENDBRANCH  32  33
ENDBRANCH  31  32
ENDBRANCH  24  31
ENDBRANCH  20  27
ENDBRANCH   1  22
TORSDOF 8
ENDMDL
MODEL 4
REMARK VINA RESULT:      -8.0      1.145      1.520
REMARK  Name = 
REMARK  10 active torsions:
REMARK  status: ('A' for Active; 'I' for Inactive)
REMARK    1  A    between atoms: C_1  and  O_2
REMARK    2  A    between atoms: O_2  and  C_3
REMARK    3  A    between atoms: C_3  and  C_4
REMARK    4  A    between atoms: C_4  and  O_5
REMARK    5  A    between atoms: O_5  and  C_6
REMARK    6  A    between atoms: C_9  and  C_10
REMARK    7  A    between atoms: N_12  and  C_13
REMARK    8  A    between atoms: C_18  and  C_19
REMARK    9  A    between atoms: C_19  and  C_20
REMARK   10  A    between atoms: C_30  and  C_31
REMARK                            x       y       z     vdW  Elec       q    Type
REMARK                         _______ _______ _______ _____ _____    ______ ____
ROOT
ATOM      1  C   UNL     1       2.005   8.021  19.311  0.00  0.00    +0.000 A 
ATOM      2  C   UNL     1       2.763   8.307  18.173  0.00  0.00    +0.000 A 
ATOM      3  C   UNL     1       3.306   7.282  17.403  0.00  0.00    +0.000 A 
ATOM      4  C   UNL     1       3.102   5.960  17.773  0.00  0.00    +0.000 A 
ATOM      5  F   UNL     1       3.622   5.003  16.993  0.00  0.00    +0.000 F 
ATOM      6  C   UNL     1       2.376   5.615  18.920  0.00  0.00    +0.000 A 
ATOM      7  C   UNL     1       1.835   6.674  19.689  0.00  0.00    +0.000 A 
ENDROOT
BRANCH   6   8
ATOM      8  C   UNL     1       2.182   4.132  19.295  0.00  0.00    +0.000 C 
ATOM      9  C   UNL     1       1.372   4.046  20.627  0.00  0.00    +0.000 C 
ATOM     10  O   UNL     1       1.470   2.774  21.270  0.00  0.00    +0.000 OA
ATOM     11  C   UNL     1       2.822   2.510  21.588  0.00  0.00    +0.000 C 
ATOM     12  C   UNL     1       3.732   2.630  20.368  0.00  0.00    +0.000 C 
ATOM     13  N   UNL     1       4.873   1.873  20.328  0.00  0.00    +0.000 N 
ATOM     14  N   UNL     1       3.501   3.427  19.377  0.00  0.00    +0.000 NA
ATOM     15  H   UNL     1       4.819   0.971  20.790  0.00  0.00    +0.000 HD
ATOM     16  H   UNL     1       5.222   1.789  19.377  0.00  0.00    +0.000 HD
BRANCH   8  17
ATOM     17  C   UNL     1       1.351   3.418  18.182  0.00  0.00    +0.000 C 
ATOM     18  F   UNL     1       2.137   2.574  17.458  0.00  0.00    +0.000 F 
ATOM     19  F   UNL     1       0.373   2.643  18.724  0.00  0.00    +0.000 F 
ENDBRANCH   8  17
ENDBRANCH   6   8
BRANCH   1  22
ATOM     20  C   UNL     1       0.340   9.854  19.727  0.00  0.00    +0.000 C 
ATOM     21  O   UNL     1      -0.222   9.838  18.639  0.00  0.00    +0.000 OA
ATOM     22  N   UNL     1       1.396   9.025  20.097  0.00  0.00    +0.000 N 
ATOM     23  H   UNL     1       1.711   9.137  21.059  0.00  0.00    +0.000 HD
BRANCH  20  27
ATOM     24  C   UNL     1      -0.894  12.618  22.650  0.00  0.00    +0.000 A 
ATOM     25  C   UNL     1      -0.753  12.957  21.316  0.00  0.00    +0.000 A 
ATOM     26  N   UNL     1      -0.337  12.077  20.374  0.00  0.00    +0.000 NA
ATOM     27  C   UNL     1      -0.111  10.797  20.814  0.00  0.00    +0.000 A 
ATOM     28  C   UNL     1      -0.281  10.437  22.160  0.00  0.00    +0.000 A 
ATOM     29  C   UNL     1      -0.112   9.067  22.745  0.00  0.00    +0.000 C 
ATOM     30  N   UNL     1      -0.670  11.365  23.093  0.00  0.00    +0.000 NA
BRANCH  24  31
ATOM     31  O   UNL     1      -1.347  13.581  23.520  0.00  0.00    +0.000 OA
BRANCH  31  32
ATOM     32  C   UNL     1      -0.751  14.861  23.292  0.00  0.00    +0.000 C 
BRANCH  32  33
ATOM     33  C   UNL     1      -1.211  15.799  24.406  0.00  0.00    +0.000 C 
BRANCH  33  35
ATOM     34  C   UNL     1      -0.622  16.442  26.592  0.00  0.00    +0.000 C 
ATOM     35  O   UNL     1      -0.693  15.368  25.662  0.00  0.00    +0.000 OA
ENDBRANCH  33  35
ENDBRANCH  32  33
ENDBRANCH  31  32
ENDBRANCH  24  31
ENDBRANCH  20  27
ENDBRANCH   1  22
TORSDOF 8
ENDMDL
MODEL 5
REMARK VINA RESULT:      -7.9      1.588      1.983
REMARK  Name = 
REMARK  10 active torsions:
REMARK  status: ('A' for Active; 'I' for Inactive)
REMARK    1  A    between atoms: C_1  and  O_2
REMARK    2  A    between atoms: O_2  and  C_3
REMARK    3  A    between atoms: C_3  and  C_4
REMARK    4  A    between atoms: C_4  and  O_5
REMARK    5  A    between atoms: O_5  and  C_6
REMARK    6  A    between atoms: C_9  and  C_10
REMARK    7  A    between atoms: N_12  and  C_13
REMARK    8  A    between atoms: C_18  and  C_19
REMARK    9  A    between atoms: C_19  and  C_20
REMARK   10  A    between atoms: C_30  and  C_31
REMARK                            x       y       z     vdW  Elec       q    Type
REMARK                         _______ _______ _______ _____ _____    ______ ____
ROOT
ATOM      1  C   UNL     1       2.151   7.994  19.171  0.00  0.00    +0.000 A 
ATOM      2  C   UNL     1       2.754   8.418  17.984  0.00  0.00    +0.000 A 
ATOM      3  C   UNL     1       3.458   7.522  17.184  0.00  0.00    +0.000 A 
ATOM      4  C   UNL     1       3.572   6.195  17.570  0.00  0.00    +0.000 A 
ATOM      5  F   UNL     1       4.238   5.361  16.761  0.00  0.00    +0.000 F 
ATOM      6  C   UNL     1       3.012   5.720  18.764  0.00  0.00    +0.000 A 
ATOM      7  C   UNL     1       2.303   6.649  19.563  0.00  0.00    +0.000 A 
ENDROOT
BRANCH   6   8
ATOM      8  C   UNL     1       3.172   4.237  19.155  0.00  0.00    +0.000 C 
ATOM      9  C   UNL     1       2.441   3.350  18.097  0.00  0.00    +0.000 C 
ATOM     10  O   UNL     1       2.184   2.021  18.551  0.00  0.00    +0.000 OA
ATOM     11  C   UNL     1       1.357   2.067  19.696  0.00  0.00    +0.000 C 
ATOM     12  C   UNL     1       1.938   2.963  20.788  0.00  0.00    +0.000 C 
ATOM     13  N   UNL     1       1.642   2.678  22.094  0.00  0.00    +0.000 N 
ATOM     14  N   UNL     1       2.676   3.997  20.547  0.00  0.00    +0.000 NA
ATOM     15  H   UNL     1       1.511   1.695  22.311  0.00  0.00    +0.000 HD
ATOM     16  H   UNL     1       2.307   3.118  22.723  0.00  0.00    +0.000 HD
BRANCH   8  17
ATOM     17  C   UNL     1       4.686   3.854  19.137  0.00  0.00    +0.000 C 
ATOM     18  F   UNL     1       5.444   4.853  19.667  0.00  0.00    +0.000 F 
ATOM     19  F   UNL     1       4.922   2.758  19.908  0.00  0.00    +0.000 F 
ENDBRANCH   8  17
ENDBRANCH   6   8
BRANCH   1  22
ATOM     20  C   UNL     1       0.404   9.751  19.582  0.00  0.00    +0.000 C 
ATOM     21  O   UNL     1       0.055   9.933  18.422  0.00  0.00    +0.000 OA
ATOM     22  N   UNL     1       1.388   8.855  19.992  0.00  0.00    +0.000 N 
ATOM     23  H   UNL     1       1.516   8.793  21.000  0.00  0.00    +0.000 HD
BRANCH  20  27
ATOM     24  C   UNL     1      -1.505  11.946  22.621  0.00  0.00    +0.000 A 
ATOM     25  C   UNL     1      -1.770  12.147  21.278  0.00  0.00    +0.000 A 
ATOM     26  N   UNL     1      -1.144  11.458  20.294  0.00  0.00    +0.000 NA
ATOM     27  C   UNL     1      -0.258  10.497  20.713  0.00  0.00    +0.000 A 
ATOM     28  C   UNL     1      -0.005  10.266  22.073  0.00  0.00    +0.000 A 
ATOM     29  C   UNL     1       0.900   9.218  22.648  0.00  0.00    +0.000 C 
ATOM     30  N   UNL     1      -0.632  11.009  23.041  0.00  0.00    +0.000 NA
BRANCH  24  31
ATOM     31  O   UNL     1      -2.214  12.682  23.540  0.00  0.00    +0.000 OA
BRANCH  31  32
ATOM     32  C   UNL     1      -3.630  12.588  23.355  0.00  0.00    +0.000 C 
BRANCH  32  33
ATOM     33  C   UNL     1      -4.275  12.444  24.732  0.00  0.00    +0.000 C 
BRANCH  33  35
ATOM     34  C   UNL     1      -6.354  12.890  23.722  0.00  0.00    +0.000 C 
ATOM     35  O   UNL     1      -5.633  12.035  24.602  0.00  0.00    +0.000 OA
ENDBRANCH  33  35
ENDBRANCH  32  33
ENDBRANCH  31  32
ENDBRANCH  24  31
ENDBRANCH  20  27
ENDBRANCH   1  22
TORSDOF 8
ENDMDL
MODEL 6
REMARK VINA RESULT:      -7.9      1.328      1.773
REMARK  Name = 
REMARK  10 active torsions:
REMARK  status: ('A' for Active; 'I' for Inactive)
REMARK    1  A    between atoms: C_1  and  O_2
REMARK    2  A    between atoms: O_2  and  C_3
REMARK    3  A    between atoms: C_3  and  C_4
REMARK    4  A    between atoms: C_4  and  O_5
REMARK    5  A    between atoms: O_5  and  C_6
REMARK    6  A    between atoms: C_9  and  C_10
REMARK    7  A    between atoms: N_12  and  C_13
REMARK    8  A    between atoms: C_18  and  C_19
REMARK    9  A    between atoms: C_19  and  C_20
REMARK   10  A    between atoms: C_30  and  C_31
REMARK                            x       y       z     vdW  Elec       q    Type
REMARK                         _______ _______ _______ _____ _____    ______ ____
ROOT
ATOM      1  C   UNL     1       1.838   8.018  19.266  0.00  0.00    +0.000 A 
ATOM      2  C   UNL     1       2.720   8.373  18.242  0.00  0.00    +0.000 A 
ATOM      3  C   UNL     1       3.417   7.398  17.534  0.00  0.00    +0.000 A 
ATOM      4  C   UNL     1       3.244   6.059  17.851  0.00  0.00    +0.000 A 
ATOM      5  F   UNL     1       3.917   5.151  17.131  0.00  0.00    +0.000 F 
ATOM      6  C   UNL     1       2.395   5.646  18.887  0.00  0.00    +0.000 A 
ATOM      7  C   UNL     1       1.698   6.655  19.595  0.00  0.00    +0.000 A 
ENDROOT
BRANCH   6   8
ATOM      8  C   UNL     1       2.241   4.146  19.208  0.00  0.00    +0.000 C 
ATOM      9  C   UNL     1       1.412   3.990  20.522  0.00  0.00    +0.000 C 
ATOM     10  O   UNL     1       1.539   2.700  21.123  0.00  0.00    +0.000 OA
ATOM     11  C   UNL     1       2.893   2.467  21.455  0.00  0.00    +0.000 C 
ATOM     12  C   UNL     1       3.819   2.655  20.255  0.00  0.00    +0.000 C 
ATOM     13  N   UNL     1       4.982   1.934  20.209  0.00  0.00    +0.000 N 
ATOM     14  N   UNL     1       3.579   3.478  19.289  0.00  0.00    +0.000 NA
ATOM     15  H   UNL     1       4.949   1.016  20.640  0.00  0.00    +0.000 HD
ATOM     16  H   UNL     1       5.349   1.894  19.262  0.00  0.00    +0.000 HD
BRANCH   8  17
ATOM     17  C   UNL     1       1.450   3.446  18.057  0.00  0.00    +0.000 C 
ATOM     18  F   UNL     1       2.272   2.646  17.322  0.00  0.00    +0.000 F 
ATOM     19  F   UNL     1       0.483   2.629  18.556  0.00  0.00    +0.000 F 
ENDBRANCH   8  17
ENDBRANCH   6   8
BRANCH   1  22
ATOM     20  C   UNL     1       1.151   9.252  21.342  0.00  0.00    +0.000 C 
ATOM     21  O   UNL     1       1.903   8.703  22.136  0.00  0.00    +0.000 OA
ATOM     22  N   UNL     1       1.073   8.967  19.981  0.00  0.00    +0.000 N 
ATOM     23  H   UNL     1       0.429   9.556  19.457  0.00  0.00    +0.000 HD
BRANCH  20  27
ATOM     24  C   UNL     1      -1.526  12.209  22.681  0.00  0.00    +0.000 A 
ATOM     25  C   UNL     1      -1.525  10.921  23.186  0.00  0.00    +0.000 A 
ATOM     26  N   UNL     1      -0.679   9.959  22.745  0.00  0.00    +0.000 NA
ATOM     27  C   UNL     1       0.226  10.355  21.793  0.00  0.00    +0.000 A 
ATOM     28  C   UNL     1       0.252  11.667  21.296  0.00  0.00    +0.000 A 
ATOM     29  C   UNL     1       1.220  12.224  20.296  0.00  0.00    +0.000 C 
ATOM     30  N   UNL     1      -0.645  12.605  21.742  0.00  0.00    +0.000 NA
BRANCH  24  31
ATOM     31  O   UNL     1      -2.409  13.116  23.217  0.00  0.00    +0.000 OA
BRANCH  31  32
ATOM     32  C   UNL     1      -3.392  12.505  24.059  0.00  0.00    +0.000 C 
BRANCH  32  33
ATOM     33  C   UNL     1      -4.769  12.959  23.580  0.00  0.00    +0.000 C 
BRANCH  33  35
ATOM     34  C   UNL     1      -7.087  12.686  23.885  0.00  0.00    +0.000 C 
ATOM     35  O   UNL     1      -5.791  12.210  24.232  0.00  0.00    +0.000 OA
ENDBRANCH  33  35
ENDBRANCH  32  33
ENDBRANCH  31  32
ENDBRANCH  24  31
ENDBRANCH  20  27
ENDBRANCH   1  22
TORSDOF 8
ENDMDL
MODEL 7
REMARK VINA RESULT:      -7.9      0.945      1.088
REMARK  Name = 
REMARK  10 active torsions:
REMARK  status: ('A' for Active; 'I' for Inactive)
REMARK    1  A    between atoms: C_1  and  O_2
REMARK    2  A    between atoms: O_2  and  C_3
REMARK    3  A    between atoms: C_3  and  C_4
REMARK    4  A    between atoms: C_4  and  O_5
REMARK    5  A    between atoms: O_5  and  C_6
REMARK    6  A    between atoms: C_9  and  C_10
REMARK    7  A    between atoms: N_12  and  C_13
REMARK    8  A    between atoms: C_18  and  C_19
REMARK    9  A    between atoms: C_19  and  C_20
REMARK   10  A    between atoms: C_30  and  C_31
REMARK                            x       y       z     vdW  Elec       q    Type
REMARK                         _______ _______ _______ _____ _____    ______ ____
ROOT
ATOM      1  C   UNL     1       2.367   7.754  18.937  0.00  0.00    +0.000 A 
ATOM      2  C   UNL     1       3.166   7.983  17.815  0.00  0.00    +0.000 A 
ATOM      3  C   UNL     1       3.724   6.920  17.109  0.00  0.00    +0.000 A 
ATOM      4  C   UNL     1       3.493   5.618  17.528  0.00  0.00    +0.000 A 
ATOM      5  F   UNL     1       4.029   4.623  16.809  0.00  0.00    +0.000 F 
ATOM      6  C   UNL     1       2.724   5.329  18.663  0.00  0.00    +0.000 A 
ATOM      7  C   UNL     1       2.168   6.426  19.366  0.00  0.00    +0.000 A 
ENDROOT
BRANCH   6   8
ATOM      8  C   UNL     1       2.501   3.866  19.094  0.00  0.00    +0.000 C 
ATOM      9  C   UNL     1       1.602   3.843  20.371  0.00  0.00    +0.000 C 
ATOM     10  O   UNL     1       1.653   2.603  21.079  0.00  0.00    +0.000 OA
ATOM     11  C   UNL     1       2.980   2.356  21.500  0.00  0.00    +0.000 C 
ATOM     12  C   UNL     1       3.971   2.417  20.340  0.00  0.00    +0.000 C 
ATOM     13  N   UNL     1       5.109   1.660  20.413  0.00  0.00    +0.000 N 
ATOM     14  N   UNL     1       3.809   3.166  19.299  0.00  0.00    +0.000 NA
ATOM     15  H   UNL     1       5.022   0.781  20.913  0.00  0.00    +0.000 HD
ATOM     16  H   UNL     1       5.521   1.531  19.493  0.00  0.00    +0.000 HD
BRANCH   8  17
ATOM     17  C   UNL     1       1.745   3.099  17.963  0.00  0.00    +0.000 C 
ATOM     18  F   UNL     1       2.447   2.001  17.571  0.00  0.00    +0.000 F 
ATOM     19  F   UNL     1       0.544   2.636  18.405  0.00  0.00    +0.000 F 
ENDBRANCH   8  17
ENDBRANCH   6   8
BRANCH   1  22
ATOM     20  C   UNL     1       0.811   9.712  19.171  0.00  0.00    +0.000 C 
ATOM     21  O   UNL     1       0.396   9.751  18.020  0.00  0.00    +0.000 OA
ATOM     22  N   UNL     1       1.742   8.797  19.657  0.00  0.00    +0.000 N 
ATOM     23  H   UNL     1       1.937   8.874  20.654  0.00  0.00    +0.000 HD
BRANCH  20  27
ATOM     24  C   UNL     1      -0.591  12.538  21.954  0.00  0.00    +0.000 A 
ATOM     25  C   UNL     1      -0.396  12.841  20.618  0.00  0.00    +0.000 A 
ATOM     26  N   UNL     1       0.074  11.941  19.721  0.00  0.00    +0.000 NA
ATOM     27  C   UNL     1       0.299  10.678  20.209  0.00  0.00    +0.000 A 
ATOM     28  C   UNL     1       0.076  10.354  21.556  0.00  0.00    +0.000 A 
ATOM     29  C   UNL     1       0.240   9.005  22.189  0.00  0.00    +0.000 C 
ATOM     30  N   UNL     1      -0.367  11.303  22.443  0.00  0.00    +0.000 NA
BRANCH  24  31
ATOM     31  O   UNL     1      -1.096  13.519  22.775  0.00  0.00    +0.000 OA
BRANCH  31  32
ATOM     32  C   UNL     1      -2.490  13.758  22.563  0.00  0.00    +0.000 C 
BRANCH  32  33
ATOM     33  C   UNL     1      -3.271  12.863  23.523  0.00  0.00    +0.000 C 
BRANCH  33  35
ATOM     34  C   UNL     1      -4.516  12.764  21.527  0.00  0.00    +0.000 C 
ATOM     35  O   UNL     1      -4.376  12.264  22.852  0.00  0.00    +0.000 OA
ENDBRANCH  33  35
ENDBRANCH  32  33
ENDBRANCH  31  32
ENDBRANCH  24  31
ENDBRANCH  20  27
ENDBRANCH   1  22
TORSDOF 8
ENDMDL
MODEL 8
REMARK VINA RESULT:      -7.8      1.183      1.570
REMARK  Name = 
REMARK  10 active torsions:
REMARK  status: ('A' for Active; 'I' for Inactive)
REMARK    1  A    between atoms: C_1  and  O_2
REMARK    2  A    between atoms: O_2  and  C_3
REMARK    3  A    between atoms: C_3  and  C_4
REMARK    4  A    between atoms: C_4  and  O_5
REMARK    5  A    between atoms: O_5  and  C_6
REMARK    6  A    between atoms: C_9  and  C_10
REMARK    7  A    between atoms: N_12  and  C_13
REMARK    8  A    between atoms: C_18  and  C_19
REMARK    9  A    between atoms: C_19  and  C_20
REMARK   10  A    between atoms: C_30  and  C_31
REMARK                            x       y       z     vdW  Elec       q    Type
REMARK                         _______ _______ _______ _____ _____    ______ ____
ROOT
ATOM      1  C   UNL     1       2.312   8.011  18.677  0.00  0.00    +0.000 A 
ATOM      2  C   UNL     1       3.301   8.180  17.704  0.00  0.00    +0.000 A 
ATOM      3  C   UNL     1       3.967   7.082  17.168  0.00  0.00    +0.000 A 
ATOM      4  C   UNL     1       3.657   5.804  17.608  0.00  0.00    +0.000 A 
ATOM      5  F   UNL     1       4.305   4.773  17.052  0.00  0.00    +0.000 F 
ATOM      6  C   UNL     1       2.695   5.576  18.602  0.00  0.00    +0.000 A 
ATOM      7  C   UNL     1       2.031   6.707  19.135  0.00  0.00    +0.000 A 
ENDROOT
BRANCH   6   8
ATOM      8  C   UNL     1       2.390   4.137  19.066  0.00  0.00    +0.000 C 
ATOM      9  C   UNL     1       1.542   4.195  20.376  0.00  0.00    +0.000 C 
ATOM     10  O   UNL     1       1.535   2.964  21.102  0.00  0.00    +0.000 OA
ATOM     11  C   UNL     1       2.857   2.631  21.475  0.00  0.00    +0.000 C 
ATOM     12  C   UNL     1       3.804   2.607  20.277  0.00  0.00    +0.000 C 
ATOM     13  N   UNL     1       4.889   1.773  20.319  0.00  0.00    +0.000 N 
ATOM     14  N   UNL     1       3.653   3.351  19.231  0.00  0.00    +0.000 NA
ATOM     15  H   UNL     1       4.761   0.909  20.837  0.00  0.00    +0.000 HD
ATOM     16  H   UNL     1       5.254   1.604  19.386  0.00  0.00    +0.000 HD
BRANCH   8  17
ATOM     17  C   UNL     1       1.538   3.410  17.977  0.00  0.00    +0.000 C 
ATOM     18  F   UNL     1       0.871   4.311  17.204  0.00  0.00    +0.000 F 
ATOM     19  F   UNL     1       2.333   2.705  17.126  0.00  0.00    +0.000 F 
ENDBRANCH   8  17
ENDBRANCH   6   8
BRANCH   1  22
ATOM     20  C   UNL     1       0.510   9.759  18.621  0.00  0.00    +0.000 C 
ATOM     21  O   UNL     1       0.051   9.509  17.514  0.00  0.00    +0.000 OA
ATOM     22  N   UNL     1       1.576   9.090  19.217  0.00  0.00    +0.000 N 
ATOM     23  H   UNL     1       1.796   9.393  20.164  0.00  0.00    +0.000 HD
BRANCH  20  27
ATOM     24  C   UNL     1      -1.068  12.730  21.147  0.00  0.00    +0.000 A 
ATOM     25  C   UNL     1       0.062  12.001  21.470  0.00  0.00    +0.000 A 
ATOM     26  N   UNL     1       0.564  11.030  20.670  0.00  0.00    +0.000 NA
ATOM     27  C   UNL     1      -0.092  10.843  19.479  0.00  0.00    +0.000 A 
ATOM     28  C   UNL     1      -1.222  11.598  19.130  0.00  0.00    +0.000 A 
ATOM     29  C   UNL     1      -1.988  11.516  17.844  0.00  0.00    +0.000 C 
ATOM     30  N   UNL     1      -1.722  12.550  19.983  0.00  0.00    +0.000 NA
BRANCH  24  31
ATOM     31  O   UNL     1      -1.479  13.711  22.018  0.00  0.00    +0.000 OA
BRANCH  31  32
ATOM     32  C   UNL     1      -1.983  13.186  23.250  0.00  0.00    +0.000 C 
BRANCH  32  33
ATOM     33  C   UNL     1      -3.439  12.783  23.028  0.00  0.00    +0.000 C 
BRANCH  33  35
ATOM     34  C   UNL     1      -4.734  12.361  24.948  0.00  0.00    +0.000 C 
ATOM     35  O   UNL     1      -3.836  11.810  23.991  0.00  0.00    +0.000 OA
ENDBRANCH  33  35
ENDBRANCH  32  33
ENDBRANCH  31  32
ENDBRANCH  24  31
ENDBRANCH  20  27
ENDBRANCH   1  22
TORSDOF 8
ENDMDL
MODEL 9
REMARK VINA RESULT:      -7.8      1.496      1.769
REMARK  Name = 
REMARK  10 active torsions:
REMARK  status: ('A' for Active; 'I' for Inactive)
REMARK    1  A    between atoms: C_1  and  O_2
REMARK    2  A    between atoms: O_2  and  C_3
REMARK    3  A    between atoms: C_3  and  C_4
REMARK    4  A    between atoms: C_4  and  O_5
REMARK    5  A    between atoms: O_5  and  C_6
REMARK    6  A    between atoms: C_9  and  C_10
REMARK    7  A    between atoms: N_12  and  C_13
REMARK    8  A    between atoms: C_18  and  C_19
REMARK    9  A    between atoms: C_19  and  C_20
REMARK   10  A    between atoms: C_30  and  C_31
REMARK                            x       y       z     vdW  Elec       q    Type
REMARK                         _______ _______ _______ _____ _____    ______ ____
ROOT
ATOM      1  C   UNL     1       1.921   8.457  19.403  0.00  0.00    +0.000 A 
ATOM      2  C   UNL     1       2.464   8.711  18.141  0.00  0.00    +0.000 A 
ATOM      3  C   UNL     1       3.023   7.683  17.387  0.00  0.00    +0.000 A 
ATOM      4  C   UNL     1       3.052   6.393  17.895  0.00  0.00    +0.000 A 
ATOM      5  F   UNL     1       3.579   5.428  17.129  0.00  0.00    +0.000 F 
ATOM      6  C   UNL     1       2.549   6.085  19.166  0.00  0.00    +0.000 A 
ATOM      7  C   UNL     1       1.987   7.146  19.916  0.00  0.00    +0.000 A 
ENDROOT
BRANCH   6   8
ATOM      8  C   UNL     1       2.611   4.636  19.692  0.00  0.00    +0.000 C 
ATOM      9  C   UNL     1       4.091   4.287  20.048  0.00  0.00    +0.000 C 
ATOM     10  O   UNL     1       4.330   2.884  20.164  0.00  0.00    +0.000 OA
ATOM     11  C   UNL     1       4.040   2.254  18.933  0.00  0.00    +0.000 C 
ATOM     12  C   UNL     1       2.630   2.575  18.442  0.00  0.00    +0.000 C 
ATOM     13  N   UNL     1       1.984   1.653  17.663  0.00  0.00    +0.000 N 
ATOM     14  N   UNL     1       2.018   3.684  18.699  0.00  0.00    +0.000 NA
ATOM     15  H   UNL     1       2.207   0.681  17.855  0.00  0.00    +0.000 HD
ATOM     16  H   UNL     1       0.981   1.817  17.661  0.00  0.00    +0.000 HD
BRANCH   8  17
ATOM     17  C   UNL     1       1.763   4.520  20.998  0.00  0.00    +0.000 C 
ATOM     18  F   UNL     1       0.683   3.714  20.804  0.00  0.00    +0.000 F 
ATOM     19  F   UNL     1       2.484   3.943  21.998  0.00  0.00    +0.000 F 
ENDBRANCH   8  17
ENDBRANCH   6   8
BRANCH   1  22
ATOM     20  C   UNL     1       0.096  10.103  19.921  0.00  0.00    +0.000 C 
ATOM     21  O   UNL     1      -0.615   9.897  18.946  0.00  0.00    +0.000 OA
ATOM     22  N   UNL     1       1.301   9.458  20.186  0.00  0.00    +0.000 N 
ATOM     23  H   UNL     1       1.738   9.714  21.069  0.00  0.00    +0.000 HD
BRANCH  20  27
ATOM     24  C   UNL     1      -1.016  13.003  22.759  0.00  0.00    +0.000 A 
ATOM     25  C   UNL     1      -0.834  13.302  21.420  0.00  0.00    +0.000 A 
ATOM     26  N   UNL     1      -0.457  12.376  20.505  0.00  0.00    +0.000 NA
ATOM     27  C   UNL     1      -0.315  11.096  20.979  0.00  0.00    +0.000 A 
ATOM     28  C   UNL     1      -0.526  10.779  22.329  0.00  0.00    +0.000 A 
ATOM     29  C   UNL     1      -0.448   9.416  22.948  0.00  0.00    +0.000 C 
ATOM     30  N   UNL     1      -0.874  11.750  23.234  0.00  0.00    +0.000 NA
BRANCH  24  31
ATOM     31  O   UNL     1      -1.424  14.012  23.599  0.00  0.00    +0.000 OA
BRANCH  31  32
ATOM     32  C   UNL     1      -2.396  14.876  23.001  0.00  0.00    +0.000 C 
BRANCH  32  33
ATOM     33  C   UNL     1      -3.780  14.310  23.311  0.00  0.00    +0.000 C 
BRANCH  33  35
ATOM     34  C   UNL     1      -4.339  12.483  24.685  0.00  0.00    +0.000 C 
ATOM     35  O   UNL     1      -3.823  13.809  24.644  0.00  0.00    +0.000 OA
ENDBRANCH  33  35
ENDBRANCH  32  33
ENDBRANCH  31  32
ENDBRANCH  24  31
ENDBRANCH  20  27
ENDBRANCH   1  22
TORSDOF 8
ENDMDL
