MODEL 1
REMARK VINA RESULT:      -6.9      0.000      0.000
REMARK  Name = 
REMARK  4 active torsions:
REMARK  status: ('A' for Active; 'I' for Inactive)
REMARK    1  A    between atoms: C_1  and  C_2
REMARK    2  A    between atoms: C_2  and  C_3
REMARK    3  A    between atoms: C_14  and  C_15
REMARK    4  A    between atoms: C_23  and  O_24
REMARK                            x       y       z     vdW  Elec       q    Type
REMARK                         _______ _______ _______ _____ _____    ______ ____
ROOT
ATOM      1  C   UNL     1      12.304  17.399  20.830  0.00  0.00    +0.000 C 
ATOM      2  C   UNL     1      11.106  16.711  20.152  0.00  0.00    +0.000 C 
ATOM      3  C   UNL     1      10.445  15.894  21.284  0.00  0.00    +0.000 C 
ATOM      4  C   UNL     1      10.006  17.643  19.608  0.00  0.00    +0.000 C 
ATOM      5  C   UNL     1       8.938  16.737  18.910  0.00  0.00    +0.000 C 
ATOM      6  N   UNL     1       7.734  16.930  19.311  0.00  0.00    +0.000 NA
ATOM      7  C   UNL     1       6.584  16.296  18.817  0.00  0.00    +0.000 A 
ATOM      8  C   UNL     1       5.405  17.022  19.075  0.00  0.00    +0.000 A 
ATOM      9  C   UNL     1       4.143  16.538  18.737  0.00  0.00    +0.000 A 
ATOM     10  C   UNL     1       4.039  15.306  18.119  0.00  0.00    +0.000 A 
ATOM     11  C   UNL     1       5.193  14.558  17.883  0.00  0.00    +0.000 A 
ATOM     12  C   UNL     1       6.486  15.028  18.239  0.00  0.00    +0.000 A 
ATOM     13  N   UNL     1       7.516  14.107  18.102  0.00  0.00    +0.000 N 
ATOM     14  C   UNL     1       8.894  14.365  17.738  0.00  0.00    +0.000 C 
ATOM     15  C   UNL     1       9.444  15.776  17.883  0.00  0.00    +0.000 C 
ATOM     16  C   UNL     1      10.769  15.956  17.701  0.00  0.00    +0.000 C 
ATOM     17  C   UNL     1      11.677  15.929  18.934  0.00  0.00    +0.000 C 
ATOM     18  H   UNL     1       7.210  13.242  17.669  0.00  0.00    +0.000 HD
ENDROOT
BRANCH  14  19
ATOM     19  C   UNL     1       9.760  13.322  18.446  0.00  0.00    +0.000 A 
ATOM     20  C   UNL     1       9.568  13.043  19.808  0.00  0.00    +0.000 A 
ATOM     21  C   UNL     1      10.572  12.425  20.558  0.00  0.00    +0.000 A 
ATOM     22  C   UNL     1      11.744  12.001  19.938  0.00  0.00    +0.000 A 
ATOM     23  C   UNL     1      11.882  12.135  18.557  0.00  0.00    +0.000 A 
ATOM     24  C   UNL     1      10.893  12.788  17.822  0.00  0.00    +0.000 A 
ATOM     25  F   UNL     1      11.083  12.969  16.508  0.00  0.00    +0.000 F 
ENDBRANCH  14  19
BRANCH  16  26
ATOM     26  O   UNL     1      11.192  16.931  16.792  0.00  0.00    +0.000 OA
ATOM     27  H   UNL     1      12.157  17.049  16.874  0.00  0.00    +0.000 HD
ENDBRANCH  16  26
TORSDOF 2
ENDMDL
MODEL 2
REMARK VINA RESULT:      -6.2      7.143     10.735
REMARK  Name = 
REMARK  4 active torsions:
REMARK  status: ('A' for Active; 'I' for Inactive)
REMARK    1  A    between atoms: C_1  and  C_2
REMARK    2  A    between atoms: C_2  and  C_3
REMARK    3  A    between atoms: C_14  and  C_15
REMARK    4  A    between atoms: C_23  and  O_24
REMARK                            x       y       z     vdW  Elec       q    Type
REMARK                         _______ _______ _______ _____ _____    ______ ____
ROOT
ATOM      1  C   UNL     1      -2.532  10.144  17.422  0.00  0.00    +0.000 C 
ATOM      2  C   UNL     1      -1.489  10.955  18.210  0.00  0.00    +0.000 C 
ATOM      3  C   UNL     1      -0.226  10.066  18.198  0.00  0.00    +0.000 C 
ATOM      4  C   UNL     1      -1.063  12.299  17.589  0.00  0.00    +0.000 C 
ATOM      5  C   UNL     1      -0.061  12.972  18.586  0.00  0.00    +0.000 C 
ATOM      6  N   UNL     1       1.052  13.332  18.058  0.00  0.00    +0.000 NA
ATOM      7  C   UNL     1       2.098  14.002  18.708  0.00  0.00    +0.000 A 
ATOM      8  C   UNL     1       2.949  14.684  17.817  0.00  0.00    +0.000 A 
ATOM      9  C   UNL     1       4.094  15.353  18.244  0.00  0.00    +0.000 A 
ATOM     10  C   UNL     1       4.408  15.358  19.590  0.00  0.00    +0.000 A 
ATOM     11  C   UNL     1       3.594  14.661  20.485  0.00  0.00    +0.000 A 
ATOM     12  C   UNL     1       2.434  13.958  20.064  0.00  0.00    +0.000 A 
ATOM     13  N   UNL     1       1.824  13.173  21.034  0.00  0.00    +0.000 N 
ATOM     14  C   UNL     1       0.412  12.890  21.187  0.00  0.00    +0.000 C 
ATOM     15  C   UNL     1      -0.518  13.107  20.003  0.00  0.00    +0.000 C 
ATOM     16  C   UNL     1      -1.792  12.676  20.117  0.00  0.00    +0.000 C 
ATOM     17  C   UNL     1      -2.132  11.280  19.589  0.00  0.00    +0.000 C 
ATOM     18  H   UNL     1       2.246  13.289  21.950  0.00  0.00    +0.000 HD
ENDROOT
BRANCH  14  19
ATOM     19  C   UNL     1       0.286  11.487  21.784  0.00  0.00    +0.000 A 
ATOM     20  C   UNL     1       0.942  10.399  21.188  0.00  0.00    +0.000 A 
ATOM     21  C   UNL     1       0.532   9.089  21.450  0.00  0.00    +0.000 A 
ATOM     22  C   UNL     1      -0.480   8.847  22.375  0.00  0.00    +0.000 A 
ATOM     23  C   UNL     1      -1.033   9.911  23.086  0.00  0.00    +0.000 A 
ATOM     24  C   UNL     1      -0.647  11.217  22.791  0.00  0.00    +0.000 A 
ATOM     25  F   UNL     1      -1.247  12.227  23.437  0.00  0.00    +0.000 F 
ENDBRANCH  14  19
BRANCH  16  26
ATOM     26  O   UNL     1      -2.827  13.578  19.847  0.00  0.00    +0.000 OA
ATOM     27  H   UNL     1      -3.663  13.085  19.750  0.00  0.00    +0.000 HD
ENDBRANCH  16  26
TORSDOF 2
ENDMDL
MODEL 3
REMARK VINA RESULT:      -6.0      7.137     10.465
REMARK  Name = 
REMARK  4 active torsions:
REMARK  status: ('A' for Active; 'I' for Inactive)
REMARK    1  A    between atoms: C_1  and  C_2
REMARK    2  A    between atoms: C_2  and  C_3
REMARK    3  A    between atoms: C_14  and  C_15
REMARK    4  A    between atoms: C_23  and  O_24
REMARK                            x       y       z     vdW  Elec       q    Type
REMARK                         _______ _______ _______ _____ _____    ______ ____
ROOT
ATOM      1  C   UNL     1      -2.711  12.238  23.029  0.00  0.00    +0.000 C 
ATOM      2  C   UNL     1      -1.646  12.523  21.956  0.00  0.00    +0.000 C 
ATOM      3  C   UNL     1      -2.360  13.450  20.947  0.00  0.00    +0.000 C 
ATOM      4  C   UNL     1      -0.398  13.293  22.425  0.00  0.00    +0.000 C 
ATOM      5  C   UNL     1       0.565  13.404  21.197  0.00  0.00    +0.000 C 
ATOM      6  N   UNL     1       0.957  14.598  20.935  0.00  0.00    +0.000 NA
ATOM      7  C   UNL     1       1.859  14.972  19.929  0.00  0.00    +0.000 A 
ATOM      8  C   UNL     1       2.465  16.220  20.172  0.00  0.00    +0.000 A 
ATOM      9  C   UNL     1       3.337  16.816  19.264  0.00  0.00    +0.000 A 
ATOM     10  C   UNL     1       3.628  16.159  18.082  0.00  0.00    +0.000 A 
ATOM     11  C   UNL     1       3.014  14.936  17.809  0.00  0.00    +0.000 A 
ATOM     12  C   UNL     1       2.107  14.325  18.716  0.00  0.00    +0.000 A 
ATOM     13  N   UNL     1       1.446  13.202  18.235  0.00  0.00    +0.000 N 
ATOM     14  C   UNL     1       1.023  12.035  18.980  0.00  0.00    +0.000 C 
ATOM     15  C   UNL     1       0.902  12.128  20.493  0.00  0.00    +0.000 C 
ATOM     16  C   UNL     1       0.346  11.086  21.145  0.00  0.00    +0.000 C 
ATOM     17  C   UNL     1      -1.155  11.138  21.444  0.00  0.00    +0.000 C 
ATOM     18  H   UNL     1       1.779  12.916  17.320  0.00  0.00    +0.000 HD
ENDROOT
BRANCH  14  19
ATOM     19  C   UNL     1      -0.250  11.503  18.320  0.00  0.00    +0.000 A 
ATOM     20  C   UNL     1      -1.359  12.342  18.135  0.00  0.00    +0.000 A 
ATOM     21  C   UNL     1      -2.632  11.806  17.924  0.00  0.00    +0.000 A 
ATOM     22  C   UNL     1      -2.798  10.429  17.810  0.00  0.00    +0.000 A 
ATOM     23  C   UNL     1      -1.681   9.594  17.840  0.00  0.00    +0.000 A 
ATOM     24  C   UNL     1      -0.420  10.133  18.090  0.00  0.00    +0.000 A 
ATOM     25  F   UNL     1       0.627   9.302  18.187  0.00  0.00    +0.000 F 
ENDBRANCH  14  19
BRANCH  16  26
ATOM     26  O   UNL     1       1.047  10.517  22.214  0.00  0.00    +0.000 OA
ATOM     27  H   UNL     1       2.003  10.542  22.019  0.00  0.00    +0.000 HD
ENDBRANCH  16  26
TORSDOF 2
ENDMDL
MODEL 4
REMARK VINA RESULT:      -6.0      8.068     11.297
REMARK  Name = 
REMARK  4 active torsions:
REMARK  status: ('A' for Active; 'I' for Inactive)
REMARK    1  A    between atoms: C_1  and  C_2
REMARK    2  A    between atoms: C_2  and  C_3
REMARK    3  A    between atoms: C_14  and  C_15
REMARK    4  A    between atoms: C_23  and  O_24
REMARK                            x       y       z     vdW  Elec       q    Type
REMARK                         _______ _______ _______ _____ _____    ______ ____
ROOT
ATOM      1  C   UNL     1       0.117   8.673  21.950  0.00  0.00    +0.000 C 
ATOM      2  C   UNL     1       0.014   9.987  21.157  0.00  0.00    +0.000 C 
ATOM      3  C   UNL     1      -0.787  10.930  22.083  0.00  0.00    +0.000 C 
ATOM      4  C   UNL     1       1.342  10.712  20.866  0.00  0.00    +0.000 C 
ATOM      5  C   UNL     1       1.002  11.970  20.000  0.00  0.00    +0.000 C 
ATOM      6  N   UNL     1       1.468  13.074  20.459  0.00  0.00    +0.000 NA
ATOM      7  C   UNL     1       1.358  14.335  19.856  0.00  0.00    +0.000 A 
ATOM      8  C   UNL     1       2.340  15.242  20.300  0.00  0.00    +0.000 A 
ATOM      9  C   UNL     1       2.369  16.572  19.886  0.00  0.00    +0.000 A 
ATOM     10  C   UNL     1       1.406  17.021  19.001  0.00  0.00    +0.000 A 
ATOM     11  C   UNL     1       0.406  16.146  18.575  0.00  0.00    +0.000 A 
ATOM     12  C   UNL     1       0.351  14.792  19.003  0.00  0.00    +0.000 A 
ATOM     13  N   UNL     1      -0.792  14.094  18.635  0.00  0.00    +0.000 N 
ATOM     14  C   UNL     1      -0.906  12.687  18.312  0.00  0.00    +0.000 C 
ATOM     15  C   UNL     1       0.188  11.733  18.767  0.00  0.00    +0.000 C 
ATOM     16  C   UNL     1      -0.023  10.410  18.605  0.00  0.00    +0.000 C 
ATOM     17  C   UNL     1      -0.612   9.624  19.779  0.00  0.00    +0.000 C 
ATOM     18  H   UNL     1      -1.395  14.631  18.020  0.00  0.00    +0.000 HD
ENDROOT
BRANCH  14  19
ATOM     19  C   UNL     1      -2.301  12.228  18.741  0.00  0.00    +0.000 A 
ATOM     20  C   UNL     1      -3.116  11.506  17.857  0.00  0.00    +0.000 A 
ATOM     21  C   UNL     1      -4.496  11.433  18.057  0.00  0.00    +0.000 A 
ATOM     22  C   UNL     1      -5.068  12.008  19.189  0.00  0.00    +0.000 A 
ATOM     23  C   UNL     1      -4.249  12.595  20.153  0.00  0.00    +0.000 A 
ATOM     24  C   UNL     1      -2.877  12.698  19.927  0.00  0.00    +0.000 A 
ATOM     25  F   UNL     1      -2.121  13.333  20.834  0.00  0.00    +0.000 F 
ENDBRANCH  14  19
BRANCH  16  26
ATOM     26  O   UNL     1       0.949   9.657  17.938  0.00  0.00    +0.000 OA
ATOM     27  H   UNL     1       1.265  10.157  17.162  0.00  0.00    +0.000 HD
ENDBRANCH  16  26
TORSDOF 2
ENDMDL
MODEL 5
REMARK VINA RESULT:      -6.0      2.778      4.074
REMARK  Name = 
REMARK  4 active torsions:
REMARK  status: ('A' for Active; 'I' for Inactive)
REMARK    1  A    between atoms: C_1  and  C_2
REMARK    2  A    between atoms: C_2  and  C_3
REMARK    3  A    between atoms: C_14  and  C_15
REMARK    4  A    between atoms: C_23  and  O_24
REMARK                            x       y       z     vdW  Elec       q    Type
REMARK                         _______ _______ _______ _____ _____    ______ ____
ROOT
ATOM      1  C   UNL     1      11.065  18.318  19.770  0.00  0.00    +0.000 C 
ATOM      2  C   UNL     1      10.463  16.972  20.208  0.00  0.00    +0.000 C 
ATOM      3  C   UNL     1      11.653  16.204  20.826  0.00  0.00    +0.000 C 
ATOM      4  C   UNL     1       9.387  17.035  21.308  0.00  0.00    +0.000 C 
ATOM      5  C   UNL     1       8.876  15.574  21.539  0.00  0.00    +0.000 C 
ATOM      6  N   UNL     1       8.908  15.186  22.762  0.00  0.00    +0.000 NA
ATOM      7  C   UNL     1       8.461  13.951  23.252  0.00  0.00    +0.000 A 
ATOM      8  C   UNL     1       8.168  13.982  24.629  0.00  0.00    +0.000 A 
ATOM      9  C   UNL     1       7.780  12.845  25.335  0.00  0.00    +0.000 A 
ATOM     10  C   UNL     1       7.669  11.642  24.663  0.00  0.00    +0.000 A 
ATOM     11  C   UNL     1       7.985  11.585  23.305  0.00  0.00    +0.000 A 
ATOM     12  C   UNL     1       8.401  12.730  22.575  0.00  0.00    +0.000 A 
ATOM     13  N   UNL     1       8.846  12.488  21.282  0.00  0.00    +0.000 N 
ATOM     14  C   UNL     1       8.712  13.345  20.122  0.00  0.00    +0.000 C 
ATOM     15  C   UNL     1       8.423  14.824  20.327  0.00  0.00    +0.000 C 
ATOM     16  C   UNL     1       8.472  15.630  19.245  0.00  0.00    +0.000 C 
ATOM     17  C   UNL     1       9.784  16.360  18.948  0.00  0.00    +0.000 C 
ATOM     18  H   UNL     1       8.720  11.520  21.002  0.00  0.00    +0.000 HD
ENDROOT
BRANCH  14  19
ATOM     19  C   UNL     1       9.930  13.103  19.228  0.00  0.00    +0.000 A 
ATOM     20  C   UNL     1      11.226  13.163  19.760  0.00  0.00    +0.000 A 
ATOM     21  C   UNL     1      12.331  13.352  18.926  0.00  0.00    +0.000 A 
ATOM     22  C   UNL     1      12.163  13.396  17.545  0.00  0.00    +0.000 A 
ATOM     23  C   UNL     1      10.898  13.184  16.997  0.00  0.00    +0.000 A 
ATOM     24  C   UNL     1       9.795  13.036  17.837  0.00  0.00    +0.000 A 
ATOM     25  F   UNL     1       8.580  12.908  17.286  0.00  0.00    +0.000 F 
ENDBRANCH  14  19
BRANCH  16  26
ATOM     26  O   UNL     1       7.372  16.451  18.975  0.00  0.00    +0.000 OA
ATOM     27  H   UNL     1       7.355  17.185  19.617  0.00  0.00    +0.000 HD
ENDBRANCH  16  26
TORSDOF 2
ENDMDL
MODEL 6
REMARK VINA RESULT:      -6.0      9.505     11.580
REMARK  Name = 
REMARK  4 active torsions:
REMARK  status: ('A' for Active; 'I' for Inactive)
REMARK    1  A    between atoms: C_1  and  C_2
REMARK    2  A    between atoms: C_2  and  C_3
REMARK    3  A    between atoms: C_14  and  C_15
REMARK    4  A    between atoms: C_23  and  O_24
REMARK                            x       y       z     vdW  Elec       q    Type
REMARK                         _______ _______ _______ _____ _____    ______ ____
ROOT
ATOM      1  C   UNL     1       3.111   4.253  19.767  0.00  0.00    +0.000 C 
ATOM      2  C   UNL     1       4.022   4.525  18.557  0.00  0.00    +0.000 C 
ATOM      3  C   UNL     1       5.085   3.406  18.620  0.00  0.00    +0.000 C 
ATOM      4  C   UNL     1       3.363   4.402  17.170  0.00  0.00    +0.000 C 
ATOM      5  C   UNL     1       4.446   4.786  16.108  0.00  0.00    +0.000 C 
ATOM      6  N   UNL     1       4.612   3.915  15.180  0.00  0.00    +0.000 NA
ATOM      7  C   UNL     1       5.475   4.031  14.080  0.00  0.00    +0.000 A 
ATOM      8  C   UNL     1       5.109   3.195  13.007  0.00  0.00    +0.000 A 
ATOM      9  C   UNL     1       5.872   3.097  11.845  0.00  0.00    +0.000 A 
ATOM     10  C   UNL     1       7.025   3.850  11.732  0.00  0.00    +0.000 A 
ATOM     11  C   UNL     1       7.421   4.661  12.798  0.00  0.00    +0.000 A 
ATOM     12  C   UNL     1       6.665   4.757  13.997  0.00  0.00    +0.000 A 
ATOM     13  N   UNL     1       7.269   5.463  15.029  0.00  0.00    +0.000 N 
ATOM     14  C   UNL     1       6.628   6.281  16.038  0.00  0.00    +0.000 C 
ATOM     15  C   UNL     1       5.142   6.094  16.306  0.00  0.00    +0.000 C 
ATOM     16  C   UNL     1       4.607   6.743  17.362  0.00  0.00    +0.000 C 
ATOM     17  C   UNL     1       4.511   5.996  18.694  0.00  0.00    +0.000 C 
ATOM     18  H   UNL     1       8.140   5.900  14.745  0.00  0.00    +0.000 HD
ENDROOT
BRANCH  14  19
ATOM     19  C   UNL     1       7.471   6.187  17.311  0.00  0.00    +0.000 A 
ATOM     20  C   UNL     1       7.668   4.951  17.943  0.00  0.00    +0.000 A 
ATOM     21  C   UNL     1       8.068   4.889  19.281  0.00  0.00    +0.000 A 
ATOM     22  C   UNL     1       8.358   6.060  19.976  0.00  0.00    +0.000 A 
ATOM     23  C   UNL     1       8.312   7.286  19.313  0.00  0.00    +0.000 A 
ATOM     24  C   UNL     1       7.875   7.342  17.990  0.00  0.00    +0.000 A 
ATOM     25  F   UNL     1       7.770   8.539  17.398  0.00  0.00    +0.000 F 
ENDBRANCH  14  19
BRANCH  16  26
ATOM     26  O   UNL     1       3.475   7.537  17.152  0.00  0.00    +0.000 OA
ATOM     27  H   UNL     1       2.675   7.013  17.348  0.00  0.00    +0.000 HD
ENDBRANCH  16  26
TORSDOF 2
ENDMDL
MODEL 7
REMARK VINA RESULT:      -6.0     11.863     14.035
REMARK  Name = 
REMARK  4 active torsions:
REMARK  status: ('A' for Active; 'I' for Inactive)
REMARK    1  A    between atoms: C_1  and  C_2
REMARK    2  A    between atoms: C_2  and  C_3
REMARK    3  A    between atoms: C_14  and  C_15
REMARK    4  A    between atoms: C_23  and  O_24
REMARK                            x       y       z     vdW  Elec       q    Type
REMARK                         _______ _______ _______ _____ _____    ______ ____
ROOT
ATOM      1  C   UNL     1      -1.432  15.098  24.915  0.00  0.00    +0.000 C 
ATOM      2  C   UNL     1      -2.046  14.463  23.656  0.00  0.00    +0.000 C 
ATOM      3  C   UNL     1      -1.647  15.421  22.512  0.00  0.00    +0.000 C 
ATOM      4  C   UNL     1      -1.497  13.080  23.256  0.00  0.00    +0.000 C 
ATOM      5  C   UNL     1      -2.307  12.606  22.003  0.00  0.00    +0.000 C 
ATOM      6  N   UNL     1      -1.582  12.253  21.004  0.00  0.00    +0.000 NA
ATOM      7  C   UNL     1      -2.046  11.740  19.784  0.00  0.00    +0.000 A 
ATOM      8  C   UNL     1      -1.066  11.004  19.091  0.00  0.00    +0.000 A 
ATOM      9  C   UNL     1      -1.291  10.470  17.824  0.00  0.00    +0.000 A 
ATOM     10  C   UNL     1      -2.522  10.659  17.224  0.00  0.00    +0.000 A 
ATOM     11  C   UNL     1      -3.496  11.411  17.882  0.00  0.00    +0.000 A 
ATOM     12  C   UNL     1      -3.276  11.979  19.165  0.00  0.00    +0.000 A 
ATOM     13  N   UNL     1      -4.266  12.842  19.616  0.00  0.00    +0.000 N 
ATOM     14  C   UNL     1      -4.706  13.052  20.980  0.00  0.00    +0.000 C 
ATOM     15  C   UNL     1      -3.797  12.626  22.123  0.00  0.00    +0.000 C 
ATOM     16  C   UNL     1      -4.151  12.986  23.375  0.00  0.00    +0.000 C 
ATOM     17  C   UNL     1      -3.563  14.278  23.948  0.00  0.00    +0.000 C 
ATOM     18  H   UNL     1      -5.068  12.872  18.995  0.00  0.00    +0.000 HD
ENDROOT
BRANCH  14  19
ATOM     19  C   UNL     1      -5.156  14.510  21.099  0.00  0.00    +0.000 A 
ATOM     20  C   UNL     1      -4.316  15.550  20.676  0.00  0.00    +0.000 A 
ATOM     21  C   UNL     1      -4.512  16.856  21.134  0.00  0.00    +0.000 A 
ATOM     22  C   UNL     1      -5.601  17.153  21.949  0.00  0.00    +0.000 A 
ATOM     23  C   UNL     1      -6.528  16.156  22.251  0.00  0.00    +0.000 A 
ATOM     24  C   UNL     1      -6.304  14.848  21.823  0.00  0.00    +0.000 A 
ATOM     25  F   UNL     1      -7.172  13.895  22.189  0.00  0.00    +0.000 F 
ENDBRANCH  14  19
BRANCH  16  26
ATOM     26  O   UNL     1      -4.226  11.993  24.358  0.00  0.00    +0.000 OA
ATOM     27  H   UNL     1      -3.585  11.288  24.150  0.00  0.00    +0.000 HD
ENDBRANCH  16  26
TORSDOF 2
ENDMDL
MODEL 8
REMARK VINA RESULT:      -6.0      7.360     10.809
REMARK  Name = 
REMARK  4 active torsions:
REMARK  status: ('A' for Active; 'I' for Inactive)
REMARK    1  A    between atoms: C_1  and  C_2
REMARK    2  A    between atoms: C_2  and  C_3
REMARK    3  A    between atoms: C_14  and  C_15
REMARK    4  A    between atoms: C_23  and  O_24
REMARK                            x       y       z     vdW  Elec       q    Type
REMARK                         _______ _______ _______ _____ _____    ______ ____
ROOT
ATOM      1  C   UNL     1       0.644   8.487  20.621  0.00  0.00    +0.000 C 
ATOM      2  C   UNL     1       0.566   9.979  20.253  0.00  0.00    +0.000 C 
ATOM      3  C   UNL     1       1.184  10.704  21.469  0.00  0.00    +0.000 C 
ATOM      4  C   UNL     1       1.396  10.422  19.034  0.00  0.00    +0.000 C 
ATOM      5  C   UNL     1       1.111  11.945  18.809  0.00  0.00    +0.000 C 
ATOM      6  N   UNL     1       2.162  12.677  18.737  0.00  0.00    +0.000 NA
ATOM      7  C   UNL     1       2.195  14.057  18.488  0.00  0.00    +0.000 A 
ATOM      8  C   UNL     1       3.438  14.494  17.990  0.00  0.00    +0.000 A 
ATOM      9  C   UNL     1       3.712  15.838  17.746  0.00  0.00    +0.000 A 
ATOM     10  C   UNL     1       2.730  16.780  17.991  0.00  0.00    +0.000 A 
ATOM     11  C   UNL     1       1.503  16.370  18.514  0.00  0.00    +0.000 A 
ATOM     12  C   UNL     1       1.214  15.006  18.787  0.00  0.00    +0.000 A 
ATOM     13  N   UNL     1       0.024  14.770  19.463  0.00  0.00    +0.000 N 
ATOM     14  C   UNL     1      -0.860  13.631  19.330  0.00  0.00    +0.000 C 
ATOM     15  C   UNL     1      -0.326  12.349  18.711  0.00  0.00    +0.000 C 
ATOM     16  C   UNL     1      -1.113  11.253  18.754  0.00  0.00    +0.000 C 
ATOM     17  C   UNL     1      -0.924  10.273  19.915  0.00  0.00    +0.000 C 
ATOM     18  H   UNL     1      -0.528  15.613  19.585  0.00  0.00    +0.000 HD
ENDROOT
BRANCH  14  19
ATOM     19  C   UNL     1      -1.516  13.396  20.692  0.00  0.00    +0.000 A 
ATOM     20  C   UNL     1      -0.743  13.386  21.862  0.00  0.00    +0.000 A 
ATOM     21  C   UNL     1      -1.223  12.787  23.030  0.00  0.00    +0.000 A 
ATOM     22  C   UNL     1      -2.514  12.268  23.067  0.00  0.00    +0.000 A 
ATOM     23  C   UNL     1      -3.346  12.409  21.957  0.00  0.00    +0.000 A 
ATOM     24  C   UNL     1      -2.847  12.973  20.783  0.00  0.00    +0.000 A 
ATOM     25  F   UNL     1      -3.644  13.030  19.708  0.00  0.00    +0.000 F 
ENDBRANCH  14  19
BRANCH  16  26
ATOM     26  O   UNL     1      -1.370  10.570  17.561  0.00  0.00    +0.000 OA
ATOM     27  H   UNL     1      -1.045   9.653  17.641  0.00  0.00    +0.000 HD
ENDBRANCH  16  26
TORSDOF 2
ENDMDL
MODEL 9
REMARK VINA RESULT:      -5.9      7.708     10.972
REMARK  Name = 
REMARK  4 active torsions:
REMARK  status: ('A' for Active; 'I' for Inactive)
REMARK    1  A    between atoms: C_1  and  C_2
REMARK    2  A    between atoms: C_2  and  C_3
REMARK    3  A    between atoms: C_14  and  C_15
REMARK    4  A    between atoms: C_23  and  O_24
REMARK                            x       y       z     vdW  Elec       q    Type
REMARK                         _______ _______ _______ _____ _____    ______ ____
ROOT
ATOM      1  C   UNL     1       0.964   8.520  20.386  0.00  0.00    +0.000 C 
ATOM      2  C   UNL     1       0.635   9.990  20.072  0.00  0.00    +0.000 C 
ATOM      3  C   UNL     1       1.050  10.755  21.348  0.00  0.00    +0.000 C 
ATOM      4  C   UNL     1       1.431  10.632  18.920  0.00  0.00    +0.000 C 
ATOM      5  C   UNL     1       0.886  12.088  18.738  0.00  0.00    +0.000 C 
ATOM      6  N   UNL     1       1.790  12.999  18.754  0.00  0.00    +0.000 NA
ATOM      7  C   UNL     1       1.585  14.373  18.559  0.00  0.00    +0.000 A 
ATOM      8  C   UNL     1       2.751  15.048  18.151  0.00  0.00    +0.000 A 
ATOM      9  C   UNL     1       2.789  16.430  17.974  0.00  0.00    +0.000 A 
ATOM     10  C   UNL     1       1.642  17.168  18.198  0.00  0.00    +0.000 A 
ATOM     11  C   UNL     1       0.485  16.521  18.633  0.00  0.00    +0.000 A 
ATOM     12  C   UNL     1       0.435  15.116  18.838  0.00  0.00    +0.000 A 
ATOM     13  N   UNL     1      -0.725  14.639  19.434  0.00  0.00    +0.000 N 
ATOM     14  C   UNL     1      -1.381  13.368  19.208  0.00  0.00    +0.000 C 
ATOM     15  C   UNL     1      -0.593  12.233  18.572  0.00  0.00    +0.000 C 
ATOM     16  C   UNL     1      -1.170  11.014  18.528  0.00  0.00    +0.000 C 
ATOM     17  C   UNL     1      -0.865  10.029  19.659  0.00  0.00    +0.000 C 
ATOM     18  H   UNL     1      -1.426  15.363  19.556  0.00  0.00    +0.000 HD
ENDROOT
BRANCH  14  19
ATOM     19  C   UNL     1      -2.051  12.955  20.520  0.00  0.00    +0.000 A 
ATOM     20  C   UNL     1      -3.415  12.630  20.550  0.00  0.00    +0.000 A 
ATOM     21  C   UNL     1      -4.126  12.651  21.753  0.00  0.00    +0.000 A 
ATOM     22  C   UNL     1      -3.465  12.913  22.950  0.00  0.00    +0.000 A 
ATOM     23  C   UNL     1      -2.081  13.086  22.949  0.00  0.00    +0.000 A 
ATOM     24  C   UNL     1      -1.385  13.102  21.741  0.00  0.00    +0.000 A 
ATOM     25  F   UNL     1      -0.067  13.344  21.762  0.00  0.00    +0.000 F 
ENDBRANCH  14  19
BRANCH  16  26
ATOM     26  O   UNL     1      -1.240  10.353  17.297  0.00  0.00    +0.000 OA
ATOM     27  H   UNL     1      -1.762  10.892  16.673  0.00  0.00    +0.000 HD
ENDBRANCH  16  26
TORSDOF 2
ENDMDL
