MODEL 1
REMARK VINA RESULT:      -7.3      0.000      0.000
REMARK  Name = 
REMARK  16 active torsions:
REMARK  status: ('A' for Active; 'I' for Inactive)
REMARK    1  A    between atoms: C_1  and  O_2
REMARK    2  A    between atoms: O_2  and  C_3
REMARK    3  A    between atoms: C_6  and  O_7
REMARK    4  A    between atoms: O_7  and  C_8
REMARK    5  A    between atoms: C_8  and  C_9
REMARK    6  A    between atoms: C_9  and  N_10
REMARK    7  A    between atoms: N_10  and  C_11
REMARK    8  A    between atoms: N_10  and  C_19
REMARK    9  A    between atoms: C_11  and  C_12
REMARK   10  A    between atoms: N_14  and  C_15
REMARK   11  A    between atoms: C_15  and  C_16
REMARK   12  A    between atoms: C_16  and  C_17
REMARK   13  A    between atoms: C_16  and  C_18
REMARK   14  A    between atoms: C_19  and  C_20
REMARK   15  A    between atoms: C_28  and  O_29
REMARK   16  A    between atoms: O_29  and  C_30
REMARK                            x       y       z     vdW  Elec       q    Type
REMARK                         _______ _______ _______ _____ _____    ______ ____
ROOT
ATOM      1  N   UNL     1       5.377   4.835  17.058  0.00  0.00    +0.000 NA
ENDROOT
BRANCH   1   2
ATOM      2  C   UNL     1       5.639   6.253  17.412  0.00  0.00    +0.000 C 
BRANCH   2   3
ATOM      3  C   UNL     1       4.371   7.117  17.378  0.00  0.00    +0.000 C 
BRANCH   3   4
ATOM      4  O   UNL     1       3.399   6.693  18.341  0.00  0.00    +0.000 OA
BRANCH   4   8
ATOM      5  C   UNL     1       0.774   9.786  19.410  0.00  0.00    +0.000 A 
ATOM      6  C   UNL     1       1.509   9.803  18.212  0.00  0.00    +0.000 A 
ATOM      7  C   UNL     1       2.372   8.755  17.877  0.00  0.00    +0.000 A 
ATOM      8  C   UNL     1       2.553   7.694  18.757  0.00  0.00    +0.000 A 
ATOM      9  C   UNL     1       1.882   7.722  19.983  0.00  0.00    +0.000 A 
ATOM     10  C   UNL     1       0.997   8.751  20.325  0.00  0.00    +0.000 A 
BRANCH   5  12
ATOM     11  C   UNL     1      -0.327  11.757  18.698  0.00  0.00    +0.000 C 
ATOM     12  O   UNL     1      -0.124  10.773  19.712  0.00  0.00    +0.000 OA
ENDBRANCH   5  12
BRANCH  10  13
ATOM     13  O   UNL     1       0.457   8.544  21.566  0.00  0.00    +0.000 OA
ATOM     14  C   UNL     1       0.508   9.574  22.535  0.00  0.00    +0.000 C 
ENDBRANCH  10  13
ENDBRANCH   4   8
ENDBRANCH   3   4
ENDBRANCH   2   3
ENDBRANCH   1   2
BRANCH   1  15
ATOM     15  C   UNL     1       6.350   4.269  16.087  0.00  0.00    +0.000 C 
BRANCH  15  16
ATOM     16  C   UNL     1       5.945   4.409  14.609  0.00  0.00    +0.000 C 
ATOM     17  O   UNL     1       5.005   5.107  14.233  0.00  0.00    +0.000 OA
ATOM     18  N   UNL     1       6.704   3.655  13.740  0.00  0.00    +0.000 N 
ATOM     19  H   UNL     1       7.514   3.154  14.086  0.00  0.00    +0.000 HD
BRANCH  18  20
ATOM     20  C   UNL     1       6.431   3.614  12.316  0.00  0.00    +0.000 C 
BRANCH  20  21
ATOM     21  C   UNL     1       5.397   2.544  11.935  0.00  0.00    +0.000 C 
ATOM     22  C   UNL     1       4.214   3.149  11.178  0.00  0.00    +0.000 C 
ATOM     23  C   UNL     1       6.062   1.460  11.085  0.00  0.00    +0.000 C 
ENDBRANCH  20  21
ENDBRANCH  18  20
ENDBRANCH  15  16
ENDBRANCH   1  15
BRANCH   1  24
ATOM     24  C   UNL     1       5.278   3.971  18.244  0.00  0.00    +0.000 C 
BRANCH  24  25
ATOM     25  C   UNL     1       3.858   3.578  18.616  0.00  0.00    +0.000 A 
ATOM     26  C   UNL     1       2.817   3.631  17.682  0.00  0.00    +0.000 A 
ATOM     27  C   UNL     1       1.523   3.232  18.041  0.00  0.00    +0.000 A 
ATOM     28  C   UNL     1       1.282   2.776  19.334  0.00  0.00    +0.000 A 
ATOM     29  F   UNL     1       0.047   2.382  19.673  0.00  0.00    +0.000 F 
ATOM     30  C   UNL     1       2.300   2.720  20.273  0.00  0.00    +0.000 A 
ATOM     31  C   UNL     1       3.587   3.122  19.920  0.00  0.00    +0.000 A 
ENDBRANCH  24  25
ENDBRANCH   1  24
TORSDOF 12
ENDMDL
MODEL 2
REMARK VINA RESULT:      -7.2      2.647      5.537
REMARK  Name = 
REMARK  16 active torsions:
REMARK  status: ('A' for Active; 'I' for Inactive)
REMARK    1  A    between atoms: C_1  and  O_2
REMARK    2  A    between atoms: O_2  and  C_3
REMARK    3  A    between atoms: C_6  and  O_7
REMARK    4  A    between atoms: O_7  and  C_8
REMARK    5  A    between atoms: C_8  and  C_9
REMARK    6  A    between atoms: C_9  and  N_10
REMARK    7  A    between atoms: N_10  and  C_11
REMARK    8  A    between atoms: N_10  and  C_19
REMARK    9  A    between atoms: C_11  and  C_12
REMARK   10  A    between atoms: N_14  and  C_15
REMARK   11  A    between atoms: C_15  and  C_16
REMARK   12  A    between atoms: C_16  and  C_17
REMARK   13  A    between atoms: C_16  and  C_18
REMARK   14  A    between atoms: C_19  and  C_20
REMARK   15  A    between atoms: C_28  and  O_29
REMARK   16  A    between atoms: O_29  and  C_30
REMARK                            x       y       z     vdW  Elec       q    Type
REMARK                         _______ _______ _______ _____ _____    ______ ____
ROOT
ATOM      1  N   UNL     1       5.438   5.366  17.295  0.00  0.00    +0.000 NA
ENDROOT
BRANCH   1   2
ATOM      2  C   UNL     1       4.411   6.326  16.819  0.00  0.00    +0.000 C 
BRANCH   2   3
ATOM      3  C   UNL     1       3.934   7.281  17.922  0.00  0.00    +0.000 C 
BRANCH   3   4
ATOM      4  O   UNL     1       2.569   7.045  18.291  0.00  0.00    +0.000 OA
BRANCH   4   8
ATOM      5  C   UNL     1       0.599  10.473  19.693  0.00  0.00    +0.000 A 
ATOM      6  C   UNL     1       1.324  10.462  18.489  0.00  0.00    +0.000 A 
ATOM      7  C   UNL     1       1.966   9.302  18.042  0.00  0.00    +0.000 A 
ATOM      8  C   UNL     1       1.935   8.147  18.814  0.00  0.00    +0.000 A 
ATOM      9  C   UNL     1       1.283   8.188  20.050  0.00  0.00    +0.000 A 
ATOM     10  C   UNL     1       0.615   9.332  20.503  0.00  0.00    +0.000 A 
BRANCH   5  12
ATOM     11  C   UNL     1      -0.372  12.545  19.088  0.00  0.00    +0.000 C 
ATOM     12  O   UNL     1      -0.088  11.583  20.103  0.00  0.00    +0.000 OA
ENDBRANCH   5  12
BRANCH  10  13
ATOM     13  O   UNL     1       0.045   9.116  21.729  0.00  0.00    +0.000 OA
ATOM     14  C   UNL     1       0.692   9.584  22.897  0.00  0.00    +0.000 C 
ENDBRANCH  10  13
ENDBRANCH   4   8
ENDBRANCH   3   4
ENDBRANCH   2   3
ENDBRANCH   1   2
BRANCH   1  15
ATOM     15  C   UNL     1       5.400   5.126  18.762  0.00  0.00    +0.000 C 
BRANCH  15  16
ATOM     16  C   UNL     1       4.607   3.880  19.193  0.00  0.00    +0.000 C 
ATOM     17  O   UNL     1       5.134   2.883  19.684  0.00  0.00    +0.000 OA
ATOM     18  N   UNL     1       3.252   3.958  18.949  0.00  0.00    +0.000 N 
ATOM     19  H   UNL     1       2.853   4.825  18.612  0.00  0.00    +0.000 HD
BRANCH  18  20
ATOM     20  C   UNL     1       2.354   2.855  19.234  0.00  0.00    +0.000 C 
BRANCH  20  21
ATOM     21  C   UNL     1       1.343   3.180  20.345  0.00  0.00    +0.000 C 
ATOM     22  C   UNL     1       1.736   2.526  21.671  0.00  0.00    +0.000 C 
ATOM     23  C   UNL     1       1.236   4.695  20.521  0.00  0.00    +0.000 C 
ENDBRANCH  20  21
ENDBRANCH  18  20
ENDBRANCH  15  16
ENDBRANCH   1  15
BRANCH   1  24
ATOM     24  C   UNL     1       5.390   4.089  16.568  0.00  0.00    +0.000 C 
BRANCH  24  25
ATOM     25  C   UNL     1       5.940   4.153  15.152  0.00  0.00    +0.000 A 
ATOM     26  C   UNL     1       5.307   3.493  14.093  0.00  0.00    +0.000 A 
ATOM     27  C   UNL     1       5.815   3.596  12.791  0.00  0.00    +0.000 A 
ATOM     28  C   UNL     1       6.952   4.365  12.559  0.00  0.00    +0.000 A 
ATOM     29  F   UNL     1       7.430   4.474  11.312  0.00  0.00    +0.000 F 
ATOM     30  C   UNL     1       7.594   5.023  13.597  0.00  0.00    +0.000 A 
ATOM     31  C   UNL     1       7.093   4.918  14.894  0.00  0.00    +0.000 A 
ENDBRANCH  24  25
ENDBRANCH   1  24
TORSDOF 12
ENDMDL
MODEL 3
REMARK VINA RESULT:      -7.1      5.450      7.713
REMARK  Name = 
REMARK  16 active torsions:
REMARK  status: ('A' for Active; 'I' for Inactive)
REMARK    1  A    between atoms: C_1  and  O_2
REMARK    2  A    between atoms: O_2  and  C_3
REMARK    3  A    between atoms: C_6  and  O_7
REMARK    4  A    between atoms: O_7  and  C_8
REMARK    5  A    between atoms: C_8  and  C_9
REMARK    6  A    between atoms: C_9  and  N_10
REMARK    7  A    between atoms: N_10  and  C_11
REMARK    8  A    between atoms: N_10  and  C_19
REMARK    9  A    between atoms: C_11  and  C_12
REMARK   10  A    between atoms: N_14  and  C_15
REMARK   11  A    between atoms: C_15  and  C_16
REMARK   12  A    between atoms: C_16  and  C_17
REMARK   13  A    between atoms: C_16  and  C_18
REMARK   14  A    between atoms: C_19  and  C_20
REMARK   15  A    between atoms: C_28  and  O_29
REMARK   16  A    between atoms: O_29  and  C_30
REMARK                            x       y       z     vdW  Elec       q    Type
REMARK                         _______ _______ _______ _____ _____    ______ ____
ROOT
ATOM      1  N   UNL     1       7.142   6.550  16.869  0.00  0.00    +0.000 NA
ENDROOT
BRANCH   1   2
ATOM      2  C   UNL     1       6.946   7.750  17.721  0.00  0.00    +0.000 C 
BRANCH   2   3
ATOM      3  C   UNL     1       8.106   8.749  17.614  0.00  0.00    +0.000 C 
BRANCH   3   4
ATOM      4  O   UNL     1       8.798   8.912  18.858  0.00  0.00    +0.000 OA
BRANCH   4   8
ATOM      5  C   UNL     1      10.168  12.772  19.765  0.00  0.00    +0.000 A 
ATOM      6  C   UNL     1       9.884  11.822  20.760  0.00  0.00    +0.000 A 
ATOM      7  C   UNL     1       9.435  10.539  20.429  0.00  0.00    +0.000 A 
ATOM      8  C   UNL     1       9.215  10.200  19.099  0.00  0.00    +0.000 A 
ATOM      9  C   UNL     1       9.420  11.175  18.119  0.00  0.00    +0.000 A 
ATOM     10  C   UNL     1       9.892  12.456  18.430  0.00  0.00    +0.000 A 
BRANCH   5  12
ATOM     11  C   UNL     1       9.904  14.773  21.000  0.00  0.00    +0.000 C 
ATOM     12  O   UNL     1      10.673  14.005  20.077  0.00  0.00    +0.000 OA
ENDBRANCH   5  12
BRANCH  10  13
ATOM     13  O   UNL     1      10.025  13.219  17.301  0.00  0.00    +0.000 OA
ATOM     14  C   UNL     1      11.274  13.282  16.638  0.00  0.00    +0.000 C 
ENDBRANCH  10  13
ENDBRANCH   4   8
ENDBRANCH   3   4
ENDBRANCH   2   3
ENDBRANCH   1   2
BRANCH   1  15
ATOM     15  C   UNL     1       7.543   5.335  17.626  0.00  0.00    +0.000 C 
BRANCH  15  16
ATOM     16  C   UNL     1       6.551   4.898  18.720  0.00  0.00    +0.000 C 
ATOM     17  O   UNL     1       6.553   5.368  19.856  0.00  0.00    +0.000 OA
ATOM     18  N   UNL     1       5.680   3.902  18.330  0.00  0.00    +0.000 N 
ATOM     19  H   UNL     1       5.667   3.598  17.364  0.00  0.00    +0.000 HD
BRANCH  18  20
ATOM     20  C   UNL     1       4.715   3.323  19.244  0.00  0.00    +0.000 C 
BRANCH  20  21
ATOM     21  C   UNL     1       3.262   3.543  18.797  0.00  0.00    +0.000 C 
ATOM     22  C   UNL     1       3.163   3.741  17.284  0.00  0.00    +0.000 C 
ATOM     23  C   UNL     1       2.402   2.352  19.226  0.00  0.00    +0.000 C 
ENDBRANCH  20  21
ENDBRANCH  18  20
ENDBRANCH  15  16
ENDBRANCH   1  15
BRANCH   1  24
ATOM     24  C   UNL     1       5.970   6.263  16.028  0.00  0.00    +0.000 C 
BRANCH  24  25
ATOM     25  C   UNL     1       6.255   5.349  14.847  0.00  0.00    +0.000 A 
ATOM     26  C   UNL     1       5.380   4.315  14.496  0.00  0.00    +0.000 A 
ATOM     27  C   UNL     1       5.649   3.508  13.383  0.00  0.00    +0.000 A 
ATOM     28  C   UNL     1       6.793   3.745  12.626  0.00  0.00    +0.000 A 
ATOM     29  F   UNL     1       7.043   2.981  11.554  0.00  0.00    +0.000 F 
ATOM     30  C   UNL     1       7.673   4.763  12.961  0.00  0.00    +0.000 A 
ATOM     31  C   UNL     1       7.410   5.564  14.072  0.00  0.00    +0.000 A 
ENDBRANCH  24  25
ENDBRANCH   1  24
TORSDOF 12
ENDMDL
MODEL 4
REMARK VINA RESULT:      -7.1      2.605      5.651
REMARK  Name = 
REMARK  16 active torsions:
REMARK  status: ('A' for Active; 'I' for Inactive)
REMARK    1  A    between atoms: C_1  and  O_2
REMARK    2  A    between atoms: O_2  and  C_3
REMARK    3  A    between atoms: C_6  and  O_7
REMARK    4  A    between atoms: O_7  and  C_8
REMARK    5  A    between atoms: C_8  and  C_9
REMARK    6  A    between atoms: C_9  and  N_10
REMARK    7  A    between atoms: N_10  and  C_11
REMARK    8  A    between atoms: N_10  and  C_19
REMARK    9  A    between atoms: C_11  and  C_12
REMARK   10  A    between atoms: N_14  and  C_15
REMARK   11  A    between atoms: C_15  and  C_16
REMARK   12  A    between atoms: C_16  and  C_17
REMARK   13  A    between atoms: C_16  and  C_18
REMARK   14  A    between atoms: C_19  and  C_20
REMARK   15  A    between atoms: C_28  and  O_29
REMARK   16  A    between atoms: O_29  and  C_30
REMARK                            x       y       z     vdW  Elec       q    Type
REMARK                         _______ _______ _______ _____ _____    ______ ____
ROOT
ATOM      1  N   UNL     1       5.636   4.992  17.411  0.00  0.00    +0.000 NA
ENDROOT
BRANCH   1   2
ATOM      2  C   UNL     1       5.004   6.078  16.621  0.00  0.00    +0.000 C 
BRANCH   2   3
ATOM      3  C   UNL     1       4.342   7.146  17.504  0.00  0.00    +0.000 C 
BRANCH   3   4
ATOM      4  O   UNL     1       2.995   6.803  17.852  0.00  0.00    +0.000 OA
BRANCH   4   8
ATOM      5  C   UNL     1       0.823   9.948  19.582  0.00  0.00    +0.000 A 
ATOM      6  C   UNL     1       1.346  10.022  18.280  0.00  0.00    +0.000 A 
ATOM      7  C   UNL     1       2.060   8.955  17.725  0.00  0.00    +0.000 A 
ATOM      8  C   UNL     1       2.307   7.815  18.480  0.00  0.00    +0.000 A 
ATOM      9  C   UNL     1       1.856   7.779  19.802  0.00  0.00    +0.000 A 
ATOM     10  C   UNL     1       1.119   8.828  20.367  0.00  0.00    +0.000 A 
BRANCH   5  12
ATOM     11  C   UNL     1       0.782  12.123  20.514  0.00  0.00    +0.000 C 
ATOM     12  O   UNL     1       0.065  10.959  20.107  0.00  0.00    +0.000 OA
ENDBRANCH   5  12
BRANCH  10  13
ATOM     13  O   UNL     1       0.781   8.550  21.664  0.00  0.00    +0.000 OA
ATOM     14  C   UNL     1       1.449   9.211  22.721  0.00  0.00    +0.000 C 
ENDBRANCH  10  13
ENDBRANCH   4   8
ENDBRANCH   3   4
ENDBRANCH   2   3
ENDBRANCH   1   2
BRANCH   1  15
ATOM     15  C   UNL     1       4.748   3.821  17.640  0.00  0.00    +0.000 C 
BRANCH  15  16
ATOM     16  C   UNL     1       4.316   3.613  19.102  0.00  0.00    +0.000 C 
ATOM     17  O   UNL     1       4.814   2.762  19.836  0.00  0.00    +0.000 OA
ATOM     18  N   UNL     1       3.293   4.441  19.514  0.00  0.00    +0.000 N 
ATOM     19  H   UNL     1       2.965   5.176  18.899  0.00  0.00    +0.000 HD
BRANCH  18  20
ATOM     20  C   UNL     1       2.715   4.348  20.841  0.00  0.00    +0.000 C 
BRANCH  20  21
ATOM     21  C   UNL     1       1.342   3.660  20.848  0.00  0.00    +0.000 C 
ATOM     22  C   UNL     1       0.922   3.226  19.443  0.00  0.00    +0.000 C 
ATOM     23  C   UNL     1       1.375   2.448  21.781  0.00  0.00    +0.000 C 
ENDBRANCH  20  21
ENDBRANCH  18  20
ENDBRANCH  15  16
ENDBRANCH   1  15
BRANCH   1  24
ATOM     24  C   UNL     1       6.917   4.555  16.836  0.00  0.00    +0.000 C 
BRANCH  24  25
ATOM     25  C   UNL     1       6.947   4.532  15.316  0.00  0.00    +0.000 A 
ATOM     26  C   UNL     1       7.799   5.371  14.590  0.00  0.00    +0.000 A 
ATOM     27  C   UNL     1       7.831   5.307  13.191  0.00  0.00    +0.000 A 
ATOM     28  C   UNL     1       7.012   4.397  12.528  0.00  0.00    +0.000 A 
ATOM     29  F   UNL     1       7.052   4.327  11.191  0.00  0.00    +0.000 F 
ATOM     30  C   UNL     1       6.159   3.560  13.232  0.00  0.00    +0.000 A 
ATOM     31  C   UNL     1       6.121   3.627  14.624  0.00  0.00    +0.000 A 
ENDBRANCH  24  25
ENDBRANCH   1  24
TORSDOF 12
ENDMDL
MODEL 5
REMARK VINA RESULT:      -7.1      2.575      5.356
REMARK  Name = 
REMARK  16 active torsions:
REMARK  status: ('A' for Active; 'I' for Inactive)
REMARK    1  A    between atoms: C_1  and  O_2
REMARK    2  A    between atoms: O_2  and  C_3
REMARK    3  A    between atoms: C_6  and  O_7
REMARK    4  A    between atoms: O_7  and  C_8
REMARK    5  A    between atoms: C_8  and  C_9
REMARK    6  A    between atoms: C_9  and  N_10
REMARK    7  A    between atoms: N_10  and  C_11
REMARK    8  A    between atoms: N_10  and  C_19
REMARK    9  A    between atoms: C_11  and  C_12
REMARK   10  A    between atoms: N_14  and  C_15
REMARK   11  A    between atoms: C_15  and  C_16
REMARK   12  A    between atoms: C_16  and  C_17
REMARK   13  A    between atoms: C_16  and  C_18
REMARK   14  A    between atoms: C_19  and  C_20
REMARK   15  A    between atoms: C_28  and  O_29
REMARK   16  A    between atoms: O_29  and  C_30
REMARK                            x       y       z     vdW  Elec       q    Type
REMARK                         _______ _______ _______ _____ _____    ______ ____
ROOT
ATOM      1  N   UNL     1       6.066   5.800  16.672  0.00  0.00    +0.000 NA
ENDROOT
BRANCH   1   2
ATOM      2  C   UNL     1       5.547   6.944  17.462  0.00  0.00    +0.000 C 
BRANCH   2   3
ATOM      3  C   UNL     1       4.040   7.165  17.269  0.00  0.00    +0.000 C 
BRANCH   3   4
ATOM      4  O   UNL     1       3.297   6.910  18.467  0.00  0.00    +0.000 OA
BRANCH   4   8
ATOM      5  C   UNL     1       0.406   9.866  19.177  0.00  0.00    +0.000 A 
ATOM      6  C   UNL     1       1.047   9.723  17.934  0.00  0.00    +0.000 A 
ATOM      7  C   UNL     1       2.002   8.724  17.723  0.00  0.00    +0.000 A 
ATOM      8  C   UNL     1       2.370   7.881  18.765  0.00  0.00    +0.000 A 
ATOM      9  C   UNL     1       1.790   8.080  20.021  0.00  0.00    +0.000 A 
ATOM     10  C   UNL     1       0.815   9.060  20.245  0.00  0.00    +0.000 A 
BRANCH   5  12
ATOM     11  C   UNL     1      -1.352  11.128  18.218  0.00  0.00    +0.000 C 
ATOM     12  O   UNL     1      -0.578  10.797  19.371  0.00  0.00    +0.000 OA
ENDBRANCH   5  12
BRANCH  10  13
ATOM     13  O   UNL     1       0.393   9.047  21.547  0.00  0.00    +0.000 OA
ATOM     14  C   UNL     1       1.343   9.113  22.594  0.00  0.00    +0.000 C 
ENDBRANCH  10  13
ENDBRANCH   4   8
ENDBRANCH   3   4
ENDBRANCH   2   3
ENDBRANCH   1   2
BRANCH   1  15
ATOM     15  C   UNL     1       6.470   4.633  17.499  0.00  0.00    +0.000 C 
BRANCH  15  16
ATOM     16  C   UNL     1       5.633   4.422  18.773  0.00  0.00    +0.000 C 
ATOM     17  O   UNL     1       6.022   4.742  19.895  0.00  0.00    +0.000 OA
ATOM     18  N   UNL     1       4.418   3.806  18.557  0.00  0.00    +0.000 N 
ATOM     19  H   UNL     1       4.108   3.628  17.609  0.00  0.00    +0.000 HD
BRANCH  18  20
ATOM     20  C   UNL     1       3.520   3.472  19.646  0.00  0.00    +0.000 C 
BRANCH  20  21
ATOM     21  C   UNL     1       2.103   4.030  19.445  0.00  0.00    +0.000 C 
ATOM     22  C   UNL     1       1.389   3.344  18.279  0.00  0.00    +0.000 C 
ATOM     23  C   UNL     1       1.291   3.857  20.729  0.00  0.00    +0.000 C 
ENDBRANCH  20  21
ENDBRANCH  18  20
ENDBRANCH  15  16
ENDBRANCH   1  15
BRANCH   1  24
ATOM     24  C   UNL     1       5.131   5.378  15.618  0.00  0.00    +0.000 C 
BRANCH  24  25
ATOM     25  C   UNL     1       5.799   4.768  14.396  0.00  0.00    +0.000 A 
ATOM     26  C   UNL     1       5.157   3.794  13.623  0.00  0.00    +0.000 A 
ATOM     27  C   UNL     1       5.780   3.271  12.483  0.00  0.00    +0.000 A 
ATOM     28  C   UNL     1       7.043   3.733  12.121  0.00  0.00    +0.000 A 
ATOM     29  F   UNL     1       7.633   3.242  11.023  0.00  0.00    +0.000 F 
ATOM     30  C   UNL     1       7.695   4.695  12.877  0.00  0.00    +0.000 A 
ATOM     31  C   UNL     1       7.079   5.212  14.015  0.00  0.00    +0.000 A 
ENDBRANCH  24  25
ENDBRANCH   1  24
TORSDOF 12
ENDMDL
MODEL 6
REMARK VINA RESULT:      -7.1      2.319      4.138
REMARK  Name = 
REMARK  16 active torsions:
REMARK  status: ('A' for Active; 'I' for Inactive)
REMARK    1  A    between atoms: C_1  and  O_2
REMARK    2  A    between atoms: O_2  and  C_3
REMARK    3  A    between atoms: C_6  and  O_7
REMARK    4  A    between atoms: O_7  and  C_8
REMARK    5  A    between atoms: C_8  and  C_9
REMARK    6  A    between atoms: C_9  and  N_10
REMARK    7  A    between atoms: N_10  and  C_11
REMARK    8  A    between atoms: N_10  and  C_19
REMARK    9  A    between atoms: C_11  and  C_12
REMARK   10  A    between atoms: N_14  and  C_15
REMARK   11  A    between atoms: C_15  and  C_16
REMARK   12  A    between atoms: C_16  and  C_17
REMARK   13  A    between atoms: C_16  and  C_18
REMARK   14  A    between atoms: C_19  and  C_20
REMARK   15  A    between atoms: C_28  and  O_29
REMARK   16  A    between atoms: O_29  and  C_30
REMARK                            x       y       z     vdW  Elec       q    Type
REMARK                         _______ _______ _______ _____ _____    ______ ____
ROOT
ATOM      1  N   UNL     1       2.833   7.505  18.017  0.00  0.00    +0.000 NA
ENDROOT
BRANCH   1   2
ATOM      2  C   UNL     1       2.336   8.881  17.764  0.00  0.00    +0.000 C 
BRANCH   2   3
ATOM      3  C   UNL     1       1.215   9.293  18.728  0.00  0.00    +0.000 C 
BRANCH   3   4
ATOM      4  O   UNL     1       0.831  10.663  18.560  0.00  0.00    +0.000 OA
BRANCH   4   8
ATOM      5  C   UNL     1      -3.336  11.051  18.269  0.00  0.00    +0.000 A 
ATOM      6  C   UNL     1      -2.608  10.139  17.485  0.00  0.00    +0.000 A 
ATOM      7  C   UNL     1      -1.220  10.026  17.608  0.00  0.00    +0.000 A 
ATOM      8  C   UNL     1      -0.528  10.856  18.481  0.00  0.00    +0.000 A 
ATOM      9  C   UNL     1      -1.246  11.817  19.198  0.00  0.00    +0.000 A 
ATOM     10  C   UNL     1      -2.639  11.930  19.105  0.00  0.00    +0.000 A 
BRANCH   5  12
ATOM     11  C   UNL     1      -5.231  11.948  17.171  0.00  0.00    +0.000 C 
ATOM     12  O   UNL     1      -4.701  11.119  18.204  0.00  0.00    +0.000 OA
ENDBRANCH   5  12
BRANCH  10  13
ATOM     13  O   UNL     1      -3.107  12.931  19.913  0.00  0.00    +0.000 OA
ATOM     14  C   UNL     1      -3.637  12.618  21.186  0.00  0.00    +0.000 C 
ENDBRANCH  10  13
ENDBRANCH   4   8
ENDBRANCH   3   4
ENDBRANCH   2   3
ENDBRANCH   1   2
BRANCH   1  15
ATOM     15  C   UNL     1       4.302   7.355  17.839  0.00  0.00    +0.000 C 
BRANCH  15  16
ATOM     16  C   UNL     1       4.724   6.522  16.616  0.00  0.00    +0.000 C 
ATOM     17  O   UNL     1       4.903   7.008  15.500  0.00  0.00    +0.000 OA
ATOM     18  N   UNL     1       4.849   5.172  16.865  0.00  0.00    +0.000 N 
ATOM     19  H   UNL     1       4.764   4.827  17.814  0.00  0.00    +0.000 HD
BRANCH  18  20
ATOM     20  C   UNL     1       5.181   4.224  15.819  0.00  0.00    +0.000 C 
BRANCH  20  21
ATOM     21  C   UNL     1       6.695   4.047  15.631  0.00  0.00    +0.000 C 
ATOM     22  C   UNL     1       7.206   4.828  14.419  0.00  0.00    +0.000 C 
ATOM     23  C   UNL     1       7.431   4.500  16.893  0.00  0.00    +0.000 C 
ENDBRANCH  20  21
ENDBRANCH  18  20
ENDBRANCH  15  16
ENDBRANCH   1  15
BRANCH   1  24
ATOM     24  C   UNL     1       2.424   6.995  19.334  0.00  0.00    +0.000 C 
BRANCH  24  25
ATOM     25  C   UNL     1       2.199   5.492  19.381  0.00  0.00    +0.000 A 
ATOM     26  C   UNL     1       2.438   4.755  20.546  0.00  0.00    +0.000 A 
ATOM     27  C   UNL     1       2.191   3.376  20.573  0.00  0.00    +0.000 A 
ATOM     28  C   UNL     1       1.702   2.745  19.433  0.00  0.00    +0.000 A 
ATOM     29  F   UNL     1       1.453   1.429  19.463  0.00  0.00    +0.000 F 
ATOM     30  C   UNL     1       1.462   3.460  18.269  0.00  0.00    +0.000 A 
ATOM     31  C   UNL     1       1.712   4.831  18.238  0.00  0.00    +0.000 A 
ENDBRANCH  24  25
ENDBRANCH   1  24
TORSDOF 12
ENDMDL
MODEL 7
REMARK VINA RESULT:      -7.0      4.671      5.383
REMARK  Name = 
REMARK  16 active torsions:
REMARK  status: ('A' for Active; 'I' for Inactive)
REMARK    1  A    between atoms: C_1  and  O_2
REMARK    2  A    between atoms: O_2  and  C_3
REMARK    3  A    between atoms: C_6  and  O_7
REMARK    4  A    between atoms: O_7  and  C_8
REMARK    5  A    between atoms: C_8  and  C_9
REMARK    6  A    between atoms: C_9  and  N_10
REMARK    7  A    between atoms: N_10  and  C_11
REMARK    8  A    between atoms: N_10  and  C_19
REMARK    9  A    between atoms: C_11  and  C_12
REMARK   10  A    between atoms: N_14  and  C_15
REMARK   11  A    between atoms: C_15  and  C_16
REMARK   12  A    between atoms: C_16  and  C_17
REMARK   13  A    between atoms: C_16  and  C_18
REMARK   14  A    between atoms: C_19  and  C_20
REMARK   15  A    between atoms: C_28  and  O_29
REMARK   16  A    between atoms: O_29  and  C_30
REMARK                            x       y       z     vdW  Elec       q    Type
REMARK                         _______ _______ _______ _____ _____    ______ ____
ROOT
ATOM      1  N   UNL     1       6.581   6.173  17.028  0.00  0.00    +0.000 NA
ENDROOT
BRANCH   1   2
ATOM      2  C   UNL     1       7.782   7.045  17.053  0.00  0.00    +0.000 C 
BRANCH   2   3
ATOM      3  C   UNL     1       7.571   8.322  17.879  0.00  0.00    +0.000 C 
BRANCH   3   4
ATOM      4  O   UNL     1       8.681   8.600  18.741  0.00  0.00    +0.000 OA
BRANCH   4   8
ATOM      5  C   UNL     1       9.323  12.730  19.097  0.00  0.00    +0.000 A 
ATOM      6  C   UNL     1       9.060  12.114  17.862  0.00  0.00    +0.000 A 
ATOM      7  C   UNL     1       8.842  10.735  17.773  0.00  0.00    +0.000 A 
ATOM      8  C   UNL     1       8.933   9.941  18.911  0.00  0.00    +0.000 A 
ATOM      9  C   UNL     1       9.276  10.547  20.122  0.00  0.00    +0.000 A 
ATOM     10  C   UNL     1       9.474  11.929  20.234  0.00  0.00    +0.000 A 
BRANCH   5  12
ATOM     11  C   UNL     1       9.530  14.800  17.968  0.00  0.00    +0.000 C 
ATOM     12  O   UNL     1       9.468  14.087  19.202  0.00  0.00    +0.000 OA
ENDBRANCH   5  12
BRANCH  10  13
ATOM     13  O   UNL     1       9.785  12.279  21.521  0.00  0.00    +0.000 OA
ATOM     14  C   UNL     1       8.765  12.332  22.500  0.00  0.00    +0.000 C 
ENDBRANCH  10  13
ENDBRANCH   4   8
ENDBRANCH   3   4
ENDBRANCH   2   3
ENDBRANCH   1   2
BRANCH   1  15
ATOM     15  C   UNL     1       6.764   4.922  16.246  0.00  0.00    +0.000 C 
BRANCH  15  16
ATOM     16  C   UNL     1       6.211   4.969  14.810  0.00  0.00    +0.000 C 
ATOM     17  O   UNL     1       5.175   5.558  14.507  0.00  0.00    +0.000 OA
ATOM     18  N   UNL     1       6.958   4.262  13.892  0.00  0.00    +0.000 N 
ATOM     19  H   UNL     1       7.843   3.855  14.172  0.00  0.00    +0.000 HD
BRANCH  18  20
ATOM     20  C   UNL     1       6.560   4.144  12.503  0.00  0.00    +0.000 C 
BRANCH  20  21
ATOM     21  C   UNL     1       5.658   2.929  12.240  0.00  0.00    +0.000 C 
ATOM     22  C   UNL     1       4.360   3.333  11.538  0.00  0.00    +0.000 C 
ATOM     23  C   UNL     1       6.410   1.899  11.395  0.00  0.00    +0.000 C 
ENDBRANCH  20  21
ENDBRANCH  18  20
ENDBRANCH  15  16
ENDBRANCH   1  15
BRANCH   1  24
ATOM     24  C   UNL     1       6.084   5.864  18.377  0.00  0.00    +0.000 C 
BRANCH  24  25
ATOM     25  C   UNL     1       4.720   5.193  18.404  0.00  0.00    +0.000 A 
ATOM     26  C   UNL     1       4.548   3.912  18.940  0.00  0.00    +0.000 A 
ATOM     27  C   UNL     1       3.274   3.329  18.983  0.00  0.00    +0.000 A 
ATOM     28  C   UNL     1       2.180   4.037  18.493  0.00  0.00    +0.000 A 
ATOM     29  F   UNL     1       0.961   3.485  18.546  0.00  0.00    +0.000 F 
ATOM     30  C   UNL     1       2.334   5.306  17.955  0.00  0.00    +0.000 A 
ATOM     31  C   UNL     1       3.601   5.886  17.906  0.00  0.00    +0.000 A 
ENDBRANCH  24  25
ENDBRANCH   1  24
TORSDOF 12
ENDMDL
MODEL 8
REMARK VINA RESULT:      -6.9      2.053      3.787
REMARK  Name = 
REMARK  16 active torsions:
REMARK  status: ('A' for Active; 'I' for Inactive)
REMARK    1  A    between atoms: C_1  and  O_2
REMARK    2  A    between atoms: O_2  and  C_3
REMARK    3  A    between atoms: C_6  and  O_7
REMARK    4  A    between atoms: O_7  and  C_8
REMARK    5  A    between atoms: C_8  and  C_9
REMARK    6  A    between atoms: C_9  and  N_10
REMARK    7  A    between atoms: N_10  and  C_11
REMARK    8  A    between atoms: N_10  and  C_19
REMARK    9  A    between atoms: C_11  and  C_12
REMARK   10  A    between atoms: N_14  and  C_15
REMARK   11  A    between atoms: C_15  and  C_16
REMARK   12  A    between atoms: C_16  and  C_17
REMARK   13  A    between atoms: C_16  and  C_18
REMARK   14  A    between atoms: C_19  and  C_20
REMARK   15  A    between atoms: C_28  and  O_29
REMARK   16  A    between atoms: O_29  and  C_30
REMARK                            x       y       z     vdW  Elec       q    Type
REMARK                         _______ _______ _______ _____ _____    ______ ____
ROOT
ATOM      1  N   UNL     1       3.317   7.292  17.904  0.00  0.00    +0.000 NA
ENDROOT
BRANCH   1   2
ATOM      2  C   UNL     1       2.804   8.650  17.594  0.00  0.00    +0.000 C 
BRANCH   2   3
ATOM      3  C   UNL     1       1.394   8.894  18.150  0.00  0.00    +0.000 C 
BRANCH   3   4
ATOM      4  O   UNL     1       1.361   9.973  19.092  0.00  0.00    +0.000 OA
BRANCH   4   8
ATOM      5  C   UNL     1      -2.306  11.956  19.562  0.00  0.00    +0.000 A 
ATOM      6  C   UNL     1      -1.305  11.982  20.547  0.00  0.00    +0.000 A 
ATOM      7  C   UNL     1      -0.088  11.318  20.361  0.00  0.00    +0.000 A 
ATOM      8  C   UNL     1       0.130  10.575  19.208  0.00  0.00    +0.000 A 
ATOM      9  C   UNL     1      -0.900  10.484  18.268  0.00  0.00    +0.000 A 
ATOM     10  C   UNL     1      -2.116  11.161  18.426  0.00  0.00    +0.000 A 
BRANCH   5  12
ATOM     11  C   UNL     1      -3.999  12.716  21.030  0.00  0.00    +0.000 C 
ATOM     12  O   UNL     1      -3.470  12.660  19.706  0.00  0.00    +0.000 OA
ENDBRANCH   5  12
BRANCH  10  13
ATOM     13  O   UNL     1      -2.952  10.926  17.368  0.00  0.00    +0.000 OA
ATOM     14  C   UNL     1      -2.611   9.943  16.408  0.00  0.00    +0.000 C 
ENDBRANCH  10  13
ENDBRANCH   4   8
ENDBRANCH   3   4
ENDBRANCH   2   3
ENDBRANCH   1   2
BRANCH   1  15
ATOM     15  C   UNL     1       4.799   7.188  17.868  0.00  0.00    +0.000 C 
BRANCH  15  16
ATOM     16  C   UNL     1       5.379   6.672  16.539  0.00  0.00    +0.000 C 
ATOM     17  O   UNL     1       4.977   7.046  15.439  0.00  0.00    +0.000 OA
ATOM     18  N   UNL     1       6.368   5.721  16.684  0.00  0.00    +0.000 N 
ATOM     19  H   UNL     1       6.718   5.498  17.608  0.00  0.00    +0.000 HD
BRANCH  18  20
ATOM     20  C   UNL     1       6.990   5.078  15.542  0.00  0.00    +0.000 C 
BRANCH  20  21
ATOM     21  C   UNL     1       6.281   3.780  15.128  0.00  0.00    +0.000 C 
ATOM     22  C   UNL     1       5.106   3.460  16.054  0.00  0.00    +0.000 C 
ATOM     23  C   UNL     1       5.792   3.894  13.683  0.00  0.00    +0.000 C 
ENDBRANCH  20  21
ENDBRANCH  18  20
ENDBRANCH  15  16
ENDBRANCH   1  15
BRANCH   1  24
ATOM     24  C   UNL     1       2.799   6.777  19.180  0.00  0.00    +0.000 C 
BRANCH  24  25
ATOM     25  C   UNL     1       2.177   5.393  19.090  0.00  0.00    +0.000 A 
ATOM     26  C   UNL     1       1.606   4.776  20.209  0.00  0.00    +0.000 A 
ATOM     27  C   UNL     1       1.008   3.514  20.092  0.00  0.00    +0.000 A 
ATOM     28  C   UNL     1       0.983   2.880  18.853  0.00  0.00    +0.000 A 
ATOM     29  F   UNL     1       0.400   1.679  18.739  0.00  0.00    +0.000 F 
ATOM     30  C   UNL     1       1.547   3.476  17.735  0.00  0.00    +0.000 A 
ATOM     31  C   UNL     1       2.147   4.729  17.850  0.00  0.00    +0.000 A 
ENDBRANCH  24  25
ENDBRANCH   1  24
TORSDOF 12
ENDMDL
MODEL 9
REMARK VINA RESULT:      -6.9      4.333      6.842
REMARK  Name = 
REMARK  16 active torsions:
REMARK  status: ('A' for Active; 'I' for Inactive)
REMARK    1  A    between atoms: C_1  and  O_2
REMARK    2  A    between atoms: O_2  and  C_3
REMARK    3  A    between atoms: C_6  and  O_7
REMARK    4  A    between atoms: O_7  and  C_8
REMARK    5  A    between atoms: C_8  and  C_9
REMARK    6  A    between atoms: C_9  and  N_10
REMARK    7  A    between atoms: N_10  and  C_11
REMARK    8  A    between atoms: N_10  and  C_19
REMARK    9  A    between atoms: C_11  and  C_12
REMARK   10  A    between atoms: N_14  and  C_15
REMARK   11  A    between atoms: C_15  and  C_16
REMARK   12  A    between atoms: C_16  and  C_17
REMARK   13  A    between atoms: C_16  and  C_18
REMARK   14  A    between atoms: C_19  and  C_20
REMARK   15  A    between atoms: C_28  and  O_29
REMARK   16  A    between atoms: O_29  and  C_30
REMARK                            x       y       z     vdW  Elec       q    Type
REMARK                         _______ _______ _______ _____ _____    ______ ____
ROOT
ATOM      1  N   UNL     1       1.664   7.992  19.747  0.00  0.00    +0.000 NA
ENDROOT
BRANCH   1   2
ATOM      2  C   UNL     1       1.589   8.856  20.951  0.00  0.00    +0.000 C 
BRANCH   2   3
ATOM      3  C   UNL     1       0.179   8.913  21.555  0.00  0.00    +0.000 C 
BRANCH   3   4
ATOM      4  O   UNL     1       0.059   9.926  22.561  0.00  0.00    +0.000 OA
BRANCH   4   8
ATOM      5  C   UNL     1      -2.904  12.719  21.553  0.00  0.00    +0.000 A 
ATOM      6  C   UNL     1      -1.934  12.286  20.633  0.00  0.00    +0.000 A 
ATOM      7  C   UNL     1      -0.962  11.347  20.993  0.00  0.00    +0.000 A 
ATOM      8  C   UNL     1      -0.911  10.863  22.295  0.00  0.00    +0.000 A 
ATOM      9  C   UNL     1      -1.826  11.359  23.228  0.00  0.00    +0.000 A 
ATOM     10  C   UNL     1      -2.821  12.281  22.879  0.00  0.00    +0.000 A 
BRANCH   5  12
ATOM     11  C   UNL     1      -4.889  13.052  20.308  0.00  0.00    +0.000 C 
ATOM     12  O   UNL     1      -3.900  13.584  21.188  0.00  0.00    +0.000 OA
ENDBRANCH   5  12
BRANCH  10  13
ATOM     13  O   UNL     1      -3.598  12.599  23.960  0.00  0.00    +0.000 OA
ATOM     14  C   UNL     1      -3.407  13.834  24.623  0.00  0.00    +0.000 C 
ENDBRANCH  10  13
ENDBRANCH   4   8
ENDBRANCH   3   4
ENDBRANCH   2   3
ENDBRANCH   1   2
BRANCH   1  15
ATOM     15  C   UNL     1       1.964   8.733  18.493  0.00  0.00    +0.000 C 
BRANCH  15  16
ATOM     16  C   UNL     1       1.040   9.931  18.214  0.00  0.00    +0.000 C 
ATOM     17  O   UNL     1       1.358  11.095  18.448  0.00  0.00    +0.000 OA
ATOM     18  N   UNL     1      -0.197   9.587  17.710  0.00  0.00    +0.000 N 
ATOM     19  H   UNL     1      -0.388   8.623  17.464  0.00  0.00    +0.000 HD
BRANCH  18  20
ATOM     20  C   UNL     1      -1.221  10.578  17.441  0.00  0.00    +0.000 C 
BRANCH  20  21
ATOM     21  C   UNL     1      -2.490   9.974  16.821  0.00  0.00    +0.000 C 
ATOM     22  C   UNL     1      -3.693  10.112  17.755  0.00  0.00    +0.000 C 
ATOM     23  C   UNL     1      -2.786  10.654  15.483  0.00  0.00    +0.000 C 
ENDBRANCH  20  21
ENDBRANCH  18  20
ENDBRANCH  15  16
ENDBRANCH   1  15
BRANCH   1  24
ATOM     24  C   UNL     1       2.606   6.875  19.917  0.00  0.00    +0.000 C 
BRANCH  24  25
ATOM     25  C   UNL     1       2.027   5.510  19.584  0.00  0.00    +0.000 A 
ATOM     26  C   UNL     1       1.443   4.705  20.568  0.00  0.00    +0.000 A 
ATOM     27  C   UNL     1       0.886   3.465  20.228  0.00  0.00    +0.000 A 
ATOM     28  C   UNL     1       0.914   3.042  18.902  0.00  0.00    +0.000 A 
ATOM     29  F   UNL     1       0.369   1.862  18.576  0.00  0.00    +0.000 F 
ATOM     30  C   UNL     1       1.491   3.826  17.915  0.00  0.00    +0.000 A 
ATOM     31  C   UNL     1       2.051   5.058  18.251  0.00  0.00    +0.000 A 
ENDBRANCH  24  25
ENDBRANCH   1  24
TORSDOF 12
ENDMDL
