MODEL 1
REMARK VINA RESULT:      -6.7      0.000      0.000
REMARK  Name = 
REMARK  7 active torsions:
REMARK  status: ('A' for Active; 'I' for Inactive)
REMARK    1  A    between atoms: C_1  and  C_2
REMARK    2  A    between atoms: C_2  and  C_3
REMARK    3  A    between atoms: C_3  and  C_4
REMARK    4  A    between atoms: C_3  and  C_5
REMARK    5  A    between atoms: N_10  and  C_11
REMARK    6  A    between atoms: C_11  and  C_12
REMARK    7  A    between atoms: C_12  and  C_13
REMARK                            x       y       z     vdW  Elec       q    Type
REMARK                         _______ _______ _______ _____ _____    ______ ____
ROOT
ATOM      1  C   UNL     1       4.330   5.811  17.402  0.00  0.00    +0.000 C 
ATOM      2  C   UNL     1       5.044   6.642  16.284  0.00  0.00    +0.000 C 
ATOM      3  N   UNL     1       6.331   5.972  15.987  0.00  0.00    +0.000 NA
ATOM      4  C   UNL     1       6.500   5.200  17.018  0.00  0.00    +0.000 C 
ATOM      5  N   UNL     1       7.616   4.449  17.130  0.00  0.00    +0.000 N 
ATOM      6  N   UNL     1       5.508   5.125  17.957  0.00  0.00    +0.000 N 
ATOM      7  H   UNL     1       8.165   4.544  16.279  0.00  0.00    +0.000 HD
ATOM      8  H   UNL     1       7.443   3.472  17.314  0.00  0.00    +0.000 HD
ENDROOT
BRANCH   1   9
ATOM      9  C   UNL     1       3.470   6.779  18.263  0.00  0.00    +0.000 C 
ATOM     10  C   UNL     1       3.170   8.059  17.442  0.00  0.00    +0.000 C 
BRANCH   9  12
ATOM     11  C   UNL     1       1.984   6.273  20.320  0.00  0.00    +0.000 C 
ATOM     12  C   UNL     1       2.122   6.263  18.800  0.00  0.00    +0.000 C 
ENDBRANCH   9  12
ENDBRANCH   1   9
BRANCH   6  13
ATOM     13  C   UNL     1       5.552   4.257  19.124  0.00  0.00    +0.000 C 
BRANCH  13  14
ATOM     14  C   UNL     1       4.799   2.921  19.089  0.00  0.00    +0.000 C 
BRANCH  14  15
ATOM     15  C   UNL     1       3.312   2.791  19.289  0.00  0.00    +0.000 A 
ATOM     16  C   UNL     1       2.362   2.759  18.264  0.00  0.00    +0.000 A 
ATOM     17  C   UNL     1       0.993   2.714  18.558  0.00  0.00    +0.000 A 
ATOM     18  C   UNL     1       0.558   2.684  19.884  0.00  0.00    +0.000 A 
ATOM     19  C   UNL     1       1.495   2.679  20.902  0.00  0.00    +0.000 A 
ATOM     20  F   UNL     1       1.093   2.666  22.181  0.00  0.00    +0.000 F 
ATOM     21  C   UNL     1       2.853   2.717  20.618  0.00  0.00    +0.000 A 
ENDBRANCH  14  15
ENDBRANCH  13  14
ENDBRANCH   6  13
TORSDOF 5
ENDMDL
MODEL 2
REMARK VINA RESULT:      -6.5      3.039      5.370
REMARK  Name = 
REMARK  7 active torsions:
REMARK  status: ('A' for Active; 'I' for Inactive)
REMARK    1  A    between atoms: C_1  and  C_2
REMARK    2  A    between atoms: C_2  and  C_3
REMARK    3  A    between atoms: C_3  and  C_4
REMARK    4  A    between atoms: C_3  and  C_5
REMARK    5  A    between atoms: N_10  and  C_11
REMARK    6  A    between atoms: C_11  and  C_12
REMARK    7  A    between atoms: C_12  and  C_13
REMARK                            x       y       z     vdW  Elec       q    Type
REMARK                         _______ _______ _______ _____ _____    ______ ____
ROOT
ATOM      1  C   UNL     1       3.580   4.872  19.094  0.00  0.00    +0.000 C 
ATOM      2  C   UNL     1       3.007   4.014  20.272  0.00  0.00    +0.000 C 
ATOM      3  N   UNL     1       3.401   2.608  20.029  0.00  0.00    +0.000 NA
ATOM      4  C   UNL     1       3.732   2.613  18.773  0.00  0.00    +0.000 C 
ATOM      5  N   UNL     1       4.111   1.468  18.165  0.00  0.00    +0.000 N 
ATOM      6  N   UNL     1       3.740   3.801  18.097  0.00  0.00    +0.000 N 
ATOM      7  H   UNL     1       4.165   0.727  18.859  0.00  0.00    +0.000 HD
ATOM      8  H   UNL     1       4.987   1.532  17.667  0.00  0.00    +0.000 HD
ENDROOT
BRANCH   1   9
ATOM      9  C   UNL     1       2.626   6.076  18.852  0.00  0.00    +0.000 C 
ATOM     10  C   UNL     1       2.058   6.556  20.211  0.00  0.00    +0.000 C 
BRANCH   9  12
ATOM     11  C   UNL     1       2.156   8.323  17.659  0.00  0.00    +0.000 C 
ATOM     12  C   UNL     1       3.197   7.316  18.139  0.00  0.00    +0.000 C 
ENDBRANCH   9  12
ENDBRANCH   1   9
BRANCH   6  13
ATOM     13  C   UNL     1       4.146   3.948  16.707  0.00  0.00    +0.000 C 
BRANCH  13  14
ATOM     14  C   UNL     1       5.627   4.178  16.382  0.00  0.00    +0.000 C 
BRANCH  14  15
ATOM     15  C   UNL     1       6.537   5.062  17.195  0.00  0.00    +0.000 A 
ATOM     16  C   UNL     1       7.271   4.651  18.310  0.00  0.00    +0.000 A 
ATOM     17  C   UNL     1       8.029   5.571  19.047  0.00  0.00    +0.000 A 
ATOM     18  C   UNL     1       8.074   6.912  18.664  0.00  0.00    +0.000 A 
ATOM     19  C   UNL     1       7.378   7.318  17.539  0.00  0.00    +0.000 A 
ATOM     20  F   UNL     1       7.399   8.605  17.168  0.00  0.00    +0.000 F 
ATOM     21  C   UNL     1       6.630   6.411  16.802  0.00  0.00    +0.000 A 
ENDBRANCH  14  15
ENDBRANCH  13  14
ENDBRANCH   6  13
TORSDOF 5
ENDMDL
MODEL 3
REMARK VINA RESULT:      -6.4      2.802      5.153
REMARK  Name = 
REMARK  7 active torsions:
REMARK  status: ('A' for Active; 'I' for Inactive)
REMARK    1  A    between atoms: C_1  and  C_2
REMARK    2  A    between atoms: C_2  and  C_3
REMARK    3  A    between atoms: C_3  and  C_4
REMARK    4  A    between atoms: C_3  and  C_5
REMARK    5  A    between atoms: N_10  and  C_11
REMARK    6  A    between atoms: C_11  and  C_12
REMARK    7  A    between atoms: C_12  and  C_13
REMARK                            x       y       z     vdW  Elec       q    Type
REMARK                         _______ _______ _______ _____ _____    ______ ____
ROOT
ATOM      1  C   UNL     1       3.226   5.207  19.323  0.00  0.00    +0.000 C 
ATOM      2  C   UNL     1       2.613   4.536  20.598  0.00  0.00    +0.000 C 
ATOM      3  N   UNL     1       2.887   3.085  20.510  0.00  0.00    +0.000 NA
ATOM      4  C   UNL     1       3.189   2.922  19.258  0.00  0.00    +0.000 C 
ATOM      5  N   UNL     1       3.459   1.689  18.777  0.00  0.00    +0.000 N 
ATOM      6  N   UNL     1       3.276   4.023  18.451  0.00  0.00    +0.000 N 
ATOM      7  H   UNL     1       3.469   1.028  19.550  0.00  0.00    +0.000 HD
ATOM      8  H   UNL     1       4.326   1.624  18.263  0.00  0.00    +0.000 HD
ENDROOT
BRANCH   1   9
ATOM      9  C   UNL     1       2.367   6.451  18.960  0.00  0.00    +0.000 C 
ATOM     10  C   UNL     1       1.970   7.193  20.261  0.00  0.00    +0.000 C 
BRANCH   9  12
ATOM     11  C   UNL     1       2.119   8.736  17.770  0.00  0.00    +0.000 C 
ATOM     12  C   UNL     1       2.982   7.500  18.014  0.00  0.00    +0.000 C 
ENDBRANCH   9  12
ENDBRANCH   1   9
BRANCH   6  13
ATOM     13  C   UNL     1       3.661   3.980  17.048  0.00  0.00    +0.000 C 
BRANCH  13  14
ATOM     14  C   UNL     1       5.140   4.129  16.674  0.00  0.00    +0.000 C 
BRANCH  14  15
ATOM     15  C   UNL     1       6.041   5.202  17.227  0.00  0.00    +0.000 A 
ATOM     16  C   UNL     1       6.140   6.504  16.731  0.00  0.00    +0.000 A 
ATOM     17  C   UNL     1       7.069   7.407  17.267  0.00  0.00    +0.000 A 
ATOM     18  C   UNL     1       7.898   7.020  18.321  0.00  0.00    +0.000 A 
ATOM     19  C   UNL     1       7.780   5.742  18.840  0.00  0.00    +0.000 A 
ATOM     20  F   UNL     1       8.580   5.351  19.841  0.00  0.00    +0.000 F 
ATOM     21  C   UNL     1       6.858   4.846  18.317  0.00  0.00    +0.000 A 
ENDBRANCH  14  15
ENDBRANCH  13  14
ENDBRANCH   6  13
TORSDOF 5
ENDMDL
MODEL 4
REMARK VINA RESULT:      -6.4      0.990      1.462
REMARK  Name = 
REMARK  7 active torsions:
REMARK  status: ('A' for Active; 'I' for Inactive)
REMARK    1  A    between atoms: C_1  and  C_2
REMARK    2  A    between atoms: C_2  and  C_3
REMARK    3  A    between atoms: C_3  and  C_4
REMARK    4  A    between atoms: C_3  and  C_5
REMARK    5  A    between atoms: N_10  and  C_11
REMARK    6  A    between atoms: C_11  and  C_12
REMARK    7  A    between atoms: C_12  and  C_13
REMARK                            x       y       z     vdW  Elec       q    Type
REMARK                         _______ _______ _______ _____ _____    ______ ____
ROOT
ATOM      1  C   UNL     1       4.430   5.746  17.315  0.00  0.00    +0.000 C 
ATOM      2  C   UNL     1       5.099   6.558  16.156  0.00  0.00    +0.000 C 
ATOM      3  N   UNL     1       6.370   5.881  15.816  0.00  0.00    +0.000 NA
ATOM      4  C   UNL     1       6.580   5.123  16.850  0.00  0.00    +0.000 C 
ATOM      5  N   UNL     1       7.698   4.370  16.926  0.00  0.00    +0.000 N 
ATOM      6  N   UNL     1       5.628   5.065  17.830  0.00  0.00    +0.000 N 
ATOM      7  H   UNL     1       8.212   4.451  16.052  0.00  0.00    +0.000 HD
ATOM      8  H   UNL     1       7.530   3.396  17.132  0.00  0.00    +0.000 HD
ENDROOT
BRANCH   1   9
ATOM      9  C   UNL     1       3.609   6.730  18.196  0.00  0.00    +0.000 C 
ATOM     10  C   UNL     1       3.286   8.003  17.373  0.00  0.00    +0.000 C 
BRANCH   9  12
ATOM     11  C   UNL     1       1.978   6.712  20.205  0.00  0.00    +0.000 C 
ATOM     12  C   UNL     1       2.279   6.228  18.789  0.00  0.00    +0.000 C 
ENDBRANCH   9  12
ENDBRANCH   1   9
BRANCH   6  13
ATOM     13  C   UNL     1       5.717   4.213  19.007  0.00  0.00    +0.000 C 
BRANCH  13  14
ATOM     14  C   UNL     1       4.816   2.976  19.104  0.00  0.00    +0.000 C 
BRANCH  14  15
ATOM     15  C   UNL     1       3.430   2.993  19.692  0.00  0.00    +0.000 A 
ATOM     16  C   UNL     1       3.123   3.294  21.022  0.00  0.00    +0.000 A 
ATOM     17  C   UNL     1       1.806   3.205  21.492  0.00  0.00    +0.000 A 
ATOM     18  C   UNL     1       0.775   2.829  20.629  0.00  0.00    +0.000 A 
ATOM     19  C   UNL     1       1.067   2.565  19.302  0.00  0.00    +0.000 A 
ATOM     20  F   UNL     1       0.091   2.188  18.465  0.00  0.00    +0.000 F 
ATOM     21  C   UNL     1       2.369   2.657  18.830  0.00  0.00    +0.000 A 
ENDBRANCH  14  15
ENDBRANCH  13  14
ENDBRANCH   6  13
TORSDOF 5
ENDMDL
MODEL 5
REMARK VINA RESULT:      -6.3      1.561      2.265
REMARK  Name = 
REMARK  7 active torsions:
REMARK  status: ('A' for Active; 'I' for Inactive)
REMARK    1  A    between atoms: C_1  and  C_2
REMARK    2  A    between atoms: C_2  and  C_3
REMARK    3  A    between atoms: C_3  and  C_4
REMARK    4  A    between atoms: C_3  and  C_5
REMARK    5  A    between atoms: N_10  and  C_11
REMARK    6  A    between atoms: C_11  and  C_12
REMARK    7  A    between atoms: C_12  and  C_13
REMARK                            x       y       z     vdW  Elec       q    Type
REMARK                         _______ _______ _______ _____ _____    ______ ____
ROOT
ATOM      1  C   UNL     1       5.781   5.334  17.181  0.00  0.00    +0.000 C 
ATOM      2  C   UNL     1       7.236   5.670  16.711  0.00  0.00    +0.000 C 
ATOM      3  N   UNL     1       7.385   5.159  15.330  0.00  0.00    +0.000 NA
ATOM      4  C   UNL     1       6.389   4.333  15.218  0.00  0.00    +0.000 C 
ATOM      5  N   UNL     1       6.220   3.621  14.083  0.00  0.00    +0.000 N 
ATOM      6  N   UNL     1       5.493   4.235  16.246  0.00  0.00    +0.000 N 
ATOM      7  H   UNL     1       6.906   3.925  13.396  0.00  0.00    +0.000 HD
ATOM      8  H   UNL     1       5.293   3.683  13.688  0.00  0.00    +0.000 HD
ENDROOT
BRANCH   1   9
ATOM      9  C   UNL     1       5.799   5.112  18.720  0.00  0.00    +0.000 C 
ATOM     10  C   UNL     1       7.111   5.696  19.303  0.00  0.00    +0.000 C 
BRANCH   9  12
ATOM     11  C   UNL     1       3.460   6.221  18.728  0.00  0.00    +0.000 C 
ATOM     12  C   UNL     1       4.639   5.699  19.546  0.00  0.00    +0.000 C 
ENDBRANCH   9  12
ENDBRANCH   1   9
BRANCH   6  13
ATOM     13  C   UNL     1       4.307   3.391  16.219  0.00  0.00    +0.000 C 
BRANCH  13  14
ATOM     14  C   UNL     1       4.054   2.422  17.380  0.00  0.00    +0.000 C 
BRANCH  14  15
ATOM     15  C   UNL     1       2.970   2.610  18.409  0.00  0.00    +0.000 A 
ATOM     16  C   UNL     1       1.654   2.989  18.131  0.00  0.00    +0.000 A 
ATOM     17  C   UNL     1       0.739   3.214  19.169  0.00  0.00    +0.000 A 
ATOM     18  C   UNL     1       1.128   3.044  20.499  0.00  0.00    +0.000 A 
ATOM     19  C   UNL     1       2.420   2.634  20.778  0.00  0.00    +0.000 A 
ATOM     20  F   UNL     1       2.812   2.481  22.050  0.00  0.00    +0.000 F 
ATOM     21  C   UNL     1       3.328   2.403  19.755  0.00  0.00    +0.000 A 
ENDBRANCH  14  15
ENDBRANCH  13  14
ENDBRANCH   6  13
TORSDOF 5
ENDMDL
MODEL 6
REMARK VINA RESULT:      -6.3      2.125      3.517
REMARK  Name = 
REMARK  7 active torsions:
REMARK  status: ('A' for Active; 'I' for Inactive)
REMARK    1  A    between atoms: C_1  and  C_2
REMARK    2  A    between atoms: C_2  and  C_3
REMARK    3  A    between atoms: C_3  and  C_4
REMARK    4  A    between atoms: C_3  and  C_5
REMARK    5  A    between atoms: N_10  and  C_11
REMARK    6  A    between atoms: C_11  and  C_12
REMARK    7  A    between atoms: C_12  and  C_13
REMARK                            x       y       z     vdW  Elec       q    Type
REMARK                         _______ _______ _______ _____ _____    ______ ____
ROOT
ATOM      1  C   UNL     1       6.172   6.234  16.831  0.00  0.00    +0.000 C 
ATOM      2  C   UNL     1       7.034   5.021  16.344  0.00  0.00    +0.000 C 
ATOM      3  N   UNL     1       6.100   3.928  15.991  0.00  0.00    +0.000 NA
ATOM      4  C   UNL     1       4.997   4.290  16.571  0.00  0.00    +0.000 C 
ATOM      5  N   UNL     1       3.904   3.498  16.511  0.00  0.00    +0.000 N 
ATOM      6  N   UNL     1       4.948   5.505  17.198  0.00  0.00    +0.000 N 
ATOM      7  H   UNL     1       4.100   2.711  15.898  0.00  0.00    +0.000 HD
ATOM      8  H   UNL     1       3.067   3.969  16.201  0.00  0.00    +0.000 HD
ENDROOT
BRANCH   1   9
ATOM      9  C   UNL     1       6.993   7.032  17.884  0.00  0.00    +0.000 C 
ATOM     10  C   UNL     1       7.671   6.037  18.859  0.00  0.00    +0.000 C 
BRANCH   9  12
ATOM     11  C   UNL     1       8.298   9.243  18.206  0.00  0.00    +0.000 C 
ATOM     12  C   UNL     1       8.092   7.981  17.372  0.00  0.00    +0.000 C 
ENDBRANCH   9  12
ENDBRANCH   1   9
BRANCH   6  13
ATOM     13  C   UNL     1       3.757   6.049  17.834  0.00  0.00    +0.000 C 
BRANCH  13  14
ATOM     14  C   UNL     1       3.547   5.831  19.337  0.00  0.00    +0.000 C 
BRANCH  14  15
ATOM     15  C   UNL     1       2.670   4.751  19.914  0.00  0.00    +0.000 A 
ATOM     16  C   UNL     1       2.670   4.342  21.250  0.00  0.00    +0.000 A 
ATOM     17  C   UNL     1       1.870   3.272  21.673  0.00  0.00    +0.000 A 
ATOM     18  C   UNL     1       1.045   2.608  20.762  0.00  0.00    +0.000 A 
ATOM     19  C   UNL     1       1.014   3.032  19.445  0.00  0.00    +0.000 A 
ATOM     20  F   UNL     1       0.239   2.395  18.556  0.00  0.00    +0.000 F 
ATOM     21  C   UNL     1       1.799   4.095  19.022  0.00  0.00    +0.000 A 
ENDBRANCH  14  15
ENDBRANCH  13  14
ENDBRANCH   6  13
TORSDOF 5
ENDMDL
MODEL 7
REMARK VINA RESULT:      -6.3      1.187      1.493
REMARK  Name = 
REMARK  7 active torsions:
REMARK  status: ('A' for Active; 'I' for Inactive)
REMARK    1  A    between atoms: C_1  and  C_2
REMARK    2  A    between atoms: C_2  and  C_3
REMARK    3  A    between atoms: C_3  and  C_4
REMARK    4  A    between atoms: C_3  and  C_5
REMARK    5  A    between atoms: N_10  and  C_11
REMARK    6  A    between atoms: C_11  and  C_12
REMARK    7  A    between atoms: C_12  and  C_13
REMARK                            x       y       z     vdW  Elec       q    Type
REMARK                         _______ _______ _______ _____ _____    ______ ____
ROOT
ATOM      1  C   UNL     1       4.764   6.352  16.890  0.00  0.00    +0.000 C 
ATOM      2  C   UNL     1       5.932   7.190  17.511  0.00  0.00    +0.000 C 
ATOM      3  N   UNL     1       7.191   6.456  17.253  0.00  0.00    +0.000 NA
ATOM      4  C   UNL     1       6.775   5.264  16.953  0.00  0.00    +0.000 C 
ATOM      5  N   UNL     1       7.661   4.278  16.695  0.00  0.00    +0.000 N 
ATOM      6  N   UNL     1       5.429   5.039  16.853  0.00  0.00    +0.000 N 
ATOM      7  H   UNL     1       8.600   4.670  16.693  0.00  0.00    +0.000 HD
ATOM      8  H   UNL     1       7.496   3.786  15.829  0.00  0.00    +0.000 HD
ENDROOT
BRANCH   1   9
ATOM      9  C   UNL     1       3.481   6.592  17.735  0.00  0.00    +0.000 C 
ATOM     10  C   UNL     1       3.774   6.241  19.216  0.00  0.00    +0.000 C 
BRANCH   9  12
ATOM     11  C   UNL     1       1.947   8.320  18.901  0.00  0.00    +0.000 C 
ATOM     12  C   UNL     1       2.862   8.002  17.720  0.00  0.00    +0.000 C 
ENDBRANCH   9  12
ENDBRANCH   1   9
BRANCH   6  13
ATOM     13  C   UNL     1       4.839   3.766  16.467  0.00  0.00    +0.000 C 
BRANCH  13  14
ATOM     14  C   UNL     1       4.463   2.756  17.559  0.00  0.00    +0.000 C 
BRANCH  14  15
ATOM     15  C   UNL     1       3.240   2.879  18.430  0.00  0.00    +0.000 A 
ATOM     16  C   UNL     1       1.952   3.166  17.972  0.00  0.00    +0.000 A 
ATOM     17  C   UNL     1       0.892   3.338  18.873  0.00  0.00    +0.000 A 
ATOM     18  C   UNL     1       1.109   3.206  20.246  0.00  0.00    +0.000 A 
ATOM     19  C   UNL     1       2.376   2.886  20.703  0.00  0.00    +0.000 A 
ATOM     20  F   UNL     1       2.602   2.772  22.019  0.00  0.00    +0.000 F 
ATOM     21  C   UNL     1       3.427   2.709  19.815  0.00  0.00    +0.000 A 
ENDBRANCH  14  15
ENDBRANCH  13  14
ENDBRANCH   6  13
TORSDOF 5
ENDMDL
MODEL 8
REMARK VINA RESULT:      -6.3      1.436      2.219
REMARK  Name = 
REMARK  7 active torsions:
REMARK  status: ('A' for Active; 'I' for Inactive)
REMARK    1  A    between atoms: C_1  and  C_2
REMARK    2  A    between atoms: C_2  and  C_3
REMARK    3  A    between atoms: C_3  and  C_4
REMARK    4  A    between atoms: C_3  and  C_5
REMARK    5  A    between atoms: N_10  and  C_11
REMARK    6  A    between atoms: C_11  and  C_12
REMARK    7  A    between atoms: C_12  and  C_13
REMARK                            x       y       z     vdW  Elec       q    Type
REMARK                         _______ _______ _______ _____ _____    ______ ____
ROOT
ATOM      1  C   UNL     1       4.550   5.812  16.753  0.00  0.00    +0.000 C 
ATOM      2  C   UNL     1       5.656   6.612  15.986  0.00  0.00    +0.000 C 
ATOM      3  N   UNL     1       6.181   5.731  14.919  0.00  0.00    +0.000 NA
ATOM      4  C   UNL     1       5.777   4.554  15.290  0.00  0.00    +0.000 C 
ATOM      5  N   UNL     1       6.113   3.461  14.571  0.00  0.00    +0.000 N 
ATOM      6  N   UNL     1       4.968   4.450  16.387  0.00  0.00    +0.000 N 
ATOM      7  H   UNL     1       6.602   3.757  13.730  0.00  0.00    +0.000 HD
ATOM      8  H   UNL     1       5.332   2.873  14.320  0.00  0.00    +0.000 HD
ENDROOT
BRANCH   1   9
ATOM      9  C   UNL     1       4.533   6.290  18.233  0.00  0.00    +0.000 C 
ATOM     10  C   UNL     1       3.065   6.504  18.682  0.00  0.00    +0.000 C 
BRANCH   9  12
ATOM     11  C   UNL     1       6.723   5.487  19.354  0.00  0.00    +0.000 C 
ATOM     12  C   UNL     1       5.200   5.390  19.289  0.00  0.00    +0.000 C 
ENDBRANCH   9  12
ENDBRANCH   1   9
BRANCH   6  13
ATOM     13  C   UNL     1       4.403   3.198  16.870  0.00  0.00    +0.000 C 
BRANCH  13  14
ATOM     14  C   UNL     1       2.899   3.118  17.158  0.00  0.00    +0.000 C 
BRANCH  14  15
ATOM     15  C   UNL     1       2.313   3.066  18.545  0.00  0.00    +0.000 A 
ATOM     16  C   UNL     1       1.036   3.514  18.896  0.00  0.00    +0.000 A 
ATOM     17  C   UNL     1       0.612   3.494  20.231  0.00  0.00    +0.000 A 
ATOM     18  C   UNL     1       1.457   3.009  21.231  0.00  0.00    +0.000 A 
ATOM     19  C   UNL     1       2.709   2.532  20.884  0.00  0.00    +0.000 A 
ATOM     20  F   UNL     1       3.538   2.078  21.835  0.00  0.00    +0.000 F 
ATOM     21  C   UNL     1       3.133   2.543  19.563  0.00  0.00    +0.000 A 
ENDBRANCH  14  15
ENDBRANCH  13  14
ENDBRANCH   6  13
TORSDOF 5
ENDMDL
MODEL 9
REMARK VINA RESULT:      -6.2      2.818      5.562
REMARK  Name = 
REMARK  7 active torsions:
REMARK  status: ('A' for Active; 'I' for Inactive)
REMARK    1  A    between atoms: C_1  and  C_2
REMARK    2  A    between atoms: C_2  and  C_3
REMARK    3  A    between atoms: C_3  and  C_4
REMARK    4  A    between atoms: C_3  and  C_5
REMARK    5  A    between atoms: N_10  and  C_11
REMARK    6  A    between atoms: C_11  and  C_12
REMARK    7  A    between atoms: C_12  and  C_13
REMARK                            x       y       z     vdW  Elec       q    Type
REMARK                         _______ _______ _______ _____ _____    ______ ____
ROOT
ATOM      1  C   UNL     1       1.870   4.762  19.628  0.00  0.00    +0.000 C 
ATOM      2  C   UNL     1       1.781   5.838  20.762  0.00  0.00    +0.000 C 
ATOM      3  N   UNL     1       2.001   7.161  20.136  0.00  0.00    +0.000 NA
ATOM      4  C   UNL     1       2.534   6.855  18.993  0.00  0.00    +0.000 C 
ATOM      5  N   UNL     1       2.926   7.829  18.142  0.00  0.00    +0.000 N 
ATOM      6  N   UNL     1       2.645   5.537  18.647  0.00  0.00    +0.000 N 
ATOM      7  H   UNL     1       2.644   8.730  18.520  0.00  0.00    +0.000 HD
ATOM      8  H   UNL     1       2.570   7.728  17.203  0.00  0.00    +0.000 HD
ENDROOT
BRANCH   1   9
ATOM      9  C   UNL     1       2.418   3.443  20.242  0.00  0.00    +0.000 C 
ATOM     10  C   UNL     1       2.077   3.405  21.754  0.00  0.00    +0.000 C 
BRANCH   9  12
ATOM     11  C   UNL     1       0.730   2.223  18.706  0.00  0.00    +0.000 C 
ATOM     12  C   UNL     1       1.934   2.111  19.638  0.00  0.00    +0.000 C 
ENDBRANCH   9  12
ENDBRANCH   1   9
BRANCH   6  13
ATOM     13  C   UNL     1       3.171   5.067  17.373  0.00  0.00    +0.000 C 
BRANCH  13  14
ATOM     14  C   UNL     1       4.644   4.654  17.280  0.00  0.00    +0.000 C 
BRANCH  14  15
ATOM     15  C   UNL     1       5.793   5.548  17.668  0.00  0.00    +0.000 A 
ATOM     16  C   UNL     1       6.143   6.736  17.021  0.00  0.00    +0.000 A 
ATOM     17  C   UNL     1       7.279   7.457  17.411  0.00  0.00    +0.000 A 
ATOM     18  C   UNL     1       8.071   7.004  18.468  0.00  0.00    +0.000 A 
ATOM     19  C   UNL     1       7.709   5.847  19.136  0.00  0.00    +0.000 A 
ATOM     20  F   UNL     1       8.468   5.392  20.143  0.00  0.00    +0.000 F 
ATOM     21  C   UNL     1       6.581   5.132  18.758  0.00  0.00    +0.000 A 
ENDBRANCH  14  15
ENDBRANCH  13  14
ENDBRANCH   6  13
TORSDOF 5
ENDMDL
