MODEL 1
REMARK VINA RESULT:      -7.2      0.000      0.000
REMARK  Name = 
REMARK  9 active torsions:
REMARK  status: ('A' for Active; 'I' for Inactive)
REMARK    1  A    between atoms: C_2  and  O_3
REMARK    2  A    between atoms: C_2  and  C_4
REMARK    3  A    between atoms: C_4  and  C_5
REMARK    4  A    between atoms: C_5  and  N_6
REMARK    5  A    between atoms: C_7  and  C_9
REMARK    6  A    between atoms: C_15  and  C_16
REMARK    7  A    between atoms: N_24  and  C_25
REMARK    8  A    between atoms: C_25  and  C_26
REMARK    9  A    between atoms: C_32  and  O_33
REMARK                            x       y       z     vdW  Elec       q    Type
REMARK                         _______ _______ _______ _____ _____    ______ ____
ROOT
ATOM      1  C   UNL     1       6.377  12.736  24.916  0.00  0.00    +0.000 A 
ATOM      2  N   UNL     1       5.372  13.555  24.494  0.00  0.00    +0.000 NA
ATOM      3  C   UNL     1       5.511  14.106  23.261  0.00  0.00    +0.000 A 
ATOM      4  C   UNL     1       6.593  13.905  22.404  0.00  0.00    +0.000 A 
ATOM      5  C   UNL     1       7.564  12.978  22.826  0.00  0.00    +0.000 A 
ATOM      6  C   UNL     1       8.636  12.630  21.889  0.00  0.00    +0.000 A 
ATOM      7  C   UNL     1       8.757  13.239  20.699  0.00  0.00    +0.000 A 
ATOM      8  C   UNL     1       7.841  14.351  20.314  0.00  0.00    +0.000 A 
ATOM      9  O   UNL     1       8.067  14.989  19.286  0.00  0.00    +0.000 OA
ATOM     10  N   UNL     1       6.767  14.617  21.166  0.00  0.00    +0.000 N 
ATOM     11  C   UNL     1       7.466  12.395  24.109  0.00  0.00    +0.000 A 
ENDROOT
BRANCH   7  12
ATOM     12  C   UNL     1       9.817  12.776  19.790  0.00  0.00    +0.000 A 
ATOM     13  C   UNL     1      11.139  13.203  19.986  0.00  0.00    +0.000 A 
ATOM     14  C   UNL     1      12.142  12.809  19.101  0.00  0.00    +0.000 A 
ATOM     15  C   UNL     1      11.834  11.990  18.014  0.00  0.00    +0.000 A 
ATOM     16  C   UNL     1      10.523  11.561  17.815  0.00  0.00    +0.000 A 
ATOM     17  C   UNL     1       9.516  11.952  18.701  0.00  0.00    +0.000 A 
ENDBRANCH   7  12
BRANCH   1  19
ATOM     18  N   UNL     1       6.333  10.886  26.510  0.00  0.00    +0.000 N 
ATOM     19  C   UNL     1       6.245  12.261  26.349  0.00  0.00    +0.000 C 
ATOM     20  O   UNL     1       6.037  13.001  27.304  0.00  0.00    +0.000 OA
ATOM     21  H   UNL     1       6.427  10.331  25.663  0.00  0.00    +0.000 HD
BRANCH  18  22
ATOM     22  C   UNL     1       6.207  10.251  27.807  0.00  0.00    +0.000 C 
BRANCH  22  23
ATOM     23  C   UNL     1       4.921   9.454  27.931  0.00  0.00    +0.000 C 
BRANCH  23  25
ATOM     24  O   UNL     1       3.324   9.773  26.158  0.00  0.00    +0.000 OA
ATOM     25  C   UNL     1       3.815  10.173  27.212  0.00  0.00    +0.000 C 
BRANCH  25  26
ATOM     26  O   UNL     1       3.373  11.278  27.842  0.00  0.00    +0.000 OA
ATOM     27  H   UNL     1       3.908  11.530  28.625  0.00  0.00    +0.000 HD
ENDBRANCH  25  26
ENDBRANCH  23  25
ENDBRANCH  22  23
ENDBRANCH  18  22
ENDBRANCH   1  19
BRANCH  11  28
ATOM     28  O   UNL     1       8.394  11.510  24.584  0.00  0.00    +0.000 OA
ATOM     29  H   UNL     1       8.913  11.866  25.318  0.00  0.00    +0.000 HD
ENDBRANCH  11  28
BRANCH  10  30
ATOM     30  C   UNL     1       5.905  15.753  20.803  0.00  0.00    +0.000 C 
BRANCH  30  31
ATOM     31  C   UNL     1       4.798  15.380  19.841  0.00  0.00    +0.000 A 
ATOM     32  C   UNL     1       3.782  14.490  20.215  0.00  0.00    +0.000 A 
ATOM     33  C   UNL     1       2.840  14.055  19.281  0.00  0.00    +0.000 A 
ATOM     34  C   UNL     1       2.879  14.529  17.974  0.00  0.00    +0.000 A 
ATOM     35  C   UNL     1       3.835  15.472  17.608  0.00  0.00    +0.000 A 
ATOM     36  C   UNL     1       4.787  15.896  18.536  0.00  0.00    +0.000 A 
ENDBRANCH  30  31
ENDBRANCH  10  30
TORSDOF 9
ENDMDL
MODEL 2
REMARK VINA RESULT:      -7.0      8.256     10.381
REMARK  Name = 
REMARK  9 active torsions:
REMARK  status: ('A' for Active; 'I' for Inactive)
REMARK    1  A    between atoms: C_2  and  O_3
REMARK    2  A    between atoms: C_2  and  C_4
REMARK    3  A    between atoms: C_4  and  C_5
REMARK    4  A    between atoms: C_5  and  N_6
REMARK    5  A    between atoms: C_7  and  C_9
REMARK    6  A    between atoms: C_15  and  C_16
REMARK    7  A    between atoms: N_24  and  C_25
REMARK    8  A    between atoms: C_25  and  C_26
REMARK    9  A    between atoms: C_32  and  O_33
REMARK                            x       y       z     vdW  Elec       q    Type
REMARK                         _______ _______ _______ _____ _____    ______ ____
ROOT
ATOM      1  C   UNL     1       0.749  10.023  19.330  0.00  0.00    +0.000 A 
ATOM      2  N   UNL     1       0.516   9.390  20.515  0.00  0.00    +0.000 NA
ATOM      3  C   UNL     1       1.179   8.224  20.724  0.00  0.00    +0.000 A 
ATOM      4  C   UNL     1       2.066   7.627  19.828  0.00  0.00    +0.000 A 
ATOM      5  C   UNL     1       2.361   8.354  18.660  0.00  0.00    +0.000 A 
ATOM      6  C   UNL     1       3.400   7.829  17.768  0.00  0.00    +0.000 A 
ATOM      7  C   UNL     1       3.992   6.647  17.995  0.00  0.00    +0.000 A 
ATOM      8  C   UNL     1       3.561   5.782  19.131  0.00  0.00    +0.000 A 
ATOM      9  O   UNL     1       4.015   4.643  19.227  0.00  0.00    +0.000 OA
ATOM     10  N   UNL     1       2.639   6.323  20.030  0.00  0.00    +0.000 N 
ATOM     11  C   UNL     1       1.681   9.563  18.395  0.00  0.00    +0.000 A 
ENDROOT
BRANCH   7  12
ATOM     12  C   UNL     1       5.076   6.232  17.090  0.00  0.00    +0.000 A 
ATOM     13  C   UNL     1       4.778   5.488  15.939  0.00  0.00    +0.000 A 
ATOM     14  C   UNL     1       5.803   5.049  15.102  0.00  0.00    +0.000 A 
ATOM     15  C   UNL     1       7.131   5.345  15.409  0.00  0.00    +0.000 A 
ATOM     16  C   UNL     1       7.434   6.085  16.551  0.00  0.00    +0.000 A 
ATOM     17  C   UNL     1       6.410   6.529  17.390  0.00  0.00    +0.000 A 
ENDBRANCH   7  12
BRANCH   1  19
ATOM     18  N   UNL     1      -1.426  11.115  19.524  0.00  0.00    +0.000 N 
ATOM     19  C   UNL     1      -0.118  11.242  19.084  0.00  0.00    +0.000 C 
ATOM     20  O   UNL     1       0.265  12.255  18.509  0.00  0.00    +0.000 OA
ATOM     21  H   UNL     1      -1.692  10.216  19.920  0.00  0.00    +0.000 HD
BRANCH  18  22
ATOM     22  C   UNL     1      -2.405  12.170  19.352  0.00  0.00    +0.000 C 
BRANCH  22  23
ATOM     23  C   UNL     1      -3.704  11.656  18.759  0.00  0.00    +0.000 C 
BRANCH  23  25
ATOM     24  O   UNL     1      -2.656  10.878  16.736  0.00  0.00    +0.000 OA
ATOM     25  C   UNL     1      -3.557  11.522  17.270  0.00  0.00    +0.000 C 
BRANCH  25  26
ATOM     26  O   UNL     1      -4.524  12.137  16.562  0.00  0.00    +0.000 OA
ATOM     27  H   UNL     1      -4.332  13.078  16.361  0.00  0.00    +0.000 HD
ENDBRANCH  25  26
ENDBRANCH  23  25
ENDBRANCH  22  23
ENDBRANCH  18  22
ENDBRANCH   1  19
BRANCH  11  28
ATOM     28  O   UNL     1       1.905  10.297  17.264  0.00  0.00    +0.000 OA
ATOM     29  H   UNL     1       2.836  10.524  17.140  0.00  0.00    +0.000 HD
ENDBRANCH  11  28
BRANCH  10  30
ATOM     30  C   UNL     1       2.180   5.439  21.113  0.00  0.00    +0.000 C 
BRANCH  30  31
ATOM     31  C   UNL     1       1.762   4.068  20.629  0.00  0.00    +0.000 A 
ATOM     32  C   UNL     1       2.299   2.904  21.197  0.00  0.00    +0.000 A 
ATOM     33  C   UNL     1       2.004   1.650  20.659  0.00  0.00    +0.000 A 
ATOM     34  C   UNL     1       1.143   1.539  19.571  0.00  0.00    +0.000 A 
ATOM     35  C   UNL     1       0.543   2.679  19.045  0.00  0.00    +0.000 A 
ATOM     36  C   UNL     1       0.848   3.935  19.572  0.00  0.00    +0.000 A 
ENDBRANCH  30  31
ENDBRANCH  10  30
TORSDOF 9
ENDMDL
MODEL 3
REMARK VINA RESULT:      -7.0      7.439      9.284
REMARK  Name = 
REMARK  9 active torsions:
REMARK  status: ('A' for Active; 'I' for Inactive)
REMARK    1  A    between atoms: C_2  and  O_3
REMARK    2  A    between atoms: C_2  and  C_4
REMARK    3  A    between atoms: C_4  and  C_5
REMARK    4  A    between atoms: C_5  and  N_6
REMARK    5  A    between atoms: C_7  and  C_9
REMARK    6  A    between atoms: C_15  and  C_16
REMARK    7  A    between atoms: N_24  and  C_25
REMARK    8  A    between atoms: C_25  and  C_26
REMARK    9  A    between atoms: C_32  and  O_33
REMARK                            x       y       z     vdW  Elec       q    Type
REMARK                         _______ _______ _______ _____ _____    ______ ____
ROOT
ATOM      1  C   UNL     1       1.278   9.496  19.291  0.00  0.00    +0.000 A 
ATOM      2  N   UNL     1       0.469   9.294  20.370  0.00  0.00    +0.000 NA
ATOM      3  C   UNL     1      -0.065  10.399  20.949  0.00  0.00    +0.000 A 
ATOM      4  C   UNL     1       0.152  11.713  20.534  0.00  0.00    +0.000 A 
ATOM      5  C   UNL     1       0.910  11.882  19.360  0.00  0.00    +0.000 A 
ATOM      6  C   UNL     1       1.034  13.237  18.811  0.00  0.00    +0.000 A 
ATOM      7  C   UNL     1       0.528  14.304  19.448  0.00  0.00    +0.000 A 
ATOM      8  C   UNL     1      -0.121  14.160  20.783  0.00  0.00    +0.000 A 
ATOM      9  O   UNL     1      -0.441  15.169  21.410  0.00  0.00    +0.000 OA
ATOM     10  N   UNL     1      -0.319  12.862  21.260  0.00  0.00    +0.000 N 
ATOM     11  C   UNL     1       1.498  10.760  18.736  0.00  0.00    +0.000 A 
ENDROOT
BRANCH   7  12
ATOM     12  C   UNL     1       0.633  15.615  18.789  0.00  0.00    +0.000 A 
ATOM     13  C   UNL     1      -0.531  16.304  18.417  0.00  0.00    +0.000 A 
ATOM     14  C   UNL     1      -0.441  17.525  17.749  0.00  0.00    +0.000 A 
ATOM     15  C   UNL     1       0.808  18.063  17.442  0.00  0.00    +0.000 A 
ATOM     16  C   UNL     1       1.969  17.384  17.810  0.00  0.00    +0.000 A 
ATOM     17  C   UNL     1       1.883  16.163  18.482  0.00  0.00    +0.000 A 
ENDBRANCH   7  12
BRANCH   1  19
ATOM     18  N   UNL     1       2.305   7.329  19.749  0.00  0.00    +0.000 N 
ATOM     19  C   UNL     1       1.960   8.248  18.769  0.00  0.00    +0.000 C 
ATOM     20  O   UNL     1       2.236   8.054  17.590  0.00  0.00    +0.000 OA
ATOM     21  H   UNL     1       2.116   7.593  20.713  0.00  0.00    +0.000 HD
BRANCH  18  22
ATOM     22  C   UNL     1       2.985   6.087  19.437  0.00  0.00    +0.000 C 
BRANCH  22  23
ATOM     23  C   UNL     1       2.013   4.962  19.135  0.00  0.00    +0.000 C 
BRANCH  23  25
ATOM     24  O   UNL     1       2.184   4.471  21.486  0.00  0.00    +0.000 OA
ATOM     25  C   UNL     1       1.598   4.300  20.419  0.00  0.00    +0.000 C 
BRANCH  25  26
ATOM     26  O   UNL     1       0.499   3.529  20.312  0.00  0.00    +0.000 OA
ATOM     27  H   UNL     1       0.685   2.565  20.331  0.00  0.00    +0.000 HD
ENDBRANCH  25  26
ENDBRANCH  23  25
ENDBRANCH  22  23
ENDBRANCH  18  22
ENDBRANCH   1  19
BRANCH  11  28
ATOM     28  O   UNL     1       2.267  10.867  17.611  0.00  0.00    +0.000 OA
ATOM     29  H   UNL     1       2.950  10.185  17.555  0.00  0.00    +0.000 HD
ENDBRANCH  11  28
BRANCH  10  30
ATOM     30  C   UNL     1      -0.908  12.737  22.602  0.00  0.00    +0.000 C 
BRANCH  30  31
ATOM     31  C   UNL     1      -2.421  12.731  22.593  0.00  0.00    +0.000 A 
ATOM     32  C   UNL     1      -3.139  12.713  21.389  0.00  0.00    +0.000 A 
ATOM     33  C   UNL     1      -4.529  12.836  21.389  0.00  0.00    +0.000 A 
ATOM     34  C   UNL     1      -5.223  12.944  22.590  0.00  0.00    +0.000 A 
ATOM     35  C   UNL     1      -4.531  12.887  23.797  0.00  0.00    +0.000 A 
ATOM     36  C   UNL     1      -3.139  12.778  23.798  0.00  0.00    +0.000 A 
ENDBRANCH  30  31
ENDBRANCH  10  30
TORSDOF 9
ENDMDL
MODEL 4
REMARK VINA RESULT:      -7.0      8.813     11.930
REMARK  Name = 
REMARK  9 active torsions:
REMARK  status: ('A' for Active; 'I' for Inactive)
REMARK    1  A    between atoms: C_2  and  O_3
REMARK    2  A    between atoms: C_2  and  C_4
REMARK    3  A    between atoms: C_4  and  C_5
REMARK    4  A    between atoms: C_5  and  N_6
REMARK    5  A    between atoms: C_7  and  C_9
REMARK    6  A    between atoms: C_15  and  C_16
REMARK    7  A    between atoms: N_24  and  C_25
REMARK    8  A    between atoms: C_25  and  C_26
REMARK    9  A    between atoms: C_32  and  O_33
REMARK                            x       y       z     vdW  Elec       q    Type
REMARK                         _______ _______ _______ _____ _____    ______ ____
ROOT
ATOM      1  C   UNL     1       5.601   5.397  16.764  0.00  0.00    +0.000 A 
ATOM      2  N   UNL     1       5.243   4.432  17.659  0.00  0.00    +0.000 NA
ATOM      3  C   UNL     1       4.272   4.755  18.549  0.00  0.00    +0.000 A 
ATOM      4  C   UNL     1       3.621   5.987  18.623  0.00  0.00    +0.000 A 
ATOM      5  C   UNL     1       3.941   6.926  17.625  0.00  0.00    +0.000 A 
ATOM      6  C   UNL     1       3.171   8.173  17.582  0.00  0.00    +0.000 A 
ATOM      7  C   UNL     1       2.252   8.466  18.515  0.00  0.00    +0.000 A 
ATOM      8  C   UNL     1       2.031   7.561  19.680  0.00  0.00    +0.000 A 
ATOM      9  O   UNL     1       1.294   7.926  20.595  0.00  0.00    +0.000 OA
ATOM     10  N   UNL     1       2.697   6.334  19.670  0.00  0.00    +0.000 N 
ATOM     11  C   UNL     1       4.959   6.636  16.690  0.00  0.00    +0.000 A 
ENDROOT
BRANCH   7  12
ATOM     12  C   UNL     1       1.474   9.704  18.353  0.00  0.00    +0.000 A 
ATOM     13  C   UNL     1       2.103  10.949  18.503  0.00  0.00    +0.000 A 
ATOM     14  C   UNL     1       1.364  12.126  18.400  0.00  0.00    +0.000 A 
ATOM     15  C   UNL     1      -0.008  12.071  18.151  0.00  0.00    +0.000 A 
ATOM     16  C   UNL     1      -0.639  10.837  18.000  0.00  0.00    +0.000 A 
ATOM     17  C   UNL     1       0.099   9.656  18.100  0.00  0.00    +0.000 A 
ENDBRANCH   7  12
BRANCH   1  19
ATOM     18  N   UNL     1       6.599   5.300  14.538  0.00  0.00    +0.000 N 
ATOM     19  C   UNL     1       6.784   5.039  15.887  0.00  0.00    +0.000 C 
ATOM     20  O   UNL     1       7.817   4.522  16.300  0.00  0.00    +0.000 OA
ATOM     21  H   UNL     1       5.687   5.655  14.260  0.00  0.00    +0.000 HD
BRANCH  18  22
ATOM     22  C   UNL     1       7.615   5.001  13.548  0.00  0.00    +0.000 C 
BRANCH  22  23
ATOM     23  C   UNL     1       7.012   4.596  12.214  0.00  0.00    +0.000 C 
BRANCH  23  25
ATOM     24  O   UNL     1       4.968   3.570  12.968  0.00  0.00    +0.000 OA
ATOM     25  C   UNL     1       6.063   3.450  12.421  0.00  0.00    +0.000 C 
BRANCH  25  26
ATOM     26  O   UNL     1       6.496   2.277  11.919  0.00  0.00    +0.000 OA
ATOM     27  H   UNL     1       5.834   1.814  11.363  0.00  0.00    +0.000 HD
ENDBRANCH  25  26
ENDBRANCH  23  25
ENDBRANCH  22  23
ENDBRANCH  18  22
ENDBRANCH   1  19
BRANCH  11  28
ATOM     28  O   UNL     1       5.332   7.521  15.716  0.00  0.00    +0.000 OA
ATOM     29  H   UNL     1       5.191   8.442  15.970  0.00  0.00    +0.000 HD
ENDBRANCH  11  28
BRANCH  10  30
ATOM     30  C   UNL     1       2.514   5.476  20.851  0.00  0.00    +0.000 C 
BRANCH  30  31
ATOM     31  C   UNL     1       1.998   4.095  20.513  0.00  0.00    +0.000 A 
ATOM     32  C   UNL     1       2.523   2.952  21.132  0.00  0.00    +0.000 A 
ATOM     33  C   UNL     1       2.130   1.677  20.722  0.00  0.00    +0.000 A 
ATOM     34  C   UNL     1       1.184   1.527  19.713  0.00  0.00    +0.000 A 
ATOM     35  C   UNL     1       0.597   2.652  19.141  0.00  0.00    +0.000 A 
ATOM     36  C   UNL     1       1.000   3.927  19.541  0.00  0.00    +0.000 A 
ENDBRANCH  30  31
ENDBRANCH  10  30
TORSDOF 9
ENDMDL
MODEL 5
REMARK VINA RESULT:      -6.9      8.403     10.517
REMARK  Name = 
REMARK  9 active torsions:
REMARK  status: ('A' for Active; 'I' for Inactive)
REMARK    1  A    between atoms: C_2  and  O_3
REMARK    2  A    between atoms: C_2  and  C_4
REMARK    3  A    between atoms: C_4  and  C_5
REMARK    4  A    between atoms: C_5  and  N_6
REMARK    5  A    between atoms: C_7  and  C_9
REMARK    6  A    between atoms: C_15  and  C_16
REMARK    7  A    between atoms: N_24  and  C_25
REMARK    8  A    between atoms: C_25  and  C_26
REMARK    9  A    between atoms: C_32  and  O_33
REMARK                            x       y       z     vdW  Elec       q    Type
REMARK                         _______ _______ _______ _____ _____    ______ ____
ROOT
ATOM      1  C   UNL     1       0.836   9.823  19.238  0.00  0.00    +0.000 A 
ATOM      2  N   UNL     1       0.643   9.191  20.431  0.00  0.00    +0.000 NA
ATOM      3  C   UNL     1       1.338   8.043  20.632  0.00  0.00    +0.000 A 
ATOM      4  C   UNL     1       2.220   7.462  19.722  0.00  0.00    +0.000 A 
ATOM      5  C   UNL     1       2.473   8.189  18.543  0.00  0.00    +0.000 A 
ATOM      6  C   UNL     1       3.505   7.683  17.633  0.00  0.00    +0.000 A 
ATOM      7  C   UNL     1       4.130   6.517  17.854  0.00  0.00    +0.000 A 
ATOM      8  C   UNL     1       3.744   5.649  19.004  0.00  0.00    +0.000 A 
ATOM      9  O   UNL     1       4.226   4.521  19.096  0.00  0.00    +0.000 OA
ATOM     10  N   UNL     1       2.828   6.173  19.919  0.00  0.00    +0.000 N 
ATOM     11  C   UNL     1       1.759   9.380  18.286  0.00  0.00    +0.000 A 
ENDROOT
BRANCH   7  12
ATOM     12  C   UNL     1       5.205   6.123  16.929  0.00  0.00    +0.000 A 
ATOM     13  C   UNL     1       6.515   6.573  17.150  0.00  0.00    +0.000 A 
ATOM     14  C   UNL     1       7.531   6.245  16.253  0.00  0.00    +0.000 A 
ATOM     15  C   UNL     1       7.246   5.471  15.128  0.00  0.00    +0.000 A 
ATOM     16  C   UNL     1       5.947   5.019  14.903  0.00  0.00    +0.000 A 
ATOM     17  C   UNL     1       4.928   5.344  15.801  0.00  0.00    +0.000 A 
ENDBRANCH   7  12
BRANCH   1  19
ATOM     18  N   UNL     1      -0.998  10.846  17.992  0.00  0.00    +0.000 N 
ATOM     19  C   UNL     1      -0.065  11.019  19.002  0.00  0.00    +0.000 C 
ATOM     20  O   UNL     1       0.025  12.080  19.611  0.00  0.00    +0.000 OA
ATOM     21  H   UNL     1      -0.961   9.968  17.480  0.00  0.00    +0.000 HD
BRANCH  18  22
ATOM     22  C   UNL     1      -1.928  11.891  17.613  0.00  0.00    +0.000 C 
BRANCH  22  23
ATOM     23  C   UNL     1      -3.360  11.542  17.976  0.00  0.00    +0.000 C 
BRANCH  23  25
ATOM     24  O   UNL     1      -3.543  10.285  15.930  0.00  0.00    +0.000 OA
ATOM     25  C   UNL     1      -4.073  11.023  16.759  0.00  0.00    +0.000 C 
BRANCH  25  26
ATOM     26  O   UNL     1      -5.362  11.402  16.671  0.00  0.00    +0.000 OA
ATOM     27  H   UNL     1      -6.000  10.656  16.702  0.00  0.00    +0.000 HD
ENDBRANCH  25  26
ENDBRANCH  23  25
ENDBRANCH  22  23
ENDBRANCH  18  22
ENDBRANCH   1  19
BRANCH  11  28
ATOM     28  O   UNL     1       1.942  10.112  17.146  0.00  0.00    +0.000 OA
ATOM     29  H   UNL     1       1.123  10.251  16.652  0.00  0.00    +0.000 HD
ENDBRANCH  11  28
BRANCH  10  30
ATOM     30  C   UNL     1       2.413   5.285  21.016  0.00  0.00    +0.000 C 
BRANCH  30  31
ATOM     31  C   UNL     1       1.887   3.949  20.537  0.00  0.00    +0.000 A 
ATOM     32  C   UNL     1       2.448   2.746  20.987  0.00  0.00    +0.000 A 
ATOM     33  C   UNL     1       2.042   1.526  20.445  0.00  0.00    +0.000 A 
ATOM     34  C   UNL     1       1.047   1.489  19.472  0.00  0.00    +0.000 A 
ATOM     35  C   UNL     1       0.427   2.668  19.070  0.00  0.00    +0.000 A 
ATOM     36  C   UNL     1       0.843   3.890  19.602  0.00  0.00    +0.000 A 
ENDBRANCH  30  31
ENDBRANCH  10  30
TORSDOF 9
ENDMDL
MODEL 6
REMARK VINA RESULT:      -6.9      7.561      9.995
REMARK  Name = 
REMARK  9 active torsions:
REMARK  status: ('A' for Active; 'I' for Inactive)
REMARK    1  A    between atoms: C_2  and  O_3
REMARK    2  A    between atoms: C_2  and  C_4
REMARK    3  A    between atoms: C_4  and  C_5
REMARK    4  A    between atoms: C_5  and  N_6
REMARK    5  A    between atoms: C_7  and  C_9
REMARK    6  A    between atoms: C_15  and  C_16
REMARK    7  A    between atoms: N_24  and  C_25
REMARK    8  A    between atoms: C_25  and  C_26
REMARK    9  A    between atoms: C_32  and  O_33
REMARK                            x       y       z     vdW  Elec       q    Type
REMARK                         _______ _______ _______ _____ _____    ______ ____
ROOT
ATOM      1  C   UNL     1       0.789  10.072  19.267  0.00  0.00    +0.000 A 
ATOM      2  N   UNL     1       0.521   9.442  20.447  0.00  0.00    +0.000 NA
ATOM      3  C   UNL     1       1.157   8.263  20.667  0.00  0.00    +0.000 A 
ATOM      4  C   UNL     1       2.048   7.649  19.787  0.00  0.00    +0.000 A 
ATOM      5  C   UNL     1       2.379   8.371  18.625  0.00  0.00    +0.000 A 
ATOM      6  C   UNL     1       3.423   7.825  17.752  0.00  0.00    +0.000 A 
ATOM      7  C   UNL     1       3.987   6.631  17.989  0.00  0.00    +0.000 A 
ATOM      8  C   UNL     1       3.518   5.775  19.116  0.00  0.00    +0.000 A 
ATOM      9  O   UNL     1       3.946   4.626  19.219  0.00  0.00    +0.000 OA
ATOM     10  N   UNL     1       2.591   6.333  19.999  0.00  0.00    +0.000 N 
ATOM     11  C   UNL     1       1.728   9.593  18.349  0.00  0.00    +0.000 A 
ENDROOT
BRANCH   7  12
ATOM     12  C   UNL     1       5.079   6.195  17.104  0.00  0.00    +0.000 A 
ATOM     13  C   UNL     1       4.789   5.438  15.958  0.00  0.00    +0.000 A 
ATOM     14  C   UNL     1       5.820   4.980  15.141  0.00  0.00    +0.000 A 
ATOM     15  C   UNL     1       7.147   5.267  15.461  0.00  0.00    +0.000 A 
ATOM     16  C   UNL     1       7.442   6.020  16.597  0.00  0.00    +0.000 A 
ATOM     17  C   UNL     1       6.411   6.483  17.417  0.00  0.00    +0.000 A 
ENDBRANCH   7  12
BRANCH   1  19
ATOM     18  N   UNL     1       0.643  12.504  19.108  0.00  0.00    +0.000 N 
ATOM     19  C   UNL     1      -0.049  11.307  19.005  0.00  0.00    +0.000 C 
ATOM     20  O   UNL     1      -1.251  11.286  18.760  0.00  0.00    +0.000 OA
ATOM     21  H   UNL     1       1.619  12.446  19.391  0.00  0.00    +0.000 HD
BRANCH  18  22
ATOM     22  C   UNL     1      -0.001  13.788  18.913  0.00  0.00    +0.000 C 
BRANCH  22  23
ATOM     23  C   UNL     1       1.001  14.926  18.846  0.00  0.00    +0.000 C 
BRANCH  23  25
ATOM     24  O   UNL     1       3.125  14.322  19.806  0.00  0.00    +0.000 OA
ATOM     25  C   UNL     1       2.395  14.367  18.818  0.00  0.00    +0.000 C 
BRANCH  25  26
ATOM     26  O   UNL     1       2.768  13.876  17.621  0.00  0.00    +0.000 OA
ATOM     27  H   UNL     1       3.468  13.190  17.672  0.00  0.00    +0.000 HD
ENDBRANCH  25  26
ENDBRANCH  23  25
ENDBRANCH  22  23
ENDBRANCH  18  22
ENDBRANCH   1  19
BRANCH  11  28
ATOM     28  O   UNL     1       1.987  10.323  17.222  0.00  0.00    +0.000 OA
ATOM     29  H   UNL     1       1.802  11.265  17.332  0.00  0.00    +0.000 HD
ENDBRANCH  11  28
BRANCH  10  30
ATOM     30  C   UNL     1       2.094   5.459  21.072  0.00  0.00    +0.000 C 
BRANCH  30  31
ATOM     31  C   UNL     1       1.712   4.077  20.588  0.00  0.00    +0.000 A 
ATOM     32  C   UNL     1       2.255   2.927  21.177  0.00  0.00    +0.000 A 
ATOM     33  C   UNL     1       1.994   1.664  20.642  0.00  0.00    +0.000 A 
ATOM     34  C   UNL     1       1.161   1.531  19.536  0.00  0.00    +0.000 A 
ATOM     35  C   UNL     1       0.554   2.656  18.987  0.00  0.00    +0.000 A 
ATOM     36  C   UNL     1       0.825   3.921  19.512  0.00  0.00    +0.000 A 
ENDBRANCH  30  31
ENDBRANCH  10  30
TORSDOF 9
ENDMDL
MODEL 7
REMARK VINA RESULT:      -6.9      7.493      9.269
REMARK  Name = 
REMARK  9 active torsions:
REMARK  status: ('A' for Active; 'I' for Inactive)
REMARK    1  A    between atoms: C_2  and  O_3
REMARK    2  A    between atoms: C_2  and  C_4
REMARK    3  A    between atoms: C_4  and  C_5
REMARK    4  A    between atoms: C_5  and  N_6
REMARK    5  A    between atoms: C_7  and  C_9
REMARK    6  A    between atoms: C_15  and  C_16
REMARK    7  A    between atoms: N_24  and  C_25
REMARK    8  A    between atoms: C_25  and  C_26
REMARK    9  A    between atoms: C_32  and  O_33
REMARK                            x       y       z     vdW  Elec       q    Type
REMARK                         _______ _______ _______ _____ _____    ______ ____
ROOT
ATOM      1  C   UNL     1       1.159   9.574  19.519  0.00  0.00    +0.000 A 
ATOM      2  N   UNL     1       0.370   9.434  20.622  0.00  0.00    +0.000 NA
ATOM      3  C   UNL     1      -0.133  10.574  21.161  0.00  0.00    +0.000 A 
ATOM      4  C   UNL     1       0.096  11.864  20.682  0.00  0.00    +0.000 A 
ATOM      5  C   UNL     1       0.831  11.967  19.486  0.00  0.00    +0.000 A 
ATOM      6  C   UNL     1       0.965  13.292  18.874  0.00  0.00    +0.000 A 
ATOM      7  C   UNL     1       0.489  14.396  19.472  0.00  0.00    +0.000 A 
ATOM      8  C   UNL     1      -0.133  14.323  20.825  0.00  0.00    +0.000 A 
ATOM      9  O   UNL     1      -0.423  15.365  21.411  0.00  0.00    +0.000 OA
ATOM     10  N   UNL     1      -0.342  13.052  21.364  0.00  0.00    +0.000 N 
ATOM     11  C   UNL     1       1.388  10.807  18.902  0.00  0.00    +0.000 A 
ENDROOT
BRANCH   7  12
ATOM     12  C   UNL     1       0.601  15.674  18.752  0.00  0.00    +0.000 A 
ATOM     13  C   UNL     1       1.868  16.206  18.466  0.00  0.00    +0.000 A 
ATOM     14  C   UNL     1       1.984  17.439  17.828  0.00  0.00    +0.000 A 
ATOM     15  C   UNL     1       0.839  18.154  17.474  0.00  0.00    +0.000 A 
ATOM     16  C   UNL     1      -0.423  17.631  17.754  0.00  0.00    +0.000 A 
ATOM     17  C   UNL     1      -0.543  16.394  18.391  0.00  0.00    +0.000 A 
ENDBRANCH   7  12
BRANCH   1  19
ATOM     18  N   UNL     1       2.092   7.380  20.046  0.00  0.00    +0.000 N 
ATOM     19  C   UNL     1       1.811   8.292  19.041  0.00  0.00    +0.000 C 
ATOM     20  O   UNL     1       2.114   8.066  17.874  0.00  0.00    +0.000 OA
ATOM     21  H   UNL     1       1.884   7.669  20.999  0.00  0.00    +0.000 HD
BRANCH  18  22
ATOM     22  C   UNL     1       2.735   6.109  19.778  0.00  0.00    +0.000 C 
BRANCH  22  23
ATOM     23  C   UNL     1       2.152   4.985  20.615  0.00  0.00    +0.000 C 
BRANCH  23  25
ATOM     24  O   UNL     1       1.495   3.983  18.526  0.00  0.00    +0.000 OA
ATOM     25  C   UNL     1       1.326   4.085  19.740  0.00  0.00    +0.000 C 
BRANCH  25  26
ATOM     26  O   UNL     1       0.404   3.363  20.405  0.00  0.00    +0.000 OA
ATOM     27  H   UNL     1       0.578   3.285  21.368  0.00  0.00    +0.000 HD
ENDBRANCH  25  26
ENDBRANCH  23  25
ENDBRANCH  22  23
ENDBRANCH  18  22
ENDBRANCH   1  19
BRANCH  11  28
ATOM     28  O   UNL     1       2.134  10.850  17.758  0.00  0.00    +0.000 OA
ATOM     29  H   UNL     1       1.912  10.144  17.136  0.00  0.00    +0.000 HD
ENDBRANCH  11  28
BRANCH  10  30
ATOM     30  C   UNL     1      -0.904  12.997  22.723  0.00  0.00    +0.000 C 
BRANCH  30  31
ATOM     31  C   UNL     1      -2.416  13.055  22.747  0.00  0.00    +0.000 A 
ATOM     32  C   UNL     1      -3.112  13.343  23.929  0.00  0.00    +0.000 A 
ATOM     33  C   UNL     1      -4.505  13.268  23.969  0.00  0.00    +0.000 A 
ATOM     34  C   UNL     1      -5.222  12.940  22.823  0.00  0.00    +0.000 A 
ATOM     35  C   UNL     1      -4.550  12.726  21.623  0.00  0.00    +0.000 A 
ATOM     36  C   UNL     1      -3.156  12.786  21.585  0.00  0.00    +0.000 A 
ENDBRANCH  30  31
ENDBRANCH  10  30
TORSDOF 9
ENDMDL
MODEL 8
REMARK VINA RESULT:      -6.9      7.859     10.305
REMARK  Name = 
REMARK  9 active torsions:
REMARK  status: ('A' for Active; 'I' for Inactive)
REMARK    1  A    between atoms: C_2  and  O_3
REMARK    2  A    between atoms: C_2  and  C_4
REMARK    3  A    between atoms: C_4  and  C_5
REMARK    4  A    between atoms: C_5  and  N_6
REMARK    5  A    between atoms: C_7  and  C_9
REMARK    6  A    between atoms: C_15  and  C_16
REMARK    7  A    between atoms: N_24  and  C_25
REMARK    8  A    between atoms: C_25  and  C_26
REMARK    9  A    between atoms: C_32  and  O_33
REMARK                            x       y       z     vdW  Elec       q    Type
REMARK                         _______ _______ _______ _____ _____    ______ ____
ROOT
ATOM      1  C   UNL     1       1.245   8.471  20.277  0.00  0.00    +0.000 A 
ATOM      2  N   UNL     1       1.299   9.002  19.022  0.00  0.00    +0.000 NA
ATOM      3  C   UNL     1       0.631  10.166  18.823  0.00  0.00    +0.000 A 
ATOM      4  C   UNL     1      -0.104  10.851  19.790  0.00  0.00    +0.000 A 
ATOM      5  C   UNL     1      -0.059  10.331  21.097  0.00  0.00    +0.000 A 
ATOM      6  C   UNL     1      -0.696  11.105  22.167  0.00  0.00    +0.000 A 
ATOM      7  C   UNL     1      -1.386  12.227  21.910  0.00  0.00    +0.000 A 
ATOM      8  C   UNL     1      -1.594  12.692  20.508  0.00  0.00    +0.000 A 
ATOM      9  O   UNL     1      -2.354  13.635  20.293  0.00  0.00    +0.000 OA
ATOM     10  N   UNL     1      -0.912  12.006  19.501  0.00  0.00    +0.000 N 
ATOM     11  C   UNL     1       0.611   9.112  21.345  0.00  0.00    +0.000 A 
ENDROOT
BRANCH   7  12
ATOM     12  C   UNL     1      -1.929  12.980  23.052  0.00  0.00    +0.000 A 
ATOM     13  C   UNL     1      -3.175  12.628  23.591  0.00  0.00    +0.000 A 
ATOM     14  C   UNL     1      -3.720  13.367  24.641  0.00  0.00    +0.000 A 
ATOM     15  C   UNL     1      -3.028  14.464  25.156  0.00  0.00    +0.000 A 
ATOM     16  C   UNL     1      -1.789  14.818  24.626  0.00  0.00    +0.000 A 
ATOM     17  C   UNL     1      -1.239  14.079  23.576  0.00  0.00    +0.000 A 
ENDBRANCH   7  12
BRANCH   1  19
ATOM     18  N   UNL     1       2.954   6.881  19.560  0.00  0.00    +0.000 N 
ATOM     19  C   UNL     1       1.885   7.103  20.414  0.00  0.00    +0.000 C 
ATOM     20  O   UNL     1       1.489   6.230  21.178  0.00  0.00    +0.000 OA
ATOM     21  H   UNL     1       3.176   7.623  18.899  0.00  0.00    +0.000 HD
BRANCH  18  22
ATOM     22  C   UNL     1       3.673   5.623  19.534  0.00  0.00    +0.000 C 
BRANCH  22  23
ATOM     23  C   UNL     1       4.846   5.653  18.571  0.00  0.00    +0.000 C 
BRANCH  23  25
ATOM     24  O   UNL     1       7.051   4.999  19.284  0.00  0.00    +0.000 OA
ATOM     25  C   UNL     1       5.893   4.676  19.025  0.00  0.00    +0.000 C 
BRANCH  25  26
ATOM     26  O   UNL     1       5.446   3.414  19.165  0.00  0.00    +0.000 OA
ATOM     27  H   UNL     1       4.502   3.296  18.923  0.00  0.00    +0.000 HD
ENDBRANCH  25  26
ENDBRANCH  23  25
ENDBRANCH  22  23
ENDBRANCH  18  22
ENDBRANCH   1  19
BRANCH  11  28
ATOM     28  O   UNL     1       0.664   8.545  22.588  0.00  0.00    +0.000 OA
ATOM     29  H   UNL     1       0.724   9.198  23.298  0.00  0.00    +0.000 HD
ENDBRANCH  11  28
BRANCH  10  30
ATOM     30  C   UNL     1      -1.170  12.439  18.119  0.00  0.00    +0.000 C 
BRANCH  30  31
ATOM     31  C   UNL     1      -2.256  11.636  17.435  0.00  0.00    +0.000 A 
ATOM     32  C   UNL     1      -1.951  10.734  16.406  0.00  0.00    +0.000 A 
ATOM     33  C   UNL     1      -2.969  10.094  15.697  0.00  0.00    +0.000 A 
ATOM     34  C   UNL     1      -4.302  10.320  16.029  0.00  0.00    +0.000 A 
ATOM     35  C   UNL     1      -4.617  11.154  17.098  0.00  0.00    +0.000 A 
ATOM     36  C   UNL     1      -3.601  11.805  17.798  0.00  0.00    +0.000 A 
ENDBRANCH  30  31
ENDBRANCH  10  30
TORSDOF 9
ENDMDL
MODEL 9
REMARK VINA RESULT:      -6.8      7.314      9.339
REMARK  Name = 
REMARK  9 active torsions:
REMARK  status: ('A' for Active; 'I' for Inactive)
REMARK    1  A    between atoms: C_2  and  O_3
REMARK    2  A    between atoms: C_2  and  C_4
REMARK    3  A    between atoms: C_4  and  C_5
REMARK    4  A    between atoms: C_5  and  N_6
REMARK    5  A    between atoms: C_7  and  C_9
REMARK    6  A    between atoms: C_15  and  C_16
REMARK    7  A    between atoms: N_24  and  C_25
REMARK    8  A    between atoms: C_25  and  C_26
REMARK    9  A    between atoms: C_32  and  O_33
REMARK                            x       y       z     vdW  Elec       q    Type
REMARK                         _______ _______ _______ _____ _____    ______ ____
ROOT
ATOM      1  C   UNL     1       1.435   9.478  18.985  0.00  0.00    +0.000 A 
ATOM      2  N   UNL     1       0.642   9.213  20.062  0.00  0.00    +0.000 NA
ATOM      3  C   UNL     1       0.097  10.282  20.697  0.00  0.00    +0.000 A 
ATOM      4  C   UNL     1       0.289  11.617  20.340  0.00  0.00    +0.000 A 
ATOM      5  C   UNL     1       1.030  11.852  19.167  0.00  0.00    +0.000 A 
ATOM      6  C   UNL     1       1.126  13.232  18.681  0.00  0.00    +0.000 A 
ATOM      7  C   UNL     1       0.610  14.260  19.371  0.00  0.00    +0.000 A 
ATOM      8  C   UNL     1      -0.021  14.044  20.705  0.00  0.00    +0.000 A 
ATOM      9  O   UNL     1      -0.349  15.019  21.381  0.00  0.00    +0.000 OA
ATOM     10  N   UNL     1      -0.193  12.723  21.124  0.00  0.00    +0.000 N 
ATOM     11  C   UNL     1       1.629  10.769  18.486  0.00  0.00    +0.000 A 
ENDROOT
BRANCH   7  12
ATOM     12  C   UNL     1       0.687  15.602  18.772  0.00  0.00    +0.000 A 
ATOM     13  C   UNL     1      -0.492  16.293  18.455  0.00  0.00    +0.000 A 
ATOM     14  C   UNL     1      -0.430  17.544  17.843  0.00  0.00    +0.000 A 
ATOM     15  C   UNL     1       0.807  18.112  17.538  0.00  0.00    +0.000 A 
ATOM     16  C   UNL     1       1.983  17.431  17.852  0.00  0.00    +0.000 A 
ATOM     17  C   UNL     1       1.924  16.180  18.468  0.00  0.00    +0.000 A 
ENDBRANCH   7  12
BRANCH   1  19
ATOM     18  N   UNL     1       2.027   7.116  19.165  0.00  0.00    +0.000 N 
ATOM     19  C   UNL     1       2.131   8.266  18.398  0.00  0.00    +0.000 C 
ATOM     20  O   UNL     1       2.776   8.279  17.355  0.00  0.00    +0.000 OA
ATOM     21  H   UNL     1       1.544   7.201  20.057  0.00  0.00    +0.000 HD
BRANCH  18  22
ATOM     22  C   UNL     1       2.650   5.867  18.773  0.00  0.00    +0.000 C 
BRANCH  22  23
ATOM     23  C   UNL     1       3.816   5.501  19.673  0.00  0.00    +0.000 C 
BRANCH  23  25
ATOM     24  O   UNL     1       6.002   4.683  19.080  0.00  0.00    +0.000 OA
ATOM     25  C   UNL     1       5.082   5.470  18.864  0.00  0.00    +0.000 C 
BRANCH  25  26
ATOM     26  O   UNL     1       5.111   6.355  17.849  0.00  0.00    +0.000 OA
ATOM     27  H   UNL     1       4.235   6.515  17.436  0.00  0.00    +0.000 HD
ENDBRANCH  25  26
ENDBRANCH  23  25
ENDBRANCH  22  23
ENDBRANCH  18  22
ENDBRANCH   1  19
BRANCH  11  28
ATOM     28  O   UNL     1       2.383  10.940  17.358  0.00  0.00    +0.000 OA
ATOM     29  H   UNL     1       3.332  10.867  17.525  0.00  0.00    +0.000 HD
ENDBRANCH  11  28
BRANCH  10  30
ATOM     30  C   UNL     1      -0.763  12.526  22.465  0.00  0.00    +0.000 C 
BRANCH  30  31
ATOM     31  C   UNL     1      -2.275  12.598  22.487  0.00  0.00    +0.000 A 
ATOM     32  C   UNL     1      -3.016  12.649  21.299  0.00  0.00    +0.000 A 
ATOM     33  C   UNL     1      -4.398  12.843  21.331  0.00  0.00    +0.000 A 
ATOM     34  C   UNL     1      -5.061  12.952  22.549  0.00  0.00    +0.000 A 
ATOM     35  C   UNL     1      -4.350  12.827  23.739  0.00  0.00    +0.000 A 
ATOM     36  C   UNL     1      -2.966  12.648  23.708  0.00  0.00    +0.000 A 
ENDBRANCH  30  31
ENDBRANCH  10  30
TORSDOF 9
ENDMDL
