MODEL 1
REMARK VINA RESULT:      -7.0      0.000      0.000
REMARK  Name = 
REMARK  5 active torsions:
REMARK  status: ('A' for Active; 'I' for Inactive)
REMARK    1  A    between atoms: C_1  and  C_2
REMARK    2  A    between atoms: C_3  and  N_4
REMARK    3  A    between atoms: N_4  and  C_5
REMARK    4  A    between atoms: C_7  and  C_8
REMARK    5  A    between atoms: C_15  and  C_16
REMARK                            x       y       z     vdW  Elec       q    Type
REMARK                         _______ _______ _______ _____ _____    ______ ____
ROOT
ATOM      1  N   UNL     1       5.343   4.323  17.155  0.00  0.00    +0.000 N 
ATOM      2  H   UNL     1       6.105   3.956  17.740  0.00  0.00    +0.000 HD
ENDROOT
BRANCH   1   5
ATOM      3  C   UNL     1       3.284   6.515  18.235  0.00  0.00    +0.000 C 
ATOM      4  C   UNL     1       3.334   5.049  18.582  0.00  0.00    +0.000 A 
ATOM      5  C   UNL     1       4.161   4.101  17.940  0.00  0.00    +0.000 A 
ATOM      6  C   UNL     1       4.023   2.741  18.337  0.00  0.00    +0.000 A 
ATOM      7  C   UNL     1       3.266   2.341  19.440  0.00  0.00    +0.000 A 
ATOM      8  C   UNL     1       2.567   3.285  20.179  0.00  0.00    +0.000 A 
ATOM      9  C   UNL     1       2.564   4.618  19.727  0.00  0.00    +0.000 A 
ATOM     10 CL   UNL     1       1.677   5.793  20.667  0.00  0.00    +0.000 Cl
BRANCH   8  11
ATOM     11  C   UNL     1       1.925   2.858  21.396  0.00  0.00    +0.000 C 
ATOM     12  N   UNL     1       1.367   2.500  22.351  0.00  0.00    +0.000 NA
ENDBRANCH   8  11
ENDBRANCH   1   5
BRANCH   1  13
ATOM     13  C   UNL     1       5.757   4.453  15.865  0.00  0.00    +0.000 A 
ATOM     14  C   UNL     1       5.287   4.372  14.569  0.00  0.00    +0.000 A 
ATOM     15  C   UNL     1       6.468   4.351  13.763  0.00  0.00    +0.000 A 
ATOM     16  N   UNL     1       7.566   4.616  14.469  0.00  0.00    +0.000 NA
ATOM     17  N   UNL     1       7.106   4.733  15.709  0.00  0.00    +0.000 N 
ATOM     18  H   UNL     1       7.781   4.944  16.434  0.00  0.00    +0.000 HD
BRANCH  15  19
ATOM     19  C   UNL     1       6.646   3.961  12.303  0.00  0.00    +0.000 C 
ATOM     20  C   UNL     1       6.705   2.486  11.971  0.00  0.00    +0.000 C 
ATOM     21  C   UNL     1       5.568   3.313  11.477  0.00  0.00    +0.000 C 
ENDBRANCH  15  19
ENDBRANCH   1  13
TORSDOF 4
ENDMDL
MODEL 2
REMARK VINA RESULT:      -6.8      1.041      1.259
REMARK  Name = 
REMARK  5 active torsions:
REMARK  status: ('A' for Active; 'I' for Inactive)
REMARK    1  A    between atoms: C_1  and  C_2
REMARK    2  A    between atoms: C_3  and  N_4
REMARK    3  A    between atoms: N_4  and  C_5
REMARK    4  A    between atoms: C_7  and  C_8
REMARK    5  A    between atoms: C_15  and  C_16
REMARK                            x       y       z     vdW  Elec       q    Type
REMARK                         _______ _______ _______ _____ _____    ______ ____
ROOT
ATOM      1  N   UNL     1       5.239   3.344  16.826  0.00  0.00    +0.000 N 
ATOM      2  H   UNL     1       5.488   2.346  16.824  0.00  0.00    +0.000 HD
ENDROOT
BRANCH   1   5
ATOM      3  C   UNL     1       3.755   5.960  17.903  0.00  0.00    +0.000 C 
ATOM      4  C   UNL     1       3.481   4.526  18.279  0.00  0.00    +0.000 A 
ATOM      5  C   UNL     1       4.057   3.407  17.639  0.00  0.00    +0.000 A 
ATOM      6  C   UNL     1       3.624   2.119  18.067  0.00  0.00    +0.000 A 
ATOM      7  C   UNL     1       2.825   1.918  19.193  0.00  0.00    +0.000 A 
ATOM      8  C   UNL     1       2.376   3.006  19.927  0.00  0.00    +0.000 A 
ATOM      9  C   UNL     1       2.662   4.299  19.448  0.00  0.00    +0.000 A 
ATOM     10 CL   UNL     1       2.087   5.658  20.382  0.00  0.00    +0.000 Cl
BRANCH   8  11
ATOM     11  C   UNL     1       1.684   2.755  21.165  0.00  0.00    +0.000 C 
ATOM     12  N   UNL     1       1.126   2.600  22.174  0.00  0.00    +0.000 NA
ENDBRANCH   8  11
ENDBRANCH   1   5
BRANCH   1  13
ATOM     13  C   UNL     1       5.867   3.992  15.807  0.00  0.00    +0.000 A 
ATOM     14  C   UNL     1       6.037   3.937  14.437  0.00  0.00    +0.000 A 
ATOM     15  C   UNL     1       7.119   4.833  14.178  0.00  0.00    +0.000 A 
ATOM     16  N   UNL     1       7.451   5.549  15.251  0.00  0.00    +0.000 NA
ATOM     17  N   UNL     1       6.647   5.070  16.193  0.00  0.00    +0.000 N 
ATOM     18  H   UNL     1       6.722   5.480  17.116  0.00  0.00    +0.000 HD
BRANCH  15  19
ATOM     19  C   UNL     1       7.986   4.984  12.936  0.00  0.00    +0.000 C 
ATOM     20  C   UNL     1       7.344   4.708  11.593  0.00  0.00    +0.000 C 
ATOM     21  C   UNL     1       7.808   6.085  11.926  0.00  0.00    +0.000 C 
ENDBRANCH  15  19
ENDBRANCH   1  13
TORSDOF 4
ENDMDL
MODEL 3
REMARK VINA RESULT:      -6.7      4.292      8.165
REMARK  Name = 
REMARK  5 active torsions:
REMARK  status: ('A' for Active; 'I' for Inactive)
REMARK    1  A    between atoms: C_1  and  C_2
REMARK    2  A    between atoms: C_3  and  N_4
REMARK    3  A    between atoms: N_4  and  C_5
REMARK    4  A    between atoms: C_7  and  C_8
REMARK    5  A    between atoms: C_15  and  C_16
REMARK                            x       y       z     vdW  Elec       q    Type
REMARK                         _______ _______ _______ _____ _____    ______ ____
ROOT
ATOM      1  N   UNL     1       2.396   7.787  18.254  0.00  0.00    +0.000 N 
ATOM      2  H   UNL     1       1.846   7.948  17.400  0.00  0.00    +0.000 HD
ENDROOT
BRANCH   1   5
ATOM      3  C   UNL     1       2.293   4.741  19.214  0.00  0.00    +0.000 C 
ATOM      4  C   UNL     1       3.389   5.424  18.435  0.00  0.00    +0.000 A 
ATOM      5  C   UNL     1       3.295   6.726  17.895  0.00  0.00    +0.000 A 
ATOM      6  C   UNL     1       4.393   7.187  17.114  0.00  0.00    +0.000 A 
ATOM      7  C   UNL     1       5.606   6.502  17.025  0.00  0.00    +0.000 A 
ATOM      8  C   UNL     1       5.768   5.290  17.680  0.00  0.00    +0.000 A 
ATOM      9  C   UNL     1       4.655   4.734  18.340  0.00  0.00    +0.000 A 
ATOM     10 CL   UNL     1       4.874   3.206  19.158  0.00  0.00    +0.000 Cl
BRANCH   8  11
ATOM     11  C   UNL     1       7.078   4.691  17.692  0.00  0.00    +0.000 C 
ATOM     12  N   UNL     1       8.136   4.213  17.751  0.00  0.00    +0.000 NA
ENDBRANCH   8  11
ENDBRANCH   1   5
BRANCH   1  13
ATOM     13  C   UNL     1       1.771   8.336  19.331  0.00  0.00    +0.000 A 
ATOM     14  C   UNL     1       1.479   8.076  20.656  0.00  0.00    +0.000 A 
ATOM     15  C   UNL     1       0.502   9.059  21.004  0.00  0.00    +0.000 A 
ATOM     16  N   UNL     1       0.357   9.984  20.057  0.00  0.00    +0.000 NA
ATOM     17  N   UNL     1       1.170   9.562  19.096  0.00  0.00    +0.000 N 
ATOM     18  H   UNL     1       1.228  10.128  18.258  0.00  0.00    +0.000 HD
BRANCH  15  19
ATOM     19  C   UNL     1      -0.441   9.118  22.196  0.00  0.00    +0.000 C 
ATOM     20  C   UNL     1       0.148   9.490  23.541  0.00  0.00    +0.000 C 
ATOM     21  C   UNL     1      -0.834  10.398  22.883  0.00  0.00    +0.000 C 
ENDBRANCH  15  19
ENDBRANCH   1  13
TORSDOF 4
ENDMDL
MODEL 4
REMARK VINA RESULT:      -6.7      1.531      2.182
REMARK  Name = 
REMARK  5 active torsions:
REMARK  status: ('A' for Active; 'I' for Inactive)
REMARK    1  A    between atoms: C_1  and  C_2
REMARK    2  A    between atoms: C_3  and  N_4
REMARK    3  A    between atoms: N_4  and  C_5
REMARK    4  A    between atoms: C_7  and  C_8
REMARK    5  A    between atoms: C_15  and  C_16
REMARK                            x       y       z     vdW  Elec       q    Type
REMARK                         _______ _______ _______ _____ _____    ______ ____
ROOT
ATOM      1  N   UNL     1       5.948   3.850  17.219  0.00  0.00    +0.000 N 
ATOM      2  H   UNL     1       6.558   3.079  17.522  0.00  0.00    +0.000 HD
ENDROOT
BRANCH   1   5
ATOM      3  C   UNL     1       3.578   1.874  18.049  0.00  0.00    +0.000 C 
ATOM      4  C   UNL     1       3.857   3.255  18.588  0.00  0.00    +0.000 A 
ATOM      5  C   UNL     1       5.019   4.006  18.303  0.00  0.00    +0.000 A 
ATOM      6  C   UNL     1       5.161   5.260  18.962  0.00  0.00    +0.000 A 
ATOM      7  C   UNL     1       4.138   5.851  19.706  0.00  0.00    +0.000 A 
ATOM      8  C   UNL     1       2.928   5.191  19.867  0.00  0.00    +0.000 A 
ATOM      9  C   UNL     1       2.806   3.886  19.352  0.00  0.00    +0.000 A 
ATOM     10 CL   UNL     1       1.278   3.068  19.566  0.00  0.00    +0.000 Cl
BRANCH   8  11
ATOM     11  C   UNL     1       1.848   5.895  20.508  0.00  0.00    +0.000 C 
ATOM     12  N   UNL     1       1.008   6.483  21.058  0.00  0.00    +0.000 NA
ENDBRANCH   8  11
ENDBRANCH   1   5
BRANCH   1  13
ATOM     13  C   UNL     1       6.064   4.048  15.877  0.00  0.00    +0.000 A 
ATOM     14  C   UNL     1       5.380   3.845  14.695  0.00  0.00    +0.000 A 
ATOM     15  C   UNL     1       6.356   4.073  13.676  0.00  0.00    +0.000 A 
ATOM     16  N   UNL     1       7.485   4.584  14.163  0.00  0.00    +0.000 NA
ATOM     17  N   UNL     1       7.262   4.616  15.471  0.00  0.00    +0.000 N 
ATOM     18  H   UNL     1       8.002   4.982  16.057  0.00  0.00    +0.000 HD
BRANCH  15  19
ATOM     19  C   UNL     1       6.327   3.709  12.199  0.00  0.00    +0.000 C 
ATOM     20  C   UNL     1       6.217   2.244  11.837  0.00  0.00    +0.000 C 
ATOM     21  C   UNL     1       5.107   3.178  11.496  0.00  0.00    +0.000 C 
ENDBRANCH  15  19
ENDBRANCH   1  13
TORSDOF 4
ENDMDL
MODEL 5
REMARK VINA RESULT:      -6.7      5.141      9.376
REMARK  Name = 
REMARK  5 active torsions:
REMARK  status: ('A' for Active; 'I' for Inactive)
REMARK    1  A    between atoms: C_1  and  C_2
REMARK    2  A    between atoms: C_3  and  N_4
REMARK    3  A    between atoms: N_4  and  C_5
REMARK    4  A    between atoms: C_7  and  C_8
REMARK    5  A    between atoms: C_15  and  C_16
REMARK                            x       y       z     vdW  Elec       q    Type
REMARK                         _______ _______ _______ _____ _____    ______ ____
ROOT
ATOM      1  N   UNL     1       1.578   7.756  21.034  0.00  0.00    +0.000 N 
ATOM      2  H   UNL     1       2.332   7.615  21.719  0.00  0.00    +0.000 HD
ENDROOT
BRANCH   1   5
ATOM      3  C   UNL     1       2.491   4.718  20.654  0.00  0.00    +0.000 C 
ATOM      4  C   UNL     1       2.651   5.856  19.678  0.00  0.00    +0.000 A 
ATOM      5  C   UNL     1       2.072   7.135  19.838  0.00  0.00    +0.000 A 
ATOM      6  C   UNL     1       2.256   8.068  18.778  0.00  0.00    +0.000 A 
ATOM      7  C   UNL     1       3.123   7.846  17.707  0.00  0.00    +0.000 A 
ATOM      8  C   UNL     1       3.820   6.650  17.617  0.00  0.00    +0.000 A 
ATOM      9  C   UNL     1       3.551   5.647  18.567  0.00  0.00    +0.000 A 
ATOM     10 CL   UNL     1       4.436   4.146  18.438  0.00  0.00    +0.000 Cl
BRANCH   8  11
ATOM     11  C   UNL     1       4.817   6.519  16.585  0.00  0.00    +0.000 C 
ATOM     12  N   UNL     1       5.586   6.416  15.719  0.00  0.00    +0.000 NA
ENDBRANCH   8  11
ENDBRANCH   1   5
BRANCH   1  13
ATOM     13  C   UNL     1       0.732   8.736  21.454  0.00  0.00    +0.000 A 
ATOM     14  C   UNL     1      -0.320   9.515  21.013  0.00  0.00    +0.000 A 
ATOM     15  C   UNL     1      -0.447  10.536  22.005  0.00  0.00    +0.000 A 
ATOM     16  N   UNL     1       0.306  10.295  23.077  0.00  0.00    +0.000 NA
ATOM     17  N   UNL     1       0.952   9.183  22.748  0.00  0.00    +0.000 N 
ATOM     18  H   UNL     1       1.594   8.802  23.432  0.00  0.00    +0.000 HD
BRANCH  15  19
ATOM     19  C   UNL     1      -1.192  11.861  21.951  0.00  0.00    +0.000 C 
ATOM     20  C   UNL     1      -2.459  11.989  22.770  0.00  0.00    +0.000 C 
ATOM     21  C   UNL     1      -1.269  12.820  23.109  0.00  0.00    +0.000 C 
ENDBRANCH  15  19
ENDBRANCH   1  13
TORSDOF 4
ENDMDL
MODEL 6
REMARK VINA RESULT:      -6.7      4.442      8.434
REMARK  Name = 
REMARK  5 active torsions:
REMARK  status: ('A' for Active; 'I' for Inactive)
REMARK    1  A    between atoms: C_1  and  C_2
REMARK    2  A    between atoms: C_3  and  N_4
REMARK    3  A    between atoms: N_4  and  C_5
REMARK    4  A    between atoms: C_7  and  C_8
REMARK    5  A    between atoms: C_15  and  C_16
REMARK                            x       y       z     vdW  Elec       q    Type
REMARK                         _______ _______ _______ _____ _____    ______ ____
ROOT
ATOM      1  N   UNL     1       2.249   7.158  20.277  0.00  0.00    +0.000 N 
ATOM      2  H   UNL     1       3.071   7.038  20.883  0.00  0.00    +0.000 HD
ENDROOT
BRANCH   1   5
ATOM      3  C   UNL     1       1.379   4.131  19.742  0.00  0.00    +0.000 C 
ATOM      4  C   UNL     1       2.336   4.970  18.933  0.00  0.00    +0.000 A 
ATOM      5  C   UNL     1       2.546   6.354  19.125  0.00  0.00    +0.000 A 
ATOM      6  C   UNL     1       3.425   7.010  18.217  0.00  0.00    +0.000 A 
ATOM      7  C   UNL     1       4.217   6.327  17.293  0.00  0.00    +0.000 A 
ATOM      8  C   UNL     1       4.136   4.945  17.199  0.00  0.00    +0.000 A 
ATOM      9  C   UNL     1       3.171   4.278  17.978  0.00  0.00    +0.000 A 
ATOM     10 CL   UNL     1       3.079   2.539  17.846  0.00  0.00    +0.000 Cl
BRANCH   8  11
ATOM     11  C   UNL     1       5.076   4.263  16.346  0.00  0.00    +0.000 C 
ATOM     12  N   UNL     1       5.811   3.732  15.619  0.00  0.00    +0.000 NA
ENDBRANCH   8  11
ENDBRANCH   1   5
BRANCH   1  13
ATOM     13  C   UNL     1       1.534   8.251  20.658  0.00  0.00    +0.000 A 
ATOM     14  C   UNL     1       0.744   9.258  20.138  0.00  0.00    +0.000 A 
ATOM     15  C   UNL     1       0.623  10.201  21.204  0.00  0.00    +0.000 A 
ATOM     16  N   UNL     1       1.104   9.731  22.353  0.00  0.00    +0.000 NA
ATOM     17  N   UNL     1       1.587   8.541  22.012  0.00  0.00    +0.000 N 
ATOM     18  H   UNL     1       2.008   7.987  22.747  0.00  0.00    +0.000 HD
BRANCH  15  19
ATOM     19  C   UNL     1       0.156  11.649  21.177  0.00  0.00    +0.000 C 
ATOM     20  C   UNL     1      -1.328  11.907  21.022  0.00  0.00    +0.000 C 
ATOM     21  C   UNL     1      -0.636  12.289  22.286  0.00  0.00    +0.000 C 
ENDBRANCH  15  19
ENDBRANCH   1  13
TORSDOF 4
ENDMDL
MODEL 7
REMARK VINA RESULT:      -6.6      5.423      7.467
REMARK  Name = 
REMARK  5 active torsions:
REMARK  status: ('A' for Active; 'I' for Inactive)
REMARK    1  A    between atoms: C_1  and  C_2
REMARK    2  A    between atoms: C_3  and  N_4
REMARK    3  A    between atoms: N_4  and  C_5
REMARK    4  A    between atoms: C_7  and  C_8
REMARK    5  A    between atoms: C_15  and  C_16
REMARK                            x       y       z     vdW  Elec       q    Type
REMARK                         _______ _______ _______ _____ _____    ______ ____
ROOT
ATOM      1  N   UNL     1       1.750   7.900  20.958  0.00  0.00    +0.000 N 
ATOM      2  H   UNL     1       2.167   7.810  21.893  0.00  0.00    +0.000 HD
ENDROOT
BRANCH   1   5
ATOM      3  C   UNL     1       0.745  10.060  18.828  0.00  0.00    +0.000 C 
ATOM      4  C   UNL     1       0.370   9.961  20.285  0.00  0.00    +0.000 A 
ATOM      5  C   UNL     1       0.716   8.882  21.129  0.00  0.00    +0.000 A 
ATOM      6  C   UNL     1       0.209   8.908  22.459  0.00  0.00    +0.000 A 
ATOM      7  C   UNL     1      -0.433  10.019  23.009  0.00  0.00    +0.000 A 
ATOM      8  C   UNL     1      -0.643  11.151  22.235  0.00  0.00    +0.000 A 
ATOM      9  C   UNL     1      -0.287  11.105  20.874  0.00  0.00    +0.000 A 
ATOM     10 CL   UNL     1      -0.561  12.537  19.912  0.00  0.00    +0.000 Cl
BRANCH   8  11
ATOM     11  C   UNL     1      -1.169  12.329  22.878  0.00  0.00    +0.000 C 
ATOM     12  N   UNL     1      -1.546  13.295  23.403  0.00  0.00    +0.000 NA
ENDBRANCH   8  11
ENDBRANCH   1   5
BRANCH   1  13
ATOM     13  C   UNL     1       2.089   6.834  20.183  0.00  0.00    +0.000 A 
ATOM     14  C   UNL     1       2.414   6.507  18.880  0.00  0.00    +0.000 A 
ATOM     15  C   UNL     1       2.338   5.081  18.842  0.00  0.00    +0.000 A 
ATOM     16  N   UNL     1       2.196   4.550  20.055  0.00  0.00    +0.000 NA
ATOM     17  N   UNL     1       2.112   5.615  20.843  0.00  0.00    +0.000 N 
ATOM     18  H   UNL     1       2.003   5.448  21.836  0.00  0.00    +0.000 HD
BRANCH  15  19
ATOM     19  C   UNL     1       2.273   4.139  17.649  0.00  0.00    +0.000 C 
ATOM     20  C   UNL     1       3.581   3.633  17.080  0.00  0.00    +0.000 C 
ATOM     21  C   UNL     1       2.631   2.679  17.721  0.00  0.00    +0.000 C 
ENDBRANCH  15  19
ENDBRANCH   1  13
TORSDOF 4
ENDMDL
MODEL 8
REMARK VINA RESULT:      -6.4      4.519      8.666
REMARK  Name = 
REMARK  5 active torsions:
REMARK  status: ('A' for Active; 'I' for Inactive)
REMARK    1  A    between atoms: C_1  and  C_2
REMARK    2  A    between atoms: C_3  and  N_4
REMARK    3  A    between atoms: N_4  and  C_5
REMARK    4  A    between atoms: C_7  and  C_8
REMARK    5  A    between atoms: C_15  and  C_16
REMARK                            x       y       z     vdW  Elec       q    Type
REMARK                         _______ _______ _______ _____ _____    ______ ____
ROOT
ATOM      1  N   UNL     1       1.910   7.143  20.564  0.00  0.00    +0.000 N 
ATOM      2  H   UNL     1       2.592   6.767  21.236  0.00  0.00    +0.000 HD
ENDROOT
BRANCH   1   5
ATOM      3  C   UNL     1       2.175   4.093  19.648  0.00  0.00    +0.000 C 
ATOM      4  C   UNL     1       2.662   5.319  18.918  0.00  0.00    +0.000 A 
ATOM      5  C   UNL     1       2.361   6.647  19.294  0.00  0.00    +0.000 A 
ATOM      6  C   UNL     1       2.834   7.687  18.444  0.00  0.00    +0.000 A 
ATOM      7  C   UNL     1       3.722   7.466  17.390  0.00  0.00    +0.000 A 
ATOM      8  C   UNL     1       4.150   6.178  17.103  0.00  0.00    +0.000 A 
ATOM      9  C   UNL     1       3.589   5.111  17.830  0.00  0.00    +0.000 A 
ATOM     10 CL   UNL     1       4.136   3.495  17.454  0.00  0.00    +0.000 Cl
BRANCH   8  11
ATOM     11  C   UNL     1       5.181   6.008  16.111  0.00  0.00    +0.000 C 
ATOM     12  N   UNL     1       6.047   5.864  15.348  0.00  0.00    +0.000 NA
ENDBRANCH   8  11
ENDBRANCH   1   5
BRANCH   1  13
ATOM     13  C   UNL     1       1.214   8.172  21.121  0.00  0.00    +0.000 A 
ATOM     14  C   UNL     1       0.108   8.969  20.899  0.00  0.00    +0.000 A 
ATOM     15  C   UNL     1       0.247  10.037  21.839  0.00  0.00    +0.000 A 
ATOM     16  N   UNL     1       1.225   9.816  22.715  0.00  0.00    +0.000 NA
ATOM     17  N   UNL     1       1.746   8.667  22.301  0.00  0.00    +0.000 N 
ATOM     18  H   UNL     1       2.522   8.293  22.834  0.00  0.00    +0.000 HD
BRANCH  15  19
ATOM     19  C   UNL     1      -0.455  11.386  21.893  0.00  0.00    +0.000 C 
ATOM     20  C   UNL     1      -0.004  12.454  20.920  0.00  0.00    +0.000 C 
ATOM     21  C   UNL     1      -1.379  11.887  20.816  0.00  0.00    +0.000 C 
ENDBRANCH  15  19
ENDBRANCH   1  13
TORSDOF 4
ENDMDL
MODEL 9
REMARK VINA RESULT:      -6.4      5.043      8.709
REMARK  Name = 
REMARK  5 active torsions:
REMARK  status: ('A' for Active; 'I' for Inactive)
REMARK    1  A    between atoms: C_1  and  C_2
REMARK    2  A    between atoms: C_3  and  N_4
REMARK    3  A    between atoms: N_4  and  C_5
REMARK    4  A    between atoms: C_7  and  C_8
REMARK    5  A    between atoms: C_15  and  C_16
REMARK                            x       y       z     vdW  Elec       q    Type
REMARK                         _______ _______ _______ _____ _____    ______ ____
ROOT
ATOM      1  N   UNL     1       1.690   8.116  20.184  0.00  0.00    +0.000 N 
ATOM      2  H   UNL     1       1.615   8.574  19.266  0.00  0.00    +0.000 HD
ENDROOT
BRANCH   1   5
ATOM      3  C   UNL     1       3.650   7.340  17.783  0.00  0.00    +0.000 C 
ATOM      4  C   UNL     1       2.953   6.406  18.740  0.00  0.00    +0.000 A 
ATOM      5  C   UNL     1       2.237   6.822  19.885  0.00  0.00    +0.000 A 
ATOM      6  C   UNL     1       1.710   5.803  20.728  0.00  0.00    +0.000 A 
ATOM      7  C   UNL     1       1.703   4.452  20.379  0.00  0.00    +0.000 A 
ATOM      8  C   UNL     1       2.267   4.043  19.179  0.00  0.00    +0.000 A 
ATOM      9  C   UNL     1       2.927   5.005  18.390  0.00  0.00    +0.000 A 
ATOM     10 CL   UNL     1       3.636   4.474  16.885  0.00  0.00    +0.000 Cl
BRANCH   8  11
ATOM     11  C   UNL     1       2.105   2.668  18.782  0.00  0.00    +0.000 C 
ATOM     12  N   UNL     1       1.925   1.562  18.472  0.00  0.00    +0.000 NA
ENDBRANCH   8  11
ENDBRANCH   1   5
BRANCH   1  13
ATOM     13  C   UNL     1       0.917   8.760  21.100  0.00  0.00    +0.000 A 
ATOM     14  C   UNL     1      -0.313   9.374  21.232  0.00  0.00    +0.000 A 
ATOM     15  C   UNL     1      -0.229  10.078  22.473  0.00  0.00    +0.000 A 
ATOM     16  N   UNL     1       0.866   9.759  23.161  0.00  0.00    +0.000 NA
ATOM     17  N   UNL     1       1.502   8.925  22.346  0.00  0.00    +0.000 N 
ATOM     18  H   UNL     1       2.381   8.541  22.672  0.00  0.00    +0.000 HD
BRANCH  15  19
ATOM     19  C   UNL     1      -1.113  11.183  23.030  0.00  0.00    +0.000 C 
ATOM     20  C   UNL     1      -0.828  12.602  22.587  0.00  0.00    +0.000 C 
ATOM     21  C   UNL     1      -2.111  11.947  22.202  0.00  0.00    +0.000 C 
ENDBRANCH  15  19
ENDBRANCH   1  13
TORSDOF 4
ENDMDL
