MODEL 1
REMARK VINA RESULT:      -7.3      0.000      0.000
REMARK  Name = 
REMARK  6 active torsions:
REMARK  status: ('A' for Active; 'I' for Inactive)
REMARK    1  A    between atoms: C_1  and  C_2
REMARK    2  A    between atoms: C_2  and  O_4
REMARK    3  A    between atoms: O_4  and  C_5
REMARK    4  A    between atoms: C_5  and  C_6
REMARK    5  A    between atoms: C_8  and  C_9
REMARK    6  A    between atoms: C_9  and  C_10
REMARK                            x       y       z     vdW  Elec       q    Type
REMARK                         _______ _______ _______ _____ _____    ______ ____
ROOT
ATOM      1  C   UNL     1       5.480   4.444  16.797  0.00  0.00    +0.000 C 
ATOM      2  O   UNL     1       4.700   4.812  17.923  0.00  0.00    +0.000 OA
ATOM      3  C   UNL     1       4.062   6.083  17.950  0.00  0.00    +0.000 C 
ATOM      4  C   UNL     1       4.389   7.033  16.835  0.00  0.00    +0.000 C 
ATOM      5  C   UNL     1       5.052   6.729  15.720  0.00  0.00    +0.000 C 
ATOM      6  C   UNL     1       5.541   5.354  15.566  0.00  0.00    +0.000 C 
ATOM      7  O   UNL     1       5.998   5.005  14.481  0.00  0.00    +0.000 OA
ENDROOT
BRANCH   1   8
ATOM      8  C   UNL     1       6.903   4.197  17.319  0.00  0.00    +0.000 C 
BRANCH   8   9
ATOM      9  O   UNL     1       7.734   5.362  17.309  0.00  0.00    +0.000 OA
BRANCH   9  11
ATOM     10  C   UNL     1       7.950   7.519  18.191  0.00  0.00    +0.000 C 
ATOM     11  C   UNL     1       7.758   6.063  18.474  0.00  0.00    +0.000 C 
ATOM     12  O   UNL     1       7.668   5.579  19.592  0.00  0.00    +0.000 OA
ENDBRANCH   9  11
ENDBRANCH   8   9
ENDBRANCH   1   8
BRANCH   3  13
ATOM     13  C   UNL     1       2.539   5.885  18.113  0.00  0.00    +0.000 C 
BRANCH  13  14
ATOM     14  C   UNL     1       2.114   4.761  19.049  0.00  0.00    +0.000 C 
ATOM     15  C   UNL     1       1.366   3.734  18.622  0.00  0.00    +0.000 C 
ATOM     16  C   UNL     1       0.821   2.657  19.495  0.00  0.00    +0.000 C 
ATOM     17  C   UNL     1       1.221   2.681  20.965  0.00  0.00    +0.000 C 
ATOM     18  C   UNL     1       2.093   3.827  21.467  0.00  0.00    +0.000 C 
ATOM     19  C   UNL     1       2.502   4.927  20.490  0.00  0.00    +0.000 C 
ENDBRANCH  13  14
ENDBRANCH   3  13
TORSDOF 5
ENDMDL
MODEL 2
REMARK VINA RESULT:      -7.3      0.207      1.188
REMARK  Name = 
REMARK  6 active torsions:
REMARK  status: ('A' for Active; 'I' for Inactive)
REMARK    1  A    between atoms: C_1  and  C_2
REMARK    2  A    between atoms: C_2  and  O_4
REMARK    3  A    between atoms: O_4  and  C_5
REMARK    4  A    between atoms: C_5  and  C_6
REMARK    5  A    between atoms: C_8  and  C_9
REMARK    6  A    between atoms: C_9  and  C_10
REMARK                            x       y       z     vdW  Elec       q    Type
REMARK                         _______ _______ _______ _____ _____    ______ ____
ROOT
ATOM      1  C   UNL     1       5.610   4.509  16.719  0.00  0.00    +0.000 C 
ATOM      2  O   UNL     1       4.758   4.720  17.832  0.00  0.00    +0.000 OA
ATOM      3  C   UNL     1       4.045   5.946  17.948  0.00  0.00    +0.000 C 
ATOM      4  C   UNL     1       4.369   7.019  16.949  0.00  0.00    +0.000 C 
ATOM      5  C   UNL     1       5.101   6.864  15.847  0.00  0.00    +0.000 C 
ATOM      6  C   UNL     1       5.676   5.539  15.587  0.00  0.00    +0.000 C 
ATOM      7  O   UNL     1       6.203   5.325  14.498  0.00  0.00    +0.000 OA
ENDROOT
BRANCH   1   8
ATOM      8  C   UNL     1       7.019   4.288  17.289  0.00  0.00    +0.000 C 
BRANCH   8   9
ATOM      9  O   UNL     1       7.797   5.484  17.389  0.00  0.00    +0.000 OA
BRANCH   9  11
ATOM     10  C   UNL     1       8.139   7.532  18.471  0.00  0.00    +0.000 C 
ATOM     11  C   UNL     1       7.769   6.089  18.607  0.00  0.00    +0.000 C 
ATOM     12  O   UNL     1       7.511   5.536  19.665  0.00  0.00    +0.000 OA
ENDBRANCH   9  11
ENDBRANCH   8   9
ENDBRANCH   1   8
BRANCH   3  13
ATOM     13  C   UNL     1       2.531   5.651  18.011  0.00  0.00    +0.000 C 
BRANCH  13  14
ATOM     14  C   UNL     1       2.088   4.693  19.108  0.00  0.00    +0.000 C 
ATOM     15  C   UNL     1       2.448   4.872  20.386  0.00  0.00    +0.000 C 
ATOM     16  C   UNL     1       2.147   3.925  21.497  0.00  0.00    +0.000 C 
ATOM     17  C   UNL     1       1.290   2.709  21.164  0.00  0.00    +0.000 C 
ATOM     18  C   UNL     1       0.848   2.499  19.719  0.00  0.00    +0.000 C 
ATOM     19  C   UNL     1       1.310   3.492  18.654  0.00  0.00    +0.000 C 
ENDBRANCH  13  14
ENDBRANCH   3  13
TORSDOF 5
ENDMDL
MODEL 3
REMARK VINA RESULT:      -7.2      1.832      3.607
REMARK  Name = 
REMARK  6 active torsions:
REMARK  status: ('A' for Active; 'I' for Inactive)
REMARK    1  A    between atoms: C_1  and  C_2
REMARK    2  A    between atoms: C_2  and  O_4
REMARK    3  A    between atoms: O_4  and  C_5
REMARK    4  A    between atoms: C_5  and  C_6
REMARK    5  A    between atoms: C_8  and  C_9
REMARK    6  A    between atoms: C_9  and  C_10
REMARK                            x       y       z     vdW  Elec       q    Type
REMARK                         _______ _______ _______ _____ _____    ______ ____
ROOT
ATOM      1  C   UNL     1       6.028   5.496  15.552  0.00  0.00    +0.000 C 
ATOM      2  O   UNL     1       4.873   4.715  15.811  0.00  0.00    +0.000 OA
ATOM      3  C   UNL     1       4.602   4.281  17.139  0.00  0.00    +0.000 C 
ATOM      4  C   UNL     1       5.658   4.547  18.171  0.00  0.00    +0.000 C 
ATOM      5  C   UNL     1       6.725   5.329  18.012  0.00  0.00    +0.000 C 
ATOM      6  C   UNL     1       6.917   5.970  16.707  0.00  0.00    +0.000 C 
ATOM      7  O   UNL     1       7.788   6.827  16.589  0.00  0.00    +0.000 OA
ENDROOT
BRANCH   1   8
ATOM      8  C   UNL     1       6.875   4.695  14.553  0.00  0.00    +0.000 C 
BRANCH   8   9
ATOM      9  O   UNL     1       6.156   3.652  13.888  0.00  0.00    +0.000 OA
BRANCH   9  11
ATOM     10  C   UNL     1       4.944   3.212  11.935  0.00  0.00    +0.000 C 
ATOM     11  C   UNL     1       6.236   3.672  12.531  0.00  0.00    +0.000 C 
ATOM     12  O   UNL     1       7.225   3.989  11.886  0.00  0.00    +0.000 OA
ENDBRANCH   9  11
ENDBRANCH   8   9
ENDBRANCH   1   8
BRANCH   3  13
ATOM     13  C   UNL     1       3.218   4.810  17.575  0.00  0.00    +0.000 C 
BRANCH  13  14
ATOM     14  C   UNL     1       2.584   4.103  18.766  0.00  0.00    +0.000 C 
ATOM     15  C   UNL     1       1.887   2.967  18.620  0.00  0.00    +0.000 C 
ATOM     16  C   UNL     1       1.148   2.274  19.713  0.00  0.00    +0.000 C 
ATOM     17  C   UNL     1       1.271   2.858  21.116  0.00  0.00    +0.000 C 
ATOM     18  C   UNL     1       2.081   4.137  21.308  0.00  0.00    +0.000 C 
ATOM     19  C   UNL     1       2.706   4.805  20.086  0.00  0.00    +0.000 C 
ENDBRANCH  13  14
ENDBRANCH   3  13
TORSDOF 5
ENDMDL
MODEL 4
REMARK VINA RESULT:      -7.2      1.334      3.106
REMARK  Name = 
REMARK  6 active torsions:
REMARK  status: ('A' for Active; 'I' for Inactive)
REMARK    1  A    between atoms: C_1  and  C_2
REMARK    2  A    between atoms: C_2  and  O_4
REMARK    3  A    between atoms: O_4  and  C_5
REMARK    4  A    between atoms: C_5  and  C_6
REMARK    5  A    between atoms: C_8  and  C_9
REMARK    6  A    between atoms: C_9  and  C_10
REMARK                            x       y       z     vdW  Elec       q    Type
REMARK                         _______ _______ _______ _____ _____    ______ ____
ROOT
ATOM      1  C   UNL     1       6.121   6.371  17.741  0.00  0.00    +0.000 C 
ATOM      2  O   UNL     1       4.839   6.372  17.135  0.00  0.00    +0.000 OA
ATOM      3  C   UNL     1       3.985   5.245  17.297  0.00  0.00    +0.000 C 
ATOM      4  C   UNL     1       4.568   4.041  17.977  0.00  0.00    +0.000 C 
ATOM      5  C   UNL     1       5.732   3.998  18.625  0.00  0.00    +0.000 C 
ATOM      6  C   UNL     1       6.543   5.220  18.660  0.00  0.00    +0.000 C 
ATOM      7  O   UNL     1       7.527   5.257  19.393  0.00  0.00    +0.000 OA
ENDROOT
BRANCH   1   8
ATOM      8  C   UNL     1       7.138   6.509  16.599  0.00  0.00    +0.000 C 
BRANCH   8   9
ATOM      9  O   UNL     1       7.572   5.259  16.054  0.00  0.00    +0.000 OA
BRANCH   9  11
ATOM     10  C   UNL     1       6.124   4.108  14.620  0.00  0.00    +0.000 C 
ATOM     11  C   UNL     1       7.266   5.065  14.743  0.00  0.00    +0.000 C 
ATOM     12  O   UNL     1       7.854   5.570  13.799  0.00  0.00    +0.000 OA
ENDBRANCH   9  11
ENDBRANCH   8   9
ENDBRANCH   1   8
BRANCH   3  13
ATOM     13  C   UNL     1       2.663   5.698  17.953  0.00  0.00    +0.000 C 
BRANCH  13  14
ATOM     14  C   UNL     1       2.122   4.789  19.049  0.00  0.00    +0.000 C 
ATOM     15  C   UNL     1       2.455   4.963  20.336  0.00  0.00    +0.000 C 
ATOM     16  C   UNL     1       2.056   4.056  21.449  0.00  0.00    +0.000 C 
ATOM     17  C   UNL     1       1.129   2.896  21.105  0.00  0.00    +0.000 C 
ATOM     18  C   UNL     1       0.718   2.694  19.650  0.00  0.00    +0.000 C 
ATOM     19  C   UNL     1       1.278   3.637  18.587  0.00  0.00    +0.000 C 
ENDBRANCH  13  14
ENDBRANCH   3  13
TORSDOF 5
ENDMDL
MODEL 5
REMARK VINA RESULT:      -7.2      2.332      4.143
REMARK  Name = 
REMARK  6 active torsions:
REMARK  status: ('A' for Active; 'I' for Inactive)
REMARK    1  A    between atoms: C_1  and  C_2
REMARK    2  A    between atoms: C_2  and  O_4
REMARK    3  A    between atoms: O_4  and  C_5
REMARK    4  A    between atoms: C_5  and  C_6
REMARK    5  A    between atoms: C_8  and  C_9
REMARK    6  A    between atoms: C_9  and  C_10
REMARK                            x       y       z     vdW  Elec       q    Type
REMARK                         _______ _______ _______ _____ _____    ______ ____
ROOT
ATOM      1  C   UNL     1       5.736   4.545  14.651  0.00  0.00    +0.000 C 
ATOM      2  O   UNL     1       4.644   4.155  15.467  0.00  0.00    +0.000 OA
ATOM      3  C   UNL     1       4.779   4.185  16.883  0.00  0.00    +0.000 C 
ATOM      4  C   UNL     1       6.145   4.482  17.430  0.00  0.00    +0.000 C 
ATOM      5  C   UNL     1       7.188   4.921  16.728  0.00  0.00    +0.000 C 
ATOM      6  C   UNL     1       7.013   5.108  15.284  0.00  0.00    +0.000 C 
ATOM      7  O   UNL     1       7.898   5.674  14.647  0.00  0.00    +0.000 OA
ENDROOT
BRANCH   1   8
ATOM      8  C   UNL     1       6.090   3.323  13.790  0.00  0.00    +0.000 C 
BRANCH   8   9
ATOM      9  O   UNL     1       6.098   3.588  12.384  0.00  0.00    +0.000 OA
BRANCH   9  11
ATOM     10  C   UNL     1       4.063   3.265  11.274  0.00  0.00    +0.000 C 
ATOM     11  C   UNL     1       5.401   2.699  11.627  0.00  0.00    +0.000 C 
ATOM     12  O   UNL     1       5.791   1.586  11.305  0.00  0.00    +0.000 OA
ENDBRANCH   9  11
ENDBRANCH   8   9
ENDBRANCH   1   8
BRANCH   3  13
ATOM     13  C   UNL     1       3.702   5.118  17.478  0.00  0.00    +0.000 C 
BRANCH  13  14
ATOM     14  C   UNL     1       2.713   4.464  18.433  0.00  0.00    +0.000 C 
ATOM     15  C   UNL     1       2.049   3.347  18.102  0.00  0.00    +0.000 C 
ATOM     16  C   UNL     1       0.990   2.708  18.934  0.00  0.00    +0.000 C 
ATOM     17  C   UNL     1       0.709   3.325  20.300  0.00  0.00    +0.000 C 
ATOM     18  C   UNL     1       1.472   4.581  20.706  0.00  0.00    +0.000 C 
ATOM     19  C   UNL     1       2.461   5.197  19.718  0.00  0.00    +0.000 C 
ENDBRANCH  13  14
ENDBRANCH   3  13
TORSDOF 5
ENDMDL
MODEL 6
REMARK VINA RESULT:      -7.1      1.597      3.221
REMARK  Name = 
REMARK  6 active torsions:
REMARK  status: ('A' for Active; 'I' for Inactive)
REMARK    1  A    between atoms: C_1  and  C_2
REMARK    2  A    between atoms: C_2  and  O_4
REMARK    3  A    between atoms: O_4  and  C_5
REMARK    4  A    between atoms: C_5  and  C_6
REMARK    5  A    between atoms: C_8  and  C_9
REMARK    6  A    between atoms: C_9  and  C_10
REMARK                            x       y       z     vdW  Elec       q    Type
REMARK                         _______ _______ _______ _____ _____    ______ ____
ROOT
ATOM      1  C   UNL     1       5.403   6.638  16.971  0.00  0.00    +0.000 C 
ATOM      2  O   UNL     1       4.796   5.461  17.478  0.00  0.00    +0.000 OA
ATOM      3  C   UNL     1       5.555   4.573  18.290  0.00  0.00    +0.000 C 
ATOM      4  C   UNL     1       7.021   4.865  18.431  0.00  0.00    +0.000 C 
ATOM      5  C   UNL     1       7.635   5.981  18.043  0.00  0.00    +0.000 C 
ATOM      6  C   UNL     1       6.828   7.017  17.389  0.00  0.00    +0.000 C 
ATOM      7  O   UNL     1       7.330   8.118  17.182  0.00  0.00    +0.000 OA
ENDROOT
BRANCH   1   8
ATOM      8  C   UNL     1       5.331   6.537  15.441  0.00  0.00    +0.000 C 
BRANCH   8   9
ATOM      9  O   UNL     1       5.354   5.194  14.947  0.00  0.00    +0.000 OA
BRANCH   9  11
ATOM     10  C   UNL     1       6.231   3.749  13.329  0.00  0.00    +0.000 C 
ATOM     11  C   UNL     1       6.507   4.829  14.325  0.00  0.00    +0.000 C 
ATOM     12  O   UNL     1       7.614   5.289  14.562  0.00  0.00    +0.000 OA
ENDBRANCH   9  11
ENDBRANCH   8   9
ENDBRANCH   1   8
BRANCH   3  13
ATOM     13  C   UNL     1       4.862   4.418  19.661  0.00  0.00    +0.000 C 
BRANCH  13  14
ATOM     14  C   UNL     1       3.462   3.819  19.631  0.00  0.00    +0.000 C 
ATOM     15  C   UNL     1       3.190   2.700  18.943  0.00  0.00    +0.000 C 
ATOM     16  C   UNL     1       1.831   2.112  18.776  0.00  0.00    +0.000 C 
ATOM     17  C   UNL     1       0.683   2.788  19.517  0.00  0.00    +0.000 C 
ATOM     18  C   UNL     1       0.975   4.048  20.326  0.00  0.00    +0.000 C 
ATOM     19  C   UNL     1       2.396   4.607  20.334  0.00  0.00    +0.000 C 
ENDBRANCH  13  14
ENDBRANCH   3  13
TORSDOF 5
ENDMDL
MODEL 7
REMARK VINA RESULT:      -7.0      2.272      4.261
REMARK  Name = 
REMARK  6 active torsions:
REMARK  status: ('A' for Active; 'I' for Inactive)
REMARK    1  A    between atoms: C_1  and  C_2
REMARK    2  A    between atoms: C_2  and  O_4
REMARK    3  A    between atoms: O_4  and  C_5
REMARK    4  A    between atoms: C_5  and  C_6
REMARK    5  A    between atoms: C_8  and  C_9
REMARK    6  A    between atoms: C_9  and  C_10
REMARK                            x       y       z     vdW  Elec       q    Type
REMARK                         _______ _______ _______ _____ _____    ______ ____
ROOT
ATOM      1  C   UNL     1       5.655   4.623  14.776  0.00  0.00    +0.000 C 
ATOM      2  O   UNL     1       4.535   4.223  15.549  0.00  0.00    +0.000 OA
ATOM      3  C   UNL     1       4.633   4.201  16.968  0.00  0.00    +0.000 C 
ATOM      4  C   UNL     1       5.988   4.454  17.561  0.00  0.00    +0.000 C 
ATOM      5  C   UNL     1       7.058   4.900  16.903  0.00  0.00    +0.000 C 
ATOM      6  C   UNL     1       6.924   5.140  15.462  0.00  0.00    +0.000 C 
ATOM      7  O   UNL     1       7.835   5.713  14.869  0.00  0.00    +0.000 OA
ENDROOT
BRANCH   1   8
ATOM      8  C   UNL     1       6.012   3.426  13.882  0.00  0.00    +0.000 C 
BRANCH   8   9
ATOM      9  O   UNL     1       5.983   3.720  12.482  0.00  0.00    +0.000 OA
BRANCH   9  11
ATOM     10  C   UNL     1       5.920   1.640  11.411  0.00  0.00    +0.000 C 
ATOM     11  C   UNL     1       5.190   2.904  11.738  0.00  0.00    +0.000 C 
ATOM     12  O   UNL     1       4.058   3.169  11.361  0.00  0.00    +0.000 OA
ENDBRANCH   9  11
ENDBRANCH   8   9
ENDBRANCH   1   8
BRANCH   3  13
ATOM     13  C   UNL     1       3.556   5.131  17.568  0.00  0.00    +0.000 C 
BRANCH  13  14
ATOM     14  C   UNL     1       2.683   4.519  18.655  0.00  0.00    +0.000 C 
ATOM     15  C   UNL     1       2.824   4.857  19.944  0.00  0.00    +0.000 C 
ATOM     16  C   UNL     1       2.086   4.228  21.076  0.00  0.00    +0.000 C 
ATOM     17  C   UNL     1       1.031   3.185  20.726  0.00  0.00    +0.000 C 
ATOM     18  C   UNL     1       0.837   2.803  19.262  0.00  0.00    +0.000 C 
ATOM     19  C   UNL     1       1.730   3.450  18.205  0.00  0.00    +0.000 C 
ENDBRANCH  13  14
ENDBRANCH   3  13
TORSDOF 5
ENDMDL
MODEL 8
REMARK VINA RESULT:      -6.9      1.721      3.542
REMARK  Name = 
REMARK  6 active torsions:
REMARK  status: ('A' for Active; 'I' for Inactive)
REMARK    1  A    between atoms: C_1  and  C_2
REMARK    2  A    between atoms: C_2  and  O_4
REMARK    3  A    between atoms: O_4  and  C_5
REMARK    4  A    between atoms: C_5  and  C_6
REMARK    5  A    between atoms: C_8  and  C_9
REMARK    6  A    between atoms: C_9  and  C_10
REMARK                            x       y       z     vdW  Elec       q    Type
REMARK                         _______ _______ _______ _____ _____    ______ ____
ROOT
ATOM      1  C   UNL     1       6.053   5.776  15.739  0.00  0.00    +0.000 C 
ATOM      2  O   UNL     1       4.922   4.969  16.024  0.00  0.00    +0.000 OA
ATOM      3  C   UNL     1       4.611   4.648  17.375  0.00  0.00    +0.000 C 
ATOM      4  C   UNL     1       5.608   5.058  18.419  0.00  0.00    +0.000 C 
ATOM      5  C   UNL     1       6.646   5.871  18.230  0.00  0.00    +0.000 C 
ATOM      6  C   UNL     1       6.869   6.396  16.878  0.00  0.00    +0.000 C 
ATOM      7  O   UNL     1       7.707   7.279  16.715  0.00  0.00    +0.000 OA
ENDROOT
BRANCH   1   8
ATOM      8  C   UNL     1       6.977   4.926  14.855  0.00  0.00    +0.000 C 
BRANCH   8   9
ATOM      9  O   UNL     1       6.340   3.780  14.283  0.00  0.00    +0.000 OA
BRANCH   9  11
ATOM     10  C   UNL     1       7.388   4.584  12.352  0.00  0.00    +0.000 C 
ATOM     11  C   UNL     1       6.266   3.780  12.925  0.00  0.00    +0.000 C 
ATOM     12  O   UNL     1       5.396   3.232  12.265  0.00  0.00    +0.000 OA
ENDBRANCH   9  11
ENDBRANCH   8   9
ENDBRANCH   1   8
BRANCH   3  13
ATOM     13  C   UNL     1       3.188   5.150  17.703  0.00  0.00    +0.000 C 
BRANCH  13  14
ATOM     14  C   UNL     1       2.479   4.432  18.843  0.00  0.00    +0.000 C 
ATOM     15  C   UNL     1       2.645   4.803  20.120  0.00  0.00    +0.000 C 
ATOM     16  C   UNL     1       2.074   4.088  21.297  0.00  0.00    +0.000 C 
ATOM     17  C   UNL     1       1.163   2.899  21.015  0.00  0.00    +0.000 C 
ATOM     18  C   UNL     1       0.940   2.475  19.566  0.00  0.00    +0.000 C 
ATOM     19  C   UNL     1       1.665   3.232  18.455  0.00  0.00    +0.000 C 
ENDBRANCH  13  14
ENDBRANCH   3  13
TORSDOF 5
ENDMDL
MODEL 9
REMARK VINA RESULT:      -6.9      1.839      3.436
REMARK  Name = 
REMARK  6 active torsions:
REMARK  status: ('A' for Active; 'I' for Inactive)
REMARK    1  A    between atoms: C_1  and  C_2
REMARK    2  A    between atoms: C_2  and  O_4
REMARK    3  A    between atoms: O_4  and  C_5
REMARK    4  A    between atoms: C_5  and  C_6
REMARK    5  A    between atoms: C_8  and  C_9
REMARK    6  A    between atoms: C_9  and  C_10
REMARK                            x       y       z     vdW  Elec       q    Type
REMARK                         _______ _______ _______ _____ _____    ______ ____
ROOT
ATOM      1  C   UNL     1       6.011   5.764  15.764  0.00  0.00    +0.000 C 
ATOM      2  O   UNL     1       4.835   5.054  16.115  0.00  0.00    +0.000 OA
ATOM      3  C   UNL     1       4.586   4.740  17.480  0.00  0.00    +0.000 C 
ATOM      4  C   UNL     1       5.680   5.046  18.460  0.00  0.00    +0.000 C 
ATOM      5  C   UNL     1       6.771   5.769  18.211  0.00  0.00    +0.000 C 
ATOM      6  C   UNL     1       6.950   6.295  16.853  0.00  0.00    +0.000 C 
ATOM      7  O   UNL     1       7.850   7.104  16.644  0.00  0.00    +0.000 OA
ENDROOT
BRANCH   1   8
ATOM      8  C   UNL     1       6.799   4.852  14.813  0.00  0.00    +0.000 C 
BRANCH   8   9
ATOM      9  O   UNL     1       7.890   5.504  14.156  0.00  0.00    +0.000 OA
BRANCH   9  11
ATOM     10  C   UNL     1       7.130   4.239  12.339  0.00  0.00    +0.000 C 
ATOM     11  C   UNL     1       7.849   5.467  12.797  0.00  0.00    +0.000 C 
ATOM     12  O   UNL     1       8.351   6.296  12.052  0.00  0.00    +0.000 OA
ENDBRANCH   9  11
ENDBRANCH   8   9
ENDBRANCH   1   8
BRANCH   3  13
ATOM     13  C   UNL     1       3.236   5.357  17.907  0.00  0.00    +0.000 C 
BRANCH  13  14
ATOM     14  C   UNL     1       2.454   4.579  18.956  0.00  0.00    +0.000 C 
ATOM     15  C   UNL     1       2.605   4.816  20.267  0.00  0.00    +0.000 C 
ATOM     16  C   UNL     1       1.960   4.029  21.355  0.00  0.00    +0.000 C 
ATOM     17  C   UNL     1       0.988   2.930  20.939  0.00  0.00    +0.000 C 
ATOM     18  C   UNL     1       0.782   2.660  19.452  0.00  0.00    +0.000 C 
ATOM     19  C   UNL     1       1.582   3.473  18.436  0.00  0.00    +0.000 C 
ENDBRANCH  13  14
ENDBRANCH   3  13
TORSDOF 5
ENDMDL
