MODEL 1
REMARK VINA RESULT:      -9.2      0.000      0.000
REMARK  Name = 
REMARK  5 active torsions:
REMARK  status: ('A' for Active; 'I' for Inactive)
REMARK    1  A    between atoms: C_5  and  S_6
REMARK    2  A    between atoms: S_6  and  N_9
REMARK    3  A    between atoms: N_9  and  C_10
REMARK    4  A    between atoms: C_15  and  C_16
REMARK    5  A    between atoms: N_18  and  C_19
REMARK                            x       y       z     vdW  Elec       q    Type
REMARK                         _______ _______ _______ _____ _____    ______ ____
ROOT
ATOM      1  C   UNL     1       3.368   4.189  17.935  0.00  0.00    +0.000 A 
ATOM      2  C   UNL     1       3.400   2.813  17.677  0.00  0.00    +0.000 A 
ATOM      3  C   UNL     1       2.405   1.973  18.177  0.00  0.00    +0.000 A 
ATOM      4  C   UNL     1       1.369   2.501  18.942  0.00  0.00    +0.000 A 
ATOM      5  C   UNL     1       1.341   3.867  19.229  0.00  0.00    +0.000 A 
ATOM      6  C   UNL     1       2.336   4.729  18.738  0.00  0.00    +0.000 A 
ENDROOT
BRANCH   6   7
ATOM      7  C   UNL     1       2.230   6.139  19.065  0.00  0.00    +0.000 A 
ATOM      8  C   UNL     1       1.752   6.667  20.238  0.00  0.00    +0.000 A 
ATOM      9  N   UNL     1       1.634   8.011  19.990  0.00  0.00    +0.000 N 
ATOM     10  N   UNL     1       2.247   8.306  18.815  0.00  0.00    +0.000 NA
ATOM     11  N   UNL     1       2.597   7.163  18.235  0.00  0.00    +0.000 NA
BRANCH   9  12
ATOM     12  C   UNL     1       0.952   8.977  20.770  0.00  0.00    +0.000 A 
ATOM     13  C   UNL     1       0.661  10.244  20.238  0.00  0.00    +0.000 A 
ATOM     14  C   UNL     1       0.045  11.211  21.031  0.00  0.00    +0.000 A 
ATOM     15  C   UNL     1      -0.280  10.924  22.354  0.00  0.00    +0.000 A 
ATOM     16  C   UNL     1       0.003   9.666  22.884  0.00  0.00    +0.000 A 
ATOM     17  C   UNL     1       0.616   8.688  22.097  0.00  0.00    +0.000 A 
ENDBRANCH   9  12
ENDBRANCH   6   7
BRANCH   1  18
ATOM     18  N   UNL     1       4.417   4.988  17.358  0.00  0.00    +0.000 N 
ATOM     19  H   UNL     1       4.354   5.127  16.345  0.00  0.00    +0.000 HD
BRANCH  18  20
ATOM     20  S   UNL     1       6.033   4.639  17.776  0.00  0.00    +0.000 S 
ATOM     21  O   UNL     1       6.618   3.880  16.689  0.00  0.00    +0.000 OA
ATOM     22  O   UNL     1       5.953   4.026  19.089  0.00  0.00    +0.000 OA
BRANCH  20  27
ATOM     23  O   UNL     1       8.872   9.625  18.240  0.00  0.00    +0.000 OA
ATOM     24  C   UNL     1       8.226   8.588  18.159  0.00  0.00    +0.000 A 
ATOM     25  N   UNL     1       8.504   7.490  18.929  0.00  0.00    +0.000 N 
ATOM     26  C   UNL     1       7.829   6.298  18.828  0.00  0.00    +0.000 A 
ATOM     27  C   UNL     1       6.855   6.141  17.925  0.00  0.00    +0.000 A 
ATOM     28  C   UNL     1       6.522   7.261  17.035  0.00  0.00    +0.000 A 
ATOM     29  O   UNL     1       5.755   7.139  16.084  0.00  0.00    +0.000 OA
ATOM     30  N   UNL     1       7.190   8.436  17.277  0.00  0.00    +0.000 N 
ATOM     31  H   UNL     1       9.262   7.596  19.597  0.00  0.00    +0.000 HD
ATOM     32  H   UNL     1       7.001   9.218  16.667  0.00  0.00    +0.000 HD
ENDBRANCH  20  27
ENDBRANCH  18  20
ENDBRANCH   1  18
TORSDOF 5
ENDMDL
MODEL 2
REMARK VINA RESULT:      -9.1      0.651      1.103
REMARK  Name = 
REMARK  5 active torsions:
REMARK  status: ('A' for Active; 'I' for Inactive)
REMARK    1  A    between atoms: C_5  and  S_6
REMARK    2  A    between atoms: S_6  and  N_9
REMARK    3  A    between atoms: N_9  and  C_10
REMARK    4  A    between atoms: C_15  and  C_16
REMARK    5  A    between atoms: N_18  and  C_19
REMARK                            x       y       z     vdW  Elec       q    Type
REMARK                         _______ _______ _______ _____ _____    ______ ____
ROOT
ATOM      1  C   UNL     1       2.953   4.244  18.635  0.00  0.00    +0.000 A 
ATOM      2  C   UNL     1       2.957   2.851  18.494  0.00  0.00    +0.000 A 
ATOM      3  C   UNL     1       2.036   2.065  19.187  0.00  0.00    +0.000 A 
ATOM      4  C   UNL     1       1.105   2.665  20.030  0.00  0.00    +0.000 A 
ATOM      5  C   UNL     1       1.110   4.050  20.201  0.00  0.00    +0.000 A 
ATOM      6  C   UNL     1       2.031   4.860  19.514  0.00  0.00    +0.000 A 
ENDROOT
BRANCH   6   7
ATOM      7  C   UNL     1       1.964   6.292  19.731  0.00  0.00    +0.000 A 
ATOM      8  C   UNL     1       1.498   6.923  20.857  0.00  0.00    +0.000 A 
ATOM      9  N   UNL     1       1.418   8.246  20.505  0.00  0.00    +0.000 N 
ATOM     10  N   UNL     1       2.043   8.433  19.313  0.00  0.00    +0.000 NA
ATOM     11  N   UNL     1       2.362   7.238  18.825  0.00  0.00    +0.000 NA
BRANCH   9  12
ATOM     12  C   UNL     1       0.762   9.289  21.204  0.00  0.00    +0.000 A 
ATOM     13  C   UNL     1       0.045   9.016  22.381  0.00  0.00    +0.000 A 
ATOM     14  C   UNL     1      -0.648  10.036  23.031  0.00  0.00    +0.000 A 
ATOM     15  C   UNL     1      -0.634  11.328  22.513  0.00  0.00    +0.000 A 
ATOM     16  C   UNL     1       0.082  11.605  21.348  0.00  0.00    +0.000 A 
ATOM     17  C   UNL     1       0.783  10.590  20.691  0.00  0.00    +0.000 A 
ENDBRANCH   9  12
ENDBRANCH   6   7
BRANCH   1  18
ATOM     18  N   UNL     1       3.917   4.983  17.862  0.00  0.00    +0.000 N 
ATOM     19  H   UNL     1       3.655   5.158  16.888  0.00  0.00    +0.000 HD
BRANCH  18  20
ATOM     20  S   UNL     1       5.554   4.505  17.925  0.00  0.00    +0.000 S 
ATOM     21  O   UNL     1       5.847   3.770  16.711  0.00  0.00    +0.000 OA
ATOM     22  O   UNL     1       5.693   3.826  19.201  0.00  0.00    +0.000 OA
BRANCH  20  27
ATOM     23  O   UNL     1       8.808   9.252  18.018  0.00  0.00    +0.000 OA
ATOM     24  C   UNL     1       8.076   8.270  18.016  0.00  0.00    +0.000 A 
ATOM     25  N   UNL     1       8.284   7.199  18.843  0.00  0.00    +0.000 N 
ATOM     26  C   UNL     1       7.510   6.065  18.831  0.00  0.00    +0.000 A 
ATOM     27  C   UNL     1       6.501   5.938  17.963  0.00  0.00    +0.000 A 
ATOM     28  C   UNL     1       6.235   7.029  17.015  0.00  0.00    +0.000 A 
ATOM     29  O   UNL     1       5.434   6.917  16.093  0.00  0.00    +0.000 OA
ATOM     30  N   UNL     1       7.005   8.155  17.170  0.00  0.00    +0.000 N 
ATOM     31  H   UNL     1       9.068   7.279  19.485  0.00  0.00    +0.000 HD
ATOM     32  H   UNL     1       6.863   8.913  16.519  0.00  0.00    +0.000 HD
ENDBRANCH  20  27
ENDBRANCH  18  20
ENDBRANCH   1  18
TORSDOF 5
ENDMDL
MODEL 3
REMARK VINA RESULT:      -9.1      0.784      1.680
REMARK  Name = 
REMARK  5 active torsions:
REMARK  status: ('A' for Active; 'I' for Inactive)
REMARK    1  A    between atoms: C_5  and  S_6
REMARK    2  A    between atoms: S_6  and  N_9
REMARK    3  A    between atoms: N_9  and  C_10
REMARK    4  A    between atoms: C_15  and  C_16
REMARK    5  A    between atoms: N_18  and  C_19
REMARK                            x       y       z     vdW  Elec       q    Type
REMARK                         _______ _______ _______ _____ _____    ______ ____
ROOT
ATOM      1  C   UNL     1       3.793   3.883  18.752  0.00  0.00    +0.000 A 
ATOM      2  C   UNL     1       3.847   2.505  18.507  0.00  0.00    +0.000 A 
ATOM      3  C   UNL     1       2.674   1.760  18.379  0.00  0.00    +0.000 A 
ATOM      4  C   UNL     1       1.436   2.386  18.498  0.00  0.00    +0.000 A 
ATOM      5  C   UNL     1       1.371   3.753  18.771  0.00  0.00    +0.000 A 
ATOM      6  C   UNL     1       2.540   4.521  18.906  0.00  0.00    +0.000 A 
ENDROOT
BRANCH   6   7
ATOM      7  C   UNL     1       2.390   5.939  19.173  0.00  0.00    +0.000 A 
ATOM      8  C   UNL     1       1.903   6.503  20.325  0.00  0.00    +0.000 A 
ATOM      9  N   UNL     1       1.739   7.829  20.020  0.00  0.00    +0.000 N 
ATOM     10  N   UNL     1       2.334   8.093  18.828  0.00  0.00    +0.000 NA
ATOM     11  N   UNL     1       2.718   6.937  18.295  0.00  0.00    +0.000 NA
BRANCH   9  12
ATOM     12  C   UNL     1       1.032   8.806  20.763  0.00  0.00    +0.000 A 
ATOM     13  C   UNL     1       1.028   8.768  22.168  0.00  0.00    +0.000 A 
ATOM     14  C   UNL     1       0.281   9.696  22.891  0.00  0.00    +0.000 A 
ATOM     15  C   UNL     1      -0.467  10.662  22.223  0.00  0.00    +0.000 A 
ATOM     16  C   UNL     1      -0.463  10.706  20.829  0.00  0.00    +0.000 A 
ATOM     17  C   UNL     1       0.287   9.783  20.095  0.00  0.00    +0.000 A 
ENDBRANCH   9  12
ENDBRANCH   6   7
BRANCH   1  18
ATOM     18  N   UNL     1       5.048   4.582  18.841  0.00  0.00    +0.000 N 
ATOM     19  H   UNL     1       5.062   5.376  19.488  0.00  0.00    +0.000 HD
BRANCH  18  20
ATOM     20  S   UNL     1       5.842   5.022  17.397  0.00  0.00    +0.000 S 
ATOM     21  O   UNL     1       4.829   5.400  16.432  0.00  0.00    +0.000 OA
ATOM     22  O   UNL     1       6.709   3.898  17.092  0.00  0.00    +0.000 OA
BRANCH  20  27
ATOM     23  O   UNL     1       9.046   9.645  18.618  0.00  0.00    +0.000 OA
ATOM     24  C   UNL     1       8.407   8.637  18.343  0.00  0.00    +0.000 A 
ATOM     25  N   UNL     1       7.473   8.614  17.342  0.00  0.00    +0.000 N 
ATOM     26  C   UNL     1       6.707   7.513  17.041  0.00  0.00    +0.000 A 
ATOM     27  C   UNL     1       6.824   6.387  17.752  0.00  0.00    +0.000 A 
ATOM     28  C   UNL     1       7.779   6.344  18.867  0.00  0.00    +0.000 A 
ATOM     29  O   UNL     1       7.826   5.405  19.656  0.00  0.00    +0.000 OA
ATOM     30  N   UNL     1       8.560   7.462  19.028  0.00  0.00    +0.000 N 
ATOM     31  H   UNL     1       7.361   9.477  16.818  0.00  0.00    +0.000 HD
ATOM     32  H   UNL     1       9.210   7.473  19.800  0.00  0.00    +0.000 HD
ENDBRANCH  20  27
ENDBRANCH  18  20
ENDBRANCH   1  18
TORSDOF 5
ENDMDL
MODEL 4
REMARK VINA RESULT:      -8.9      0.646      1.251
REMARK  Name = 
REMARK  5 active torsions:
REMARK  status: ('A' for Active; 'I' for Inactive)
REMARK    1  A    between atoms: C_5  and  S_6
REMARK    2  A    between atoms: S_6  and  N_9
REMARK    3  A    between atoms: N_9  and  C_10
REMARK    4  A    between atoms: C_15  and  C_16
REMARK    5  A    between atoms: N_18  and  C_19
REMARK                            x       y       z     vdW  Elec       q    Type
REMARK                         _______ _______ _______ _____ _____    ______ ____
ROOT
ATOM      1  C   UNL     1       3.430   4.284  17.701  0.00  0.00    +0.000 A 
ATOM      2  C   UNL     1       3.458   2.918  17.396  0.00  0.00    +0.000 A 
ATOM      3  C   UNL     1       2.444   2.069  17.842  0.00  0.00    +0.000 A 
ATOM      4  C   UNL     1       1.394   2.580  18.600  0.00  0.00    +0.000 A 
ATOM      5  C   UNL     1       1.370   3.934  18.935  0.00  0.00    +0.000 A 
ATOM      6  C   UNL     1       2.383   4.805  18.497  0.00  0.00    +0.000 A 
ENDROOT
BRANCH   6   7
ATOM      7  C   UNL     1       2.281   6.203  18.872  0.00  0.00    +0.000 A 
ATOM      8  C   UNL     1       1.818   6.693  20.067  0.00  0.00    +0.000 A 
ATOM      9  N   UNL     1       1.695   8.043  19.864  0.00  0.00    +0.000 N 
ATOM     10  N   UNL     1       2.292   8.378  18.691  0.00  0.00    +0.000 NA
ATOM     11  N   UNL     1       2.636   7.254  18.070  0.00  0.00    +0.000 NA
BRANCH   9  12
ATOM     12  C   UNL     1       1.024   8.984  20.684  0.00  0.00    +0.000 A 
ATOM     13  C   UNL     1       0.802  10.295  20.230  0.00  0.00    +0.000 A 
ATOM     14  C   UNL     1       0.195  11.231  21.064  0.00  0.00    +0.000 A 
ATOM     15  C   UNL     1      -0.190  10.871  22.353  0.00  0.00    +0.000 A 
ATOM     16  C   UNL     1       0.024   9.569  22.806  0.00  0.00    +0.000 A 
ATOM     17  C   UNL     1       0.627   8.621  21.976  0.00  0.00    +0.000 A 
ENDBRANCH   9  12
ENDBRANCH   6   7
BRANCH   1  18
ATOM     18  N   UNL     1       4.498   5.094  17.177  0.00  0.00    +0.000 N 
ATOM     19  H   UNL     1       4.461   5.268  16.168  0.00  0.00    +0.000 HD
BRANCH  18  20
ATOM     20  S   UNL     1       6.102   4.717  17.622  0.00  0.00    +0.000 S 
ATOM     21  O   UNL     1       6.708   3.996  16.521  0.00  0.00    +0.000 OA
ATOM     22  O   UNL     1       5.984   4.055  18.908  0.00  0.00    +0.000 OA
BRANCH  20  27
ATOM     23  O   UNL     1       8.786   9.746  18.416  0.00  0.00    +0.000 OA
ATOM     24  C   UNL     1       8.260   8.657  18.230  0.00  0.00    +0.000 A 
ATOM     25  N   UNL     1       7.269   8.472  17.303  0.00  0.00    +0.000 N 
ATOM     26  C   UNL     1       6.626   7.274  17.103  0.00  0.00    +0.000 A 
ATOM     27  C   UNL     1       6.929   6.206  17.848  0.00  0.00    +0.000 A 
ATOM     28  C   UNL     1       7.957   6.333  18.891  0.00  0.00    +0.000 A 
ATOM     29  O   UNL     1       8.173   5.446  19.711  0.00  0.00    +0.000 OA
ATOM     30  N   UNL     1       8.603   7.543  18.948  0.00  0.00    +0.000 N 
ATOM     31  H   UNL     1       7.015   9.289  16.754  0.00  0.00    +0.000 HD
ATOM     32  H   UNL     1       9.298   7.670  19.669  0.00  0.00    +0.000 HD
ENDBRANCH  20  27
ENDBRANCH  18  20
ENDBRANCH   1  18
TORSDOF 5
ENDMDL
MODEL 5
REMARK VINA RESULT:      -8.7      3.048      5.233
REMARK  Name = 
REMARK  5 active torsions:
REMARK  status: ('A' for Active; 'I' for Inactive)
REMARK    1  A    between atoms: C_5  and  S_6
REMARK    2  A    between atoms: S_6  and  N_9
REMARK    3  A    between atoms: N_9  and  C_10
REMARK    4  A    between atoms: C_15  and  C_16
REMARK    5  A    between atoms: N_18  and  C_19
REMARK                            x       y       z     vdW  Elec       q    Type
REMARK                         _______ _______ _______ _____ _____    ______ ____
ROOT
ATOM      1  C   UNL     1       5.111   4.410  16.951  0.00  0.00    +0.000 A 
ATOM      2  C   UNL     1       5.909   4.080  15.848  0.00  0.00    +0.000 A 
ATOM      3  C   UNL     1       6.186   5.029  14.863  0.00  0.00    +0.000 A 
ATOM      4  C   UNL     1       5.665   6.316  14.971  0.00  0.00    +0.000 A 
ATOM      5  C   UNL     1       4.845   6.647  16.051  0.00  0.00    +0.000 A 
ATOM      6  C   UNL     1       4.551   5.705  17.052  0.00  0.00    +0.000 A 
ENDROOT
BRANCH   6   7
ATOM      7  C   UNL     1       3.705   6.129  18.151  0.00  0.00    +0.000 A 
ATOM      8  C   UNL     1       2.704   7.065  18.092  0.00  0.00    +0.000 A 
ATOM      9  N   UNL     1       2.358   7.287  19.400  0.00  0.00    +0.000 N 
ATOM     10  N   UNL     1       2.947   6.348  20.185  0.00  0.00    +0.000 NA
ATOM     11  N   UNL     1       3.788   5.649  19.430  0.00  0.00    +0.000 NA
BRANCH   9  12
ATOM     12  C   UNL     1       1.560   8.337  19.918  0.00  0.00    +0.000 A 
ATOM     13  C   UNL     1       1.198   9.424  19.105  0.00  0.00    +0.000 A 
ATOM     14  C   UNL     1       0.464  10.482  19.637  0.00  0.00    +0.000 A 
ATOM     15  C   UNL     1       0.090  10.467  20.978  0.00  0.00    +0.000 A 
ATOM     16  C   UNL     1       0.444   9.387  21.788  0.00  0.00    +0.000 A 
ATOM     17  C   UNL     1       1.176   8.319  21.263  0.00  0.00    +0.000 A 
ENDBRANCH   9  12
ENDBRANCH   6   7
BRANCH   1  18
ATOM     18  N   UNL     1       4.898   3.382  17.935  0.00  0.00    +0.000 N 
ATOM     19  H   UNL     1       5.707   2.782  18.124  0.00  0.00    +0.000 HD
BRANCH  18  20
ATOM     20  S   UNL     1       3.499   2.412  17.815  0.00  0.00    +0.000 S 
ATOM     21  O   UNL     1       3.925   1.051  17.561  0.00  0.00    +0.000 OA
ATOM     22  O   UNL     1       2.670   3.078  16.826  0.00  0.00    +0.000 OA
BRANCH  20  27
ATOM     23  O   UNL     1       0.775   2.557  22.883  0.00  0.00    +0.000 OA
ATOM     24  C   UNL     1       1.376   2.572  21.816  0.00  0.00    +0.000 A 
ATOM     25  N   UNL     1       0.728   2.645  20.612  0.00  0.00    +0.000 N 
ATOM     26  C   UNL     1       1.370   2.616  19.398  0.00  0.00    +0.000 A 
ATOM     27  C   UNL     1       2.699   2.483  19.334  0.00  0.00    +0.000 A 
ATOM     28  C   UNL     1       3.464   2.361  20.582  0.00  0.00    +0.000 A 
ATOM     29  O   UNL     1       4.658   2.080  20.595  0.00  0.00    +0.000 OA
ATOM     30  N   UNL     1       2.741   2.494  21.741  0.00  0.00    +0.000 N 
ATOM     31  H   UNL     1      -0.285   2.717  20.656  0.00  0.00    +0.000 HD
ATOM     32  H   UNL     1       3.233   2.392  22.616  0.00  0.00    +0.000 HD
ENDBRANCH  20  27
ENDBRANCH  18  20
ENDBRANCH   1  18
TORSDOF 5
ENDMDL
MODEL 6
REMARK VINA RESULT:      -8.7      1.986      2.814
REMARK  Name = 
REMARK  5 active torsions:
REMARK  status: ('A' for Active; 'I' for Inactive)
REMARK    1  A    between atoms: C_5  and  S_6
REMARK    2  A    between atoms: S_6  and  N_9
REMARK    3  A    between atoms: N_9  and  C_10
REMARK    4  A    between atoms: C_15  and  C_16
REMARK    5  A    between atoms: N_18  and  C_19
REMARK                            x       y       z     vdW  Elec       q    Type
REMARK                         _______ _______ _______ _____ _____    ______ ____
ROOT
ATOM      1  C   UNL     1       2.780   4.305  18.785  0.00  0.00    +0.000 A 
ATOM      2  C   UNL     1       2.858   2.907  18.737  0.00  0.00    +0.000 A 
ATOM      3  C   UNL     1       2.178   2.125  19.670  0.00  0.00    +0.000 A 
ATOM      4  C   UNL     1       1.416   2.733  20.664  0.00  0.00    +0.000 A 
ATOM      5  C   UNL     1       1.354   4.125  20.740  0.00  0.00    +0.000 A 
ATOM      6  C   UNL     1       2.033   4.932  19.811  0.00  0.00    +0.000 A 
ENDROOT
BRANCH   6   7
ATOM      7  C   UNL     1       1.907   6.370  19.945  0.00  0.00    +0.000 A 
ATOM      8  C   UNL     1       1.409   7.045  21.031  0.00  0.00    +0.000 A 
ATOM      9  N   UNL     1       1.278   8.341  20.604  0.00  0.00    +0.000 N 
ATOM     10  N   UNL     1       1.902   8.485  19.406  0.00  0.00    +0.000 NA
ATOM     11  N   UNL     1       2.272   7.279  18.988  0.00  0.00    +0.000 NA
BRANCH   9  12
ATOM     12  C   UNL     1       0.576   9.395  21.241  0.00  0.00    +0.000 A 
ATOM     13  C   UNL     1       0.649  10.705  20.738  0.00  0.00    +0.000 A 
ATOM     14  C   UNL     1       0.006  11.746  21.403  0.00  0.00    +0.000 A 
ATOM     15  C   UNL     1      -0.708  11.492  22.571  0.00  0.00    +0.000 A 
ATOM     16  C   UNL     1      -0.787  10.192  23.071  0.00  0.00    +0.000 A 
ATOM     17  C   UNL     1      -0.149   9.140  22.409  0.00  0.00    +0.000 A 
ENDBRANCH   9  12
ENDBRANCH   6   7
BRANCH   1  18
ATOM     18  N   UNL     1       3.487   5.036  17.768  0.00  0.00    +0.000 N 
ATOM     19  H   UNL     1       3.240   4.795  16.803  0.00  0.00    +0.000 HD
BRANCH  18  20
ATOM     20  S   UNL     1       5.183   5.177  17.892  0.00  0.00    +0.000 S 
ATOM     21  O   UNL     1       5.651   4.123  18.770  0.00  0.00    +0.000 OA
ATOM     22  O   UNL     1       5.414   6.557  18.277  0.00  0.00    +0.000 OA
BRANCH  20  27
ATOM     23  O   UNL     1       7.271   4.414  12.583  0.00  0.00    +0.000 OA
ATOM     24  C   UNL     1       6.867   4.550  13.731  0.00  0.00    +0.000 A 
ATOM     25  N   UNL     1       5.694   3.991  14.164  0.00  0.00    +0.000 N 
ATOM     26  C   UNL     1       5.191   4.164  15.431  0.00  0.00    +0.000 A 
ATOM     27  C   UNL     1       5.830   4.933  16.319  0.00  0.00    +0.000 A 
ATOM     28  C   UNL     1       7.077   5.598  15.918  0.00  0.00    +0.000 A 
ATOM     29  O   UNL     1       7.630   6.437  16.623  0.00  0.00    +0.000 OA
ATOM     30  N   UNL     1       7.543   5.288  14.665  0.00  0.00    +0.000 N 
ATOM     31  H   UNL     1       5.190   3.430  13.484  0.00  0.00    +0.000 HD
ATOM     32  H   UNL     1       8.386   5.746  14.350  0.00  0.00    +0.000 HD
ENDBRANCH  20  27
ENDBRANCH  18  20
ENDBRANCH   1  18
TORSDOF 5
ENDMDL
MODEL 7
REMARK VINA RESULT:      -8.7      2.201      2.695
REMARK  Name = 
REMARK  5 active torsions:
REMARK  status: ('A' for Active; 'I' for Inactive)
REMARK    1  A    between atoms: C_5  and  S_6
REMARK    2  A    between atoms: S_6  and  N_9
REMARK    3  A    between atoms: N_9  and  C_10
REMARK    4  A    between atoms: C_15  and  C_16
REMARK    5  A    between atoms: N_18  and  C_19
REMARK                            x       y       z     vdW  Elec       q    Type
REMARK                         _______ _______ _______ _____ _____    ______ ____
ROOT
ATOM      1  C   UNL     1       3.146   4.861  19.715  0.00  0.00    +0.000 A 
ATOM      2  C   UNL     1       3.256   3.465  19.682  0.00  0.00    +0.000 A 
ATOM      3  C   UNL     1       2.175   2.658  20.038  0.00  0.00    +0.000 A 
ATOM      4  C   UNL     1       0.974   3.240  20.434  0.00  0.00    +0.000 A 
ATOM      5  C   UNL     1       0.861   4.630  20.498  0.00  0.00    +0.000 A 
ATOM      6  C   UNL     1       1.939   5.460  20.146  0.00  0.00    +0.000 A 
ENDROOT
BRANCH   6   7
ATOM      7  C   UNL     1       1.739   6.895  20.223  0.00  0.00    +0.000 A 
ATOM      8  C   UNL     1       1.188   7.584  21.274  0.00  0.00    +0.000 A 
ATOM      9  N   UNL     1       1.001   8.855  20.795  0.00  0.00    +0.000 N 
ATOM     10  N   UNL     1       1.640   8.985  19.603  0.00  0.00    +0.000 NA
ATOM     11  N   UNL     1       2.077   7.784  19.239  0.00  0.00    +0.000 NA
BRANCH   9  12
ATOM     12  C   UNL     1       0.237   9.896  21.379  0.00  0.00    +0.000 A 
ATOM     13  C   UNL     1       0.162  11.156  20.763  0.00  0.00    +0.000 A 
ATOM     14  C   UNL     1      -0.543  12.192  21.372  0.00  0.00    +0.000 A 
ATOM     15  C   UNL     1      -1.171  11.982  22.597  0.00  0.00    +0.000 A 
ATOM     16  C   UNL     1      -1.102  10.731  23.210  0.00  0.00    +0.000 A 
ATOM     17  C   UNL     1      -0.403   9.684  22.605  0.00  0.00    +0.000 A 
ENDBRANCH   9  12
ENDBRANCH   6   7
BRANCH   1  18
ATOM     18  N   UNL     1       4.298   5.619  19.305  0.00  0.00    +0.000 N 
ATOM     19  H   UNL     1       4.146   6.251  18.512  0.00  0.00    +0.000 HD
BRANCH  18  20
ATOM     20  S   UNL     1       5.780   4.802  19.092  0.00  0.00    +0.000 S 
ATOM     21  O   UNL     1       5.564   3.404  19.409  0.00  0.00    +0.000 OA
ATOM     22  O   UNL     1       6.736   5.555  19.884  0.00  0.00    +0.000 OA
BRANCH  20  27
ATOM     23  O   UNL     1       7.221   5.394  13.551  0.00  0.00    +0.000 OA
ATOM     24  C   UNL     1       6.912   5.217  14.723  0.00  0.00    +0.000 A 
ATOM     25  N   UNL     1       5.729   5.668  15.244  0.00  0.00    +0.000 N 
ATOM     26  C   UNL     1       5.375   5.527  16.564  0.00  0.00    +0.000 A 
ATOM     27  C   UNL     1       6.209   4.948  17.435  0.00  0.00    +0.000 A 
ATOM     28  C   UNL     1       7.514   4.470  16.961  0.00  0.00    +0.000 A 
ATOM     29  O   UNL     1       8.387   4.074  17.728  0.00  0.00    +0.000 OA
ATOM     30  N   UNL     1       7.734   4.574  15.610  0.00  0.00    +0.000 N 
ATOM     31  H   UNL     1       5.105   6.135  14.593  0.00  0.00    +0.000 HD
ATOM     32  H   UNL     1       8.631   4.276  15.255  0.00  0.00    +0.000 HD
ENDBRANCH  20  27
ENDBRANCH  18  20
ENDBRANCH   1  18
TORSDOF 5
ENDMDL
MODEL 8
REMARK VINA RESULT:      -8.6      3.526      7.334
REMARK  Name = 
REMARK  5 active torsions:
REMARK  status: ('A' for Active; 'I' for Inactive)
REMARK    1  A    between atoms: C_5  and  S_6
REMARK    2  A    between atoms: S_6  and  N_9
REMARK    3  A    between atoms: N_9  and  C_10
REMARK    4  A    between atoms: C_15  and  C_16
REMARK    5  A    between atoms: N_18  and  C_19
REMARK                            x       y       z     vdW  Elec       q    Type
REMARK                         _______ _______ _______ _____ _____    ______ ____
ROOT
ATOM      1  C   UNL     1       3.479   4.964  19.846  0.00  0.00    +0.000 A 
ATOM      2  C   UNL     1       2.560   4.572  20.827  0.00  0.00    +0.000 A 
ATOM      3  C   UNL     1       2.413   3.226  21.165  0.00  0.00    +0.000 A 
ATOM      4  C   UNL     1       3.181   2.260  20.522  0.00  0.00    +0.000 A 
ATOM      5  C   UNL     1       4.079   2.636  19.522  0.00  0.00    +0.000 A 
ATOM      6  C   UNL     1       4.241   3.986  19.165  0.00  0.00    +0.000 A 
ENDROOT
BRANCH   6   7
ATOM      7  C   UNL     1       5.206   4.299  18.128  0.00  0.00    +0.000 A 
ATOM      8  C   UNL     1       4.935   4.495  16.798  0.00  0.00    +0.000 A 
ATOM      9  N   UNL     1       6.166   4.531  16.195  0.00  0.00    +0.000 N 
ATOM     10  N   UNL     1       7.131   4.607  17.148  0.00  0.00    +0.000 NA
ATOM     11  N   UNL     1       6.551   4.446  18.333  0.00  0.00    +0.000 NA
BRANCH   9  12
ATOM     12  C   UNL     1       6.453   4.457  14.809  0.00  0.00    +0.000 A 
ATOM     13  C   UNL     1       5.731   3.584  13.978  0.00  0.00    +0.000 A 
ATOM     14  C   UNL     1       6.059   3.471  12.629  0.00  0.00    +0.000 A 
ATOM     15  C   UNL     1       7.107   4.222  12.101  0.00  0.00    +0.000 A 
ATOM     16  C   UNL     1       7.823   5.093  12.921  0.00  0.00    +0.000 A 
ATOM     17  C   UNL     1       7.499   5.217  14.275  0.00  0.00    +0.000 A 
ENDBRANCH   9  12
ENDBRANCH   6   7
BRANCH   1  18
ATOM     18  N   UNL     1       3.590   6.374  19.578  0.00  0.00    +0.000 N 
ATOM     19  H   UNL     1       3.433   6.986  20.385  0.00  0.00    +0.000 HD
BRANCH  18  20
ATOM     20  S   UNL     1       2.775   7.014  18.223  0.00  0.00    +0.000 S 
ATOM     21  O   UNL     1       1.785   6.044  17.802  0.00  0.00    +0.000 OA
ATOM     22  O   UNL     1       3.830   7.381  17.295  0.00  0.00    +0.000 OA
BRANCH  20  27
ATOM     23  O   UNL     1       0.035  11.796  19.884  0.00  0.00    +0.000 OA
ATOM     24  C   UNL     1       0.656  10.790  19.564  0.00  0.00    +0.000 A 
ATOM     25  N   UNL     1       1.161  10.613  18.303  0.00  0.00    +0.000 N 
ATOM     26  C   UNL     1       1.820   9.477  17.899  0.00  0.00    +0.000 A 
ATOM     27  C   UNL     1       1.980   8.448  18.738  0.00  0.00    +0.000 A 
ATOM     28  C   UNL     1       1.434   8.546  20.098  0.00  0.00    +0.000 A 
ATOM     29  O   UNL     1       1.405   7.588  20.864  0.00  0.00    +0.000 OA
ATOM     30  N   UNL     1       0.875   9.754  20.432  0.00  0.00    +0.000 N 
ATOM     31  H   UNL     1       1.016  11.381  17.654  0.00  0.00    +0.000 HD
ATOM     32  H   UNL     1       0.470   9.846  21.352  0.00  0.00    +0.000 HD
ENDBRANCH  20  27
ENDBRANCH  18  20
ENDBRANCH   1  18
TORSDOF 5
ENDMDL
MODEL 9
REMARK VINA RESULT:      -8.5      2.239      3.200
REMARK  Name = 
REMARK  5 active torsions:
REMARK  status: ('A' for Active; 'I' for Inactive)
REMARK    1  A    between atoms: C_5  and  S_6
REMARK    2  A    between atoms: S_6  and  N_9
REMARK    3  A    between atoms: N_9  and  C_10
REMARK    4  A    between atoms: C_15  and  C_16
REMARK    5  A    between atoms: N_18  and  C_19
REMARK                            x       y       z     vdW  Elec       q    Type
REMARK                         _______ _______ _______ _____ _____    ______ ____
ROOT
ATOM      1  C   UNL     1       3.320   4.133  19.211  0.00  0.00    +0.000 A 
ATOM      2  C   UNL     1       3.501   2.873  19.794  0.00  0.00    +0.000 A 
ATOM      3  C   UNL     1       2.903   2.562  21.016  0.00  0.00    +0.000 A 
ATOM      4  C   UNL     1       2.122   3.511  21.669  0.00  0.00    +0.000 A 
ATOM      5  C   UNL     1       1.958   4.781  21.112  0.00  0.00    +0.000 A 
ATOM      6  C   UNL     1       2.553   5.114  19.883  0.00  0.00    +0.000 A 
ENDROOT
BRANCH   6   7
ATOM      7  C   UNL     1       2.323   6.448  19.361  0.00  0.00    +0.000 A 
ATOM      8  C   UNL     1       2.011   7.565  20.094  0.00  0.00    +0.000 A 
ATOM      9  N   UNL     1       1.668   8.508  19.160  0.00  0.00    +0.000 N 
ATOM     10  N   UNL     1       2.000   8.056  17.922  0.00  0.00    +0.000 NA
ATOM     11  N   UNL     1       2.384   6.789  18.037  0.00  0.00    +0.000 NA
BRANCH   9  12
ATOM     12  C   UNL     1       1.024   9.751  19.381  0.00  0.00    +0.000 A 
ATOM     13  C   UNL     1      -0.065   9.842  20.263  0.00  0.00    +0.000 A 
ATOM     14  C   UNL     1      -0.731  11.054  20.431  0.00  0.00    +0.000 A 
ATOM     15  C   UNL     1      -0.321  12.179  19.719  0.00  0.00    +0.000 A 
ATOM     16  C   UNL     1       0.763  12.094  18.845  0.00  0.00    +0.000 A 
ATOM     17  C   UNL     1       1.440  10.884  18.674  0.00  0.00    +0.000 A 
ENDBRANCH   9  12
ENDBRANCH   6   7
BRANCH   1  18
ATOM     18  N   UNL     1       3.946   4.362  17.936  0.00  0.00    +0.000 N 
ATOM     19  H   UNL     1       3.823   3.613  17.247  0.00  0.00    +0.000 HD
BRANCH  18  20
ATOM     20  S   UNL     1       5.568   4.889  17.905  0.00  0.00    +0.000 S 
ATOM     21  O   UNL     1       6.335   4.012  18.766  0.00  0.00    +0.000 OA
ATOM     22  O   UNL     1       5.505   6.303  18.229  0.00  0.00    +0.000 OA
BRANCH  20  27
ATOM     23  O   UNL     1       7.343   4.374  12.454  0.00  0.00    +0.000 OA
ATOM     24  C   UNL     1       7.012   4.466  13.629  0.00  0.00    +0.000 A 
ATOM     25  N   UNL     1       6.018   3.696  14.172  0.00  0.00    +0.000 N 
ATOM     26  C   UNL     1       5.591   3.809  15.473  0.00  0.00    +0.000 A 
ATOM     27  C   UNL     1       6.126   4.725  16.287  0.00  0.00    +0.000 A 
ATOM     28  C   UNL     1       7.172   5.615  15.770  0.00  0.00    +0.000 A 
ATOM     29  O   UNL     1       7.593   6.575  16.408  0.00  0.00    +0.000 OA
ATOM     30  N   UNL     1       7.592   5.361  14.487  0.00  0.00    +0.000 N 
ATOM     31  H   UNL     1       5.589   3.019  13.548  0.00  0.00    +0.000 HD
ATOM     32  H   UNL     1       8.294   5.970  14.094  0.00  0.00    +0.000 HD
ENDBRANCH  20  27
ENDBRANCH  18  20
ENDBRANCH   1  18
TORSDOF 5
ENDMDL
