MODEL 1
REMARK VINA RESULT:      -8.2      0.000      0.000
REMARK  Name = 
REMARK  9 active torsions:
REMARK  status: ('A' for Active; 'I' for Inactive)
REMARK    1  A    between atoms: C_1  and  C_2
REMARK    2  A    between atoms: C_2  and  C_3
REMARK    3  A    between atoms: C_3  and  C_4
REMARK    4  A    between atoms: C_4  and  C_5
REMARK    5  A    between atoms: C_5  and  C_6
REMARK    6  A    between atoms: C_6  and  C_7
REMARK    7  A    between atoms: C_6  and  N_8
REMARK    8  A    between atoms: C_9  and  C_11
REMARK    9  A    between atoms: N_25  and  C_26
REMARK                            x       y       z     vdW  Elec       q    Type
REMARK                         _______ _______ _______ _____ _____    ______ ____
ROOT
ATOM      1  C   UNL     1       4.192   3.973  17.335  0.00  0.00    +0.000 C 
ATOM      2  C   UNL     1       3.510   5.315  17.351  0.00  0.00    +0.000 C 
ATOM      3  C   UNL     1       3.038   5.856  18.491  0.00  0.00    +0.000 C 
ATOM      4  C   UNL     1       2.541   7.251  18.512  0.00  0.00    +0.000 A 
ATOM      5  C   UNL     1       2.795   8.277  17.595  0.00  0.00    +0.000 A 
ATOM      6  C   UNL     1       2.300   9.569  17.810  0.00  0.00    +0.000 A 
ATOM      7  C   UNL     1       1.548   9.893  18.949  0.00  0.00    +0.000 A 
ATOM      8  C   UNL     1       1.299   8.857  19.856  0.00  0.00    +0.000 A 
ATOM      9  N   UNL     1       0.624   8.819  21.055  0.00  0.00    +0.000 N 
ATOM     10  C   UNL     1       0.651   7.545  21.580  0.00  0.00    +0.000 A 
ATOM     11  C   UNL     1       1.353   6.752  20.702  0.00  0.00    +0.000 A 
ATOM     12  C   UNL     1       1.771   7.575  19.636  0.00  0.00    +0.000 A 
ATOM     13  C   UNL     1       1.707   5.305  20.685  0.00  0.00    +0.000 C 
ATOM     14  C   UNL     1       3.017   5.062  19.839  0.00  0.00    +0.000 C 
ATOM     15  N   UNL     1       3.257   3.602  19.620  0.00  0.00    +0.000 NA
ATOM     16  C   UNL     1       3.436   2.863  20.869  0.00  0.00    +0.000 C 
ATOM     17  C   UNL     1       4.438   3.413  18.749  0.00  0.00    +0.000 C 
ATOM     18  H   UNL     1       0.175   9.615  21.487  0.00  0.00    +0.000 HD
ENDROOT
BRANCH   1  20
ATOM     19  N   UNL     1       5.446   3.941  15.191  0.00  0.00    +0.000 N 
ATOM     20  C   UNL     1       5.514   4.090  16.563  0.00  0.00    +0.000 C 
ATOM     21  O   UNL     1       6.574   4.321  17.146  0.00  0.00    +0.000 OA
ATOM     22  H   UNL     1       4.581   3.610  14.779  0.00  0.00    +0.000 HD
BRANCH  19  23
ATOM     23  C   UNL     1       6.634   4.041  14.343  0.00  0.00    +0.000 C 
ATOM     24  C   UNL     1       7.144   5.482  14.348  0.00  0.00    +0.000 C 
BRANCH  23  25
ATOM     25  C   UNL     1       6.358   3.530  12.913  0.00  0.00    +0.000 C 
BRANCH  25  26
ATOM     26  C   UNL     1       4.863   3.550  12.570  0.00  0.00    +0.000 C 
BRANCH  26  27
ATOM     27  C   UNL     1       4.563   2.962  11.193  0.00  0.00    +0.000 C 
BRANCH  27  29
ATOM     28  C   UNL     1       3.010   4.178   9.621  0.00  0.00    +0.000 C 
ATOM     29  C   UNL     1       3.108   3.233  10.804  0.00  0.00    +0.000 C 
ENDBRANCH  27  29
ENDBRANCH  26  27
ENDBRANCH  25  26
ENDBRANCH  23  25
ENDBRANCH  19  23
ENDBRANCH   1  20
TORSDOF 6
ENDMDL
MODEL 2
REMARK VINA RESULT:      -8.0      2.961      4.534
REMARK  Name = 
REMARK  9 active torsions:
REMARK  status: ('A' for Active; 'I' for Inactive)
REMARK    1  A    between atoms: C_1  and  C_2
REMARK    2  A    between atoms: C_2  and  C_3
REMARK    3  A    between atoms: C_3  and  C_4
REMARK    4  A    between atoms: C_4  and  C_5
REMARK    5  A    between atoms: C_5  and  C_6
REMARK    6  A    between atoms: C_6  and  C_7
REMARK    7  A    between atoms: C_6  and  N_8
REMARK    8  A    between atoms: C_9  and  C_11
REMARK    9  A    between atoms: N_25  and  C_26
REMARK                            x       y       z     vdW  Elec       q    Type
REMARK                         _______ _______ _______ _____ _____    ______ ____
ROOT
ATOM      1  C   UNL     1       3.185   4.728  17.985  0.00  0.00    +0.000 C 
ATOM      2  C   UNL     1       2.677   6.141  17.867  0.00  0.00    +0.000 C 
ATOM      3  C   UNL     1       2.277   6.841  18.945  0.00  0.00    +0.000 C 
ATOM      4  C   UNL     1       1.959   8.284  18.829  0.00  0.00    +0.000 A 
ATOM      5  C   UNL     1       2.342   9.178  17.823  0.00  0.00    +0.000 A 
ATOM      6  C   UNL     1       2.013  10.537  17.910  0.00  0.00    +0.000 A 
ATOM      7  C   UNL     1       1.307  11.059  19.005  0.00  0.00    +0.000 A 
ATOM      8  C   UNL     1       0.930  10.153  20.002  0.00  0.00    +0.000 A 
ATOM      9  N   UNL     1       0.255  10.313  21.190  0.00  0.00    +0.000 N 
ATOM     10  C   UNL     1       0.121   9.100  21.833  0.00  0.00    +0.000 A 
ATOM     11  C   UNL     1       0.718   8.147  21.041  0.00  0.00    +0.000 A 
ATOM     12  C   UNL     1       1.236   8.806  19.909  0.00  0.00    +0.000 A 
ATOM     13  C   UNL     1       0.886   6.671  21.164  0.00  0.00    +0.000 C 
ATOM     14  C   UNL     1       2.156   6.187  20.361  0.00  0.00    +0.000 C 
ATOM     15  N   UNL     1       2.210   4.694  20.282  0.00  0.00    +0.000 NA
ATOM     16  C   UNL     1       2.294   4.060  21.597  0.00  0.00    +0.000 C 
ATOM     17  C   UNL     1       3.357   4.278  19.448  0.00  0.00    +0.000 C 
ATOM     18  H   UNL     1      -0.090  11.196  21.541  0.00  0.00    +0.000 HD
ENDROOT
BRANCH   1  20
ATOM     19  N   UNL     1       5.502   5.508  17.551  0.00  0.00    +0.000 N 
ATOM     20  C   UNL     1       4.511   4.605  17.221  0.00  0.00    +0.000 C 
ATOM     21  O   UNL     1       4.678   3.729  16.371  0.00  0.00    +0.000 OA
ATOM     22  H   UNL     1       5.268   6.294  18.148  0.00  0.00    +0.000 HD
BRANCH  19  23
ATOM     23  C   UNL     1       6.814   5.488  16.902  0.00  0.00    +0.000 C 
ATOM     24  C   UNL     1       7.778   4.637  17.729  0.00  0.00    +0.000 C 
BRANCH  23  25
ATOM     25  C   UNL     1       7.356   6.914  16.668  0.00  0.00    +0.000 C 
BRANCH  25  26
ATOM     26  C   UNL     1       7.895   7.547  17.958  0.00  0.00    +0.000 C 
BRANCH  26  27
ATOM     27  C   UNL     1       8.016   9.067  17.867  0.00  0.00    +0.000 C 
BRANCH  27  29
ATOM     28  C   UNL     1       9.641  10.867  18.561  0.00  0.00    +0.000 C 
ATOM     29  C   UNL     1       8.925   9.596  18.979  0.00  0.00    +0.000 C 
ENDBRANCH  27  29
ENDBRANCH  26  27
ENDBRANCH  25  26
ENDBRANCH  23  25
ENDBRANCH  19  23
ENDBRANCH   1  20
TORSDOF 6
ENDMDL
MODEL 3
REMARK VINA RESULT:      -8.0      1.278      1.782
REMARK  Name = 
REMARK  9 active torsions:
REMARK  status: ('A' for Active; 'I' for Inactive)
REMARK    1  A    between atoms: C_1  and  C_2
REMARK    2  A    between atoms: C_2  and  C_3
REMARK    3  A    between atoms: C_3  and  C_4
REMARK    4  A    between atoms: C_4  and  C_5
REMARK    5  A    between atoms: C_5  and  C_6
REMARK    6  A    between atoms: C_6  and  C_7
REMARK    7  A    between atoms: C_6  and  N_8
REMARK    8  A    between atoms: C_9  and  C_11
REMARK    9  A    between atoms: N_25  and  C_26
REMARK                            x       y       z     vdW  Elec       q    Type
REMARK                         _______ _______ _______ _____ _____    ______ ____
ROOT
ATOM      1  C   UNL     1       2.963   4.390  18.074  0.00  0.00    +0.000 C 
ATOM      2  C   UNL     1       2.529   5.823  17.913  0.00  0.00    +0.000 C 
ATOM      3  C   UNL     1       2.224   6.594  18.975  0.00  0.00    +0.000 C 
ATOM      4  C   UNL     1       1.981   8.045  18.806  0.00  0.00    +0.000 A 
ATOM      5  C   UNL     1       2.361   8.870  17.740  0.00  0.00    +0.000 A 
ATOM      6  C   UNL     1       2.113  10.247  17.778  0.00  0.00    +0.000 A 
ATOM      7  C   UNL     1       1.494  10.859  18.880  0.00  0.00    +0.000 A 
ATOM      8  C   UNL     1       1.119  10.022  19.936  0.00  0.00    +0.000 A 
ATOM      9  N   UNL     1       0.515  10.274  21.147  0.00  0.00    +0.000 N 
ATOM     10  C   UNL     1       0.348   9.101  21.852  0.00  0.00    +0.000 A 
ATOM     11  C   UNL     1       0.849   8.080  21.079  0.00  0.00    +0.000 A 
ATOM     12  C   UNL     1       1.345   8.657  19.893  0.00  0.00    +0.000 A 
ATOM     13  C   UNL     1       0.941   6.604  21.265  0.00  0.00    +0.000 C 
ATOM     14  C   UNL     1       2.139   6.012  20.425  0.00  0.00    +0.000 C 
ATOM     15  N   UNL     1       2.106   4.516  20.415  0.00  0.00    +0.000 NA
ATOM     16  C   UNL     1       2.222   3.938  21.754  0.00  0.00    +0.000 C 
ATOM     17  C   UNL     1       3.185   3.997  19.547  0.00  0.00    +0.000 C 
ATOM     18  H   UNL     1       0.238  11.191  21.470  0.00  0.00    +0.000 HD
ENDROOT
BRANCH   1  20
ATOM     19  N   UNL     1       5.017   5.266  16.988  0.00  0.00    +0.000 N 
ATOM     20  C   UNL     1       4.239   4.156  17.254  0.00  0.00    +0.000 C 
ATOM     21  O   UNL     1       4.554   3.027  16.872  0.00  0.00    +0.000 OA
ATOM     22  H   UNL     1       4.644   6.185  17.197  0.00  0.00    +0.000 HD
BRANCH  19  23
ATOM     23  C   UNL     1       6.263   5.172  16.225  0.00  0.00    +0.000 C 
ATOM     24  C   UNL     1       7.208   6.293  16.653  0.00  0.00    +0.000 C 
BRANCH  23  25
ATOM     25  C   UNL     1       6.002   5.186  14.704  0.00  0.00    +0.000 C 
BRANCH  25  26
ATOM     26  C   UNL     1       6.188   3.800  14.071  0.00  0.00    +0.000 C 
BRANCH  26  27
ATOM     27  C   UNL     1       6.487   3.866  12.575  0.00  0.00    +0.000 C 
BRANCH  27  29
ATOM     28  C   UNL     1       4.302   3.280  11.461  0.00  0.00    +0.000 C 
ATOM     29  C   UNL     1       5.692   2.794  11.826  0.00  0.00    +0.000 C 
ENDBRANCH  27  29
ENDBRANCH  26  27
ENDBRANCH  25  26
ENDBRANCH  23  25
ENDBRANCH  19  23
ENDBRANCH   1  20
TORSDOF 6
ENDMDL
MODEL 4
REMARK VINA RESULT:      -7.9      3.349      5.152
REMARK  Name = 
REMARK  9 active torsions:
REMARK  status: ('A' for Active; 'I' for Inactive)
REMARK    1  A    between atoms: C_1  and  C_2
REMARK    2  A    between atoms: C_2  and  C_3
REMARK    3  A    between atoms: C_3  and  C_4
REMARK    4  A    between atoms: C_4  and  C_5
REMARK    5  A    between atoms: C_5  and  C_6
REMARK    6  A    between atoms: C_6  and  C_7
REMARK    7  A    between atoms: C_6  and  N_8
REMARK    8  A    between atoms: C_9  and  C_11
REMARK    9  A    between atoms: N_25  and  C_26
REMARK                            x       y       z     vdW  Elec       q    Type
REMARK                         _______ _______ _______ _____ _____    ______ ____
ROOT
ATOM      1  C   UNL     1       3.190   6.319  17.834  0.00  0.00    +0.000 C 
ATOM      2  C   UNL     1       2.570   7.688  17.929  0.00  0.00    +0.000 C 
ATOM      3  C   UNL     1       2.044   8.149  19.079  0.00  0.00    +0.000 C 
ATOM      4  C   UNL     1       1.610   9.560  19.196  0.00  0.00    +0.000 A 
ATOM      5  C   UNL     1       1.975  10.649  18.397  0.00  0.00    +0.000 A 
ATOM      6  C   UNL     1       1.525  11.941  18.697  0.00  0.00    +0.000 A 
ATOM      7  C   UNL     1       0.709  12.201  19.809  0.00  0.00    +0.000 A 
ATOM      8  C   UNL     1       0.350  11.103  20.597  0.00  0.00    +0.000 A 
ATOM      9  N   UNL     1      -0.409  10.993  21.740  0.00  0.00    +0.000 N 
ATOM     10  C   UNL     1      -0.477   9.677  22.146  0.00  0.00    +0.000 A 
ATOM     11  C   UNL     1       0.248   8.931  21.247  0.00  0.00    +0.000 A 
ATOM     12  C   UNL     1       0.778   9.822  20.292  0.00  0.00    +0.000 A 
ATOM     13  C   UNL     1       0.536   7.474  21.120  0.00  0.00    +0.000 C 
ATOM     14  C   UNL     1       1.891   7.240  20.344  0.00  0.00    +0.000 C 
ATOM     15  N   UNL     1       2.080   5.795  20.007  0.00  0.00    +0.000 NA
ATOM     16  C   UNL     1       2.136   4.939  21.192  0.00  0.00    +0.000 C 
ATOM     17  C   UNL     1       3.309   5.624  19.204  0.00  0.00    +0.000 C 
ATOM     18  H   UNL     1      -0.851  11.769  22.213  0.00  0.00    +0.000 HD
ENDROOT
BRANCH   1  20
ATOM     19  N   UNL     1       5.657   6.050  17.922  0.00  0.00    +0.000 N 
ATOM     20  C   UNL     1       4.567   6.435  17.166  0.00  0.00    +0.000 C 
ATOM     21  O   UNL     1       4.682   6.838  16.007  0.00  0.00    +0.000 OA
ATOM     22  H   UNL     1       5.525   5.866  18.910  0.00  0.00    +0.000 HD
BRANCH  19  23
ATOM     23  C   UNL     1       7.021   6.105  17.394  0.00  0.00    +0.000 C 
ATOM     24  C   UNL     1       7.559   4.684  17.225  0.00  0.00    +0.000 C 
BRANCH  23  25
ATOM     25  C   UNL     1       7.942   6.968  18.283  0.00  0.00    +0.000 C 
BRANCH  25  26
ATOM     26  C   UNL     1       7.971   8.435  17.832  0.00  0.00    +0.000 C 
BRANCH  26  27
ATOM     27  C   UNL     1       8.806   9.322  18.754  0.00  0.00    +0.000 C 
BRANCH  27  29
ATOM     28  C   UNL     1       9.442  11.731  19.145  0.00  0.00    +0.000 C 
ATOM     29  C   UNL     1       9.025  10.695  18.117  0.00  0.00    +0.000 C 
ENDBRANCH  27  29
ENDBRANCH  26  27
ENDBRANCH  25  26
ENDBRANCH  23  25
ENDBRANCH  19  23
ENDBRANCH   1  20
TORSDOF 6
ENDMDL
MODEL 5
REMARK VINA RESULT:      -7.7      2.097      3.895
REMARK  Name = 
REMARK  9 active torsions:
REMARK  status: ('A' for Active; 'I' for Inactive)
REMARK    1  A    between atoms: C_1  and  C_2
REMARK    2  A    between atoms: C_2  and  C_3
REMARK    3  A    between atoms: C_3  and  C_4
REMARK    4  A    between atoms: C_4  and  C_5
REMARK    5  A    between atoms: C_5  and  C_6
REMARK    6  A    between atoms: C_6  and  C_7
REMARK    7  A    between atoms: C_6  and  N_8
REMARK    8  A    between atoms: C_9  and  C_11
REMARK    9  A    between atoms: N_25  and  C_26
REMARK                            x       y       z     vdW  Elec       q    Type
REMARK                         _______ _______ _______ _____ _____    ______ ____
ROOT
ATOM      1  C   UNL     1       2.949   4.626  17.925  0.00  0.00    +0.000 C 
ATOM      2  C   UNL     1       2.481   6.054  17.818  0.00  0.00    +0.000 C 
ATOM      3  C   UNL     1       2.198   6.790  18.909  0.00  0.00    +0.000 C 
ATOM      4  C   UNL     1       1.920   8.240  18.788  0.00  0.00    +0.000 A 
ATOM      5  C   UNL     1       2.246   9.099  17.733  0.00  0.00    +0.000 A 
ATOM      6  C   UNL     1       1.972  10.470  17.816  0.00  0.00    +0.000 A 
ATOM      7  C   UNL     1       1.379  11.039  18.954  0.00  0.00    +0.000 A 
ATOM      8  C   UNL     1       1.057  10.167  19.999  0.00  0.00    +0.000 A 
ATOM      9  N   UNL     1       0.491  10.376  21.236  0.00  0.00    +0.000 N 
ATOM     10  C   UNL     1       0.372   9.181  21.915  0.00  0.00    +0.000 A 
ATOM     11  C   UNL     1       0.867   8.192  21.099  0.00  0.00    +0.000 A 
ATOM     12  C   UNL     1       1.309   8.809  19.912  0.00  0.00    +0.000 A 
ATOM     13  C   UNL     1       0.995   6.714  21.241  0.00  0.00    +0.000 C 
ATOM     14  C   UNL     1       2.175   6.169  20.345  0.00  0.00    +0.000 C 
ATOM     15  N   UNL     1       2.172   4.674  20.297  0.00  0.00    +0.000 NA
ATOM     16  C   UNL     1       2.345   4.063  21.615  0.00  0.00    +0.000 C 
ATOM     17  C   UNL     1       3.230   4.200  19.379  0.00  0.00    +0.000 C 
ATOM     18  H   UNL     1       0.207  11.277  21.594  0.00  0.00    +0.000 HD
ENDROOT
BRANCH   1  20
ATOM     19  N   UNL     1       4.790   5.589  16.565  0.00  0.00    +0.000 N 
ATOM     20  C   UNL     1       4.201   4.441  17.057  0.00  0.00    +0.000 C 
ATOM     21  O   UNL     1       4.659   3.319  16.829  0.00  0.00    +0.000 OA
ATOM     22  H   UNL     1       4.296   6.469  16.659  0.00  0.00    +0.000 HD
BRANCH  19  23
ATOM     23  C   UNL     1       5.994   5.545  15.733  0.00  0.00    +0.000 C 
ATOM     24  C   UNL     1       5.811   4.506  14.627  0.00  0.00    +0.000 C 
BRANCH  23  25
ATOM     25  C   UNL     1       7.259   5.276  16.575  0.00  0.00    +0.000 C 
BRANCH  25  26
ATOM     26  C   UNL     1       7.062   5.647  18.051  0.00  0.00    +0.000 C 
BRANCH  26  27
ATOM     27  C   UNL     1       7.960   6.799  18.498  0.00  0.00    +0.000 C 
BRANCH  27  29
ATOM     28  C   UNL     1       8.413   9.258  18.172  0.00  0.00    +0.000 C 
ATOM     29  C   UNL     1       7.738   8.023  17.606  0.00  0.00    +0.000 C 
ENDBRANCH  27  29
ENDBRANCH  26  27
ENDBRANCH  25  26
ENDBRANCH  23  25
ENDBRANCH  19  23
ENDBRANCH   1  20
TORSDOF 6
ENDMDL
MODEL 6
REMARK VINA RESULT:      -7.7      1.513      2.180
REMARK  Name = 
REMARK  9 active torsions:
REMARK  status: ('A' for Active; 'I' for Inactive)
REMARK    1  A    between atoms: C_1  and  C_2
REMARK    2  A    between atoms: C_2  and  C_3
REMARK    3  A    between atoms: C_3  and  C_4
REMARK    4  A    between atoms: C_4  and  C_5
REMARK    5  A    between atoms: C_5  and  C_6
REMARK    6  A    between atoms: C_6  and  C_7
REMARK    7  A    between atoms: C_6  and  N_8
REMARK    8  A    between atoms: C_9  and  C_11
REMARK    9  A    between atoms: N_25  and  C_26
REMARK                            x       y       z     vdW  Elec       q    Type
REMARK                         _______ _______ _______ _____ _____    ______ ____
ROOT
ATOM      1  C   UNL     1       3.171   5.528  17.780  0.00  0.00    +0.000 C 
ATOM      2  C   UNL     1       2.610   6.926  17.795  0.00  0.00    +0.000 C 
ATOM      3  C   UNL     1       2.178   7.502  18.933  0.00  0.00    +0.000 C 
ATOM      4  C   UNL     1       1.806   8.936  18.955  0.00  0.00    +0.000 A 
ATOM      5  C   UNL     1       2.160   9.938  18.045  0.00  0.00    +0.000 A 
ATOM      6  C   UNL     1       1.779  11.268  18.261  0.00  0.00    +0.000 A 
ATOM      7  C   UNL     1       1.048  11.654  19.395  0.00  0.00    +0.000 A 
ATOM      8  C   UNL     1       0.700  10.642  20.295  0.00  0.00    +0.000 A 
ATOM      9  N   UNL     1       0.013  10.660  21.488  0.00  0.00    +0.000 N 
ATOM     10  C   UNL     1      -0.078   9.386  22.007  0.00  0.00    +0.000 A 
ATOM     11  C   UNL     1       0.559   8.537  21.133  0.00  0.00    +0.000 A 
ATOM     12  C   UNL     1       1.058   9.323  20.074  0.00  0.00    +0.000 A 
ATOM     13  C   UNL     1       0.782   7.064  21.113  0.00  0.00    +0.000 C 
ATOM     14  C   UNL     1       2.074   6.708  20.277  0.00  0.00    +0.000 C 
ATOM     15  N   UNL     1       2.185   5.233  20.054  0.00  0.00    +0.000 NA
ATOM     16  C   UNL     1       2.286   4.477  21.302  0.00  0.00    +0.000 C 
ATOM     17  C   UNL     1       3.352   4.944  19.193  0.00  0.00    +0.000 C 
ATOM     18  H   UNL     1      -0.367  11.491  21.919  0.00  0.00    +0.000 HD
ENDROOT
BRANCH   1  20
ATOM     19  N   UNL     1       5.166   4.320  16.927  0.00  0.00    +0.000 N 
ATOM     20  C   UNL     1       4.505   5.529  17.020  0.00  0.00    +0.000 C 
ATOM     21  O   UNL     1       4.946   6.560  16.508  0.00  0.00    +0.000 OA
ATOM     22  H   UNL     1       4.837   3.540  17.484  0.00  0.00    +0.000 HD
BRANCH  19  23
ATOM     23  C   UNL     1       6.441   4.189  16.220  0.00  0.00    +0.000 C 
ATOM     24  C   UNL     1       7.555   4.816  17.059  0.00  0.00    +0.000 C 
BRANCH  23  25
ATOM     25  C   UNL     1       6.372   4.798  14.804  0.00  0.00    +0.000 C 
BRANCH  25  26
ATOM     26  C   UNL     1       5.533   3.941  13.846  0.00  0.00    +0.000 C 
BRANCH  26  27
ATOM     27  C   UNL     1       6.270   3.605  12.551  0.00  0.00    +0.000 C 
BRANCH  27  29
ATOM     28  C   UNL     1       6.009   1.422  11.315  0.00  0.00    +0.000 C 
ATOM     29  C   UNL     1       5.378   2.764  11.635  0.00  0.00    +0.000 C 
ENDBRANCH  27  29
ENDBRANCH  26  27
ENDBRANCH  25  26
ENDBRANCH  23  25
ENDBRANCH  19  23
ENDBRANCH   1  20
TORSDOF 6
ENDMDL
MODEL 7
REMARK VINA RESULT:      -7.7      2.260      4.091
REMARK  Name = 
REMARK  9 active torsions:
REMARK  status: ('A' for Active; 'I' for Inactive)
REMARK    1  A    between atoms: C_1  and  C_2
REMARK    2  A    between atoms: C_2  and  C_3
REMARK    3  A    between atoms: C_3  and  C_4
REMARK    4  A    between atoms: C_4  and  C_5
REMARK    5  A    between atoms: C_5  and  C_6
REMARK    6  A    between atoms: C_6  and  C_7
REMARK    7  A    between atoms: C_6  and  N_8
REMARK    8  A    between atoms: C_9  and  C_11
REMARK    9  A    between atoms: N_25  and  C_26
REMARK                            x       y       z     vdW  Elec       q    Type
REMARK                         _______ _______ _______ _____ _____    ______ ____
ROOT
ATOM      1  C   UNL     1       2.997   5.968  17.688  0.00  0.00    +0.000 C 
ATOM      2  C   UNL     1       2.378   7.333  17.834  0.00  0.00    +0.000 C 
ATOM      3  C   UNL     1       2.016   7.821  19.036  0.00  0.00    +0.000 C 
ATOM      4  C   UNL     1       1.583   9.231  19.175  0.00  0.00    +0.000 A 
ATOM      5  C   UNL     1       1.815  10.300  18.302  0.00  0.00    +0.000 A 
ATOM      6  C   UNL     1       1.394  11.595  18.629  0.00  0.00    +0.000 A 
ATOM      7  C   UNL     1       0.743  11.879  19.839  0.00  0.00    +0.000 A 
ATOM      8  C   UNL     1       0.516  10.801  20.701  0.00  0.00    +0.000 A 
ATOM      9  N   UNL     1      -0.070  10.717  21.943  0.00  0.00    +0.000 N 
ATOM     10  C   UNL     1      -0.060   9.412  22.390  0.00  0.00    +0.000 A 
ATOM     11  C   UNL     1       0.540   8.648  21.417  0.00  0.00    +0.000 A 
ATOM     12  C   UNL     1       0.914   9.516  20.372  0.00  0.00    +0.000 A 
ATOM     13  C   UNL     1       0.827   7.191  21.289  0.00  0.00    +0.000 C 
ATOM     14  C   UNL     1       2.060   6.948  20.333  0.00  0.00    +0.000 C 
ATOM     15  N   UNL     1       2.218   5.496  20.012  0.00  0.00    +0.000 NA
ATOM     16  C   UNL     1       2.456   4.676  21.200  0.00  0.00    +0.000 C 
ATOM     17  C   UNL     1       3.322   5.314  19.045  0.00  0.00    +0.000 C 
ATOM     18  H   UNL     1      -0.450  11.502  22.453  0.00  0.00    +0.000 HD
ENDROOT
BRANCH   1  20
ATOM     19  N   UNL     1       4.913   4.899  16.525  0.00  0.00    +0.000 N 
ATOM     20  C   UNL     1       4.263   6.079  16.826  0.00  0.00    +0.000 C 
ATOM     21  O   UNL     1       4.660   7.171  16.414  0.00  0.00    +0.000 OA
ATOM     22  H   UNL     1       4.632   4.051  17.004  0.00  0.00    +0.000 HD
BRANCH  19  23
ATOM     23  C   UNL     1       6.124   4.871  15.703  0.00  0.00    +0.000 C 
ATOM     24  C   UNL     1       6.051   3.696  14.729  0.00  0.00    +0.000 C 
BRANCH  23  25
ATOM     25  C   UNL     1       7.400   4.826  16.569  0.00  0.00    +0.000 C 
BRANCH  25  26
ATOM     26  C   UNL     1       7.083   4.867  18.070  0.00  0.00    +0.000 C 
BRANCH  26  27
ATOM     27  C   UNL     1       7.562   6.152  18.742  0.00  0.00    +0.000 C 
BRANCH  27  29
ATOM     28  C   UNL     1       8.449   8.468  18.285  0.00  0.00    +0.000 C 
ATOM     29  C   UNL     1       7.730   7.264  17.705  0.00  0.00    +0.000 C 
ENDBRANCH  27  29
ENDBRANCH  26  27
ENDBRANCH  25  26
ENDBRANCH  23  25
ENDBRANCH  19  23
ENDBRANCH   1  20
TORSDOF 6
ENDMDL
MODEL 8
REMARK VINA RESULT:      -7.7      2.446      3.995
REMARK  Name = 
REMARK  9 active torsions:
REMARK  status: ('A' for Active; 'I' for Inactive)
REMARK    1  A    between atoms: C_1  and  C_2
REMARK    2  A    between atoms: C_2  and  C_3
REMARK    3  A    between atoms: C_3  and  C_4
REMARK    4  A    between atoms: C_4  and  C_5
REMARK    5  A    between atoms: C_5  and  C_6
REMARK    6  A    between atoms: C_6  and  C_7
REMARK    7  A    between atoms: C_6  and  N_8
REMARK    8  A    between atoms: C_9  and  C_11
REMARK    9  A    between atoms: N_25  and  C_26
REMARK                            x       y       z     vdW  Elec       q    Type
REMARK                         _______ _______ _______ _____ _____    ______ ____
ROOT
ATOM      1  C   UNL     1       6.800   4.545  15.643  0.00  0.00    +0.000 C 
ATOM      2  C   UNL     1       5.658   3.793  16.273  0.00  0.00    +0.000 C 
ATOM      3  C   UNL     1       4.855   4.364  17.190  0.00  0.00    +0.000 C 
ATOM      4  C   UNL     1       3.632   3.670  17.656  0.00  0.00    +0.000 A 
ATOM      5  C   UNL     1       2.940   2.622  17.037  0.00  0.00    +0.000 A 
ATOM      6  C   UNL     1       1.749   2.130  17.583  0.00  0.00    +0.000 A 
ATOM      7  C   UNL     1       1.192   2.669  18.753  0.00  0.00    +0.000 A 
ATOM      8  C   UNL     1       1.895   3.715  19.362  0.00  0.00    +0.000 A 
ATOM      9  N   UNL     1       1.643   4.468  20.486  0.00  0.00    +0.000 N 
ATOM     10  C   UNL     1       2.650   5.390  20.680  0.00  0.00    +0.000 A 
ATOM     11  C   UNL     1       3.563   5.223  19.665  0.00  0.00    +0.000 A 
ATOM     12  C   UNL     1       3.084   4.190  18.835  0.00  0.00    +0.000 A 
ATOM     13  C   UNL     1       4.857   5.882  19.331  0.00  0.00    +0.000 C 
ATOM     14  C   UNL     1       5.150   5.781  17.784  0.00  0.00    +0.000 C 
ATOM     15  N   UNL     1       6.541   6.231  17.465  0.00  0.00    +0.000 NA
ATOM     16  C   UNL     1       6.786   7.624  17.836  0.00  0.00    +0.000 C 
ATOM     17  C   UNL     1       6.813   6.037  16.025  0.00  0.00    +0.000 C 
ATOM     18  H   UNL     1       0.833   4.359  21.080  0.00  0.00    +0.000 HD
ENDROOT
BRANCH   1  20
ATOM     19  N   UNL     1       6.036   3.283  13.644  0.00  0.00    +0.000 N 
ATOM     20  C   UNL     1       6.733   4.378  14.118  0.00  0.00    +0.000 C 
ATOM     21  O   UNL     1       7.262   5.195  13.363  0.00  0.00    +0.000 OA
ATOM     22  H   UNL     1       5.745   2.568  14.302  0.00  0.00    +0.000 HD
BRANCH  19  23
ATOM     23  C   UNL     1       5.891   3.020  12.212  0.00  0.00    +0.000 C 
ATOM     24  C   UNL     1       7.125   3.535  11.472  0.00  0.00    +0.000 C 
BRANCH  23  25
ATOM     25  C   UNL     1       4.587   3.624  11.651  0.00  0.00    +0.000 C 
BRANCH  25  26
ATOM     26  C   UNL     1       3.674   2.558  11.031  0.00  0.00    +0.000 C 
BRANCH  26  27
ATOM     27  C   UNL     1       2.646   3.145  10.066  0.00  0.00    +0.000 C 
BRANCH  27  29
ATOM     28  C   UNL     1       2.057   5.220   8.759  0.00  0.00    +0.000 C 
ATOM     29  C   UNL     1       3.155   4.467   9.487  0.00  0.00    +0.000 C 
ENDBRANCH  27  29
ENDBRANCH  26  27
ENDBRANCH  25  26
ENDBRANCH  23  25
ENDBRANCH  19  23
ENDBRANCH   1  20
TORSDOF 6
ENDMDL
MODEL 9
REMARK VINA RESULT:      -7.4      3.742      7.398
REMARK  Name = 
REMARK  9 active torsions:
REMARK  status: ('A' for Active; 'I' for Inactive)
REMARK    1  A    between atoms: C_1  and  C_2
REMARK    2  A    between atoms: C_2  and  C_3
REMARK    3  A    between atoms: C_3  and  C_4
REMARK    4  A    between atoms: C_4  and  C_5
REMARK    5  A    between atoms: C_5  and  C_6
REMARK    6  A    between atoms: C_6  and  C_7
REMARK    7  A    between atoms: C_6  and  N_8
REMARK    8  A    between atoms: C_9  and  C_11
REMARK    9  A    between atoms: N_25  and  C_26
REMARK                            x       y       z     vdW  Elec       q    Type
REMARK                         _______ _______ _______ _____ _____    ______ ____
ROOT
ATOM      1  C   UNL     1       2.659   7.846  17.480  0.00  0.00    +0.000 C 
ATOM      2  C   UNL     1       2.155   6.660  18.259  0.00  0.00    +0.000 C 
ATOM      3  C   UNL     1       2.996   5.744  18.775  0.00  0.00    +0.000 C 
ATOM      4  C   UNL     1       2.494   4.693  19.691  0.00  0.00    +0.000 A 
ATOM      5  C   UNL     1       1.302   4.679  20.424  0.00  0.00    +0.000 A 
ATOM      6  C   UNL     1       1.017   3.629  21.306  0.00  0.00    +0.000 A 
ATOM      7  C   UNL     1       1.910   2.565  21.505  0.00  0.00    +0.000 A 
ATOM      8  C   UNL     1       3.097   2.592  20.765  0.00  0.00    +0.000 A 
ATOM      9  N   UNL     1       4.177   1.741  20.717  0.00  0.00    +0.000 N 
ATOM     10  C   UNL     1       5.111   2.202  19.814  0.00  0.00    +0.000 A 
ATOM     11  C   UNL     1       4.620   3.367  19.271  0.00  0.00    +0.000 A 
ATOM     12  C   UNL     1       3.372   3.618  19.877  0.00  0.00    +0.000 A 
ATOM     13  C   UNL     1       5.133   4.315  18.242  0.00  0.00    +0.000 C 
ATOM     14  C   UNL     1       4.530   5.757  18.464  0.00  0.00    +0.000 C 
ATOM     15  N   UNL     1       4.849   6.660  17.316  0.00  0.00    +0.000 NA
ATOM     16  C   UNL     1       6.287   6.845  17.123  0.00  0.00    +0.000 C 
ATOM     17  C   UNL     1       4.194   7.971  17.512  0.00  0.00    +0.000 C 
ATOM     18  H   UNL     1       4.270   0.900  21.269  0.00  0.00    +0.000 HD
ENDROOT
BRANCH   1  20
ATOM     19  N   UNL     1       1.251   8.989  19.177  0.00  0.00    +0.000 N 
ATOM     20  C   UNL     1       2.001   9.122  18.025  0.00  0.00    +0.000 C 
ATOM     21  O   UNL     1       2.156  10.208  17.464  0.00  0.00    +0.000 OA
ATOM     22  H   UNL     1       1.037   8.057  19.515  0.00  0.00    +0.000 HD
BRANCH  19  23
ATOM     23  C   UNL     1       0.583  10.132  19.801  0.00  0.00    +0.000 C 
ATOM     24  C   UNL     1       0.863  10.128  21.303  0.00  0.00    +0.000 C 
BRANCH  23  25
ATOM     25  C   UNL     1      -0.930  10.144  19.495  0.00  0.00    +0.000 C 
BRANCH  25  26
ATOM     26  C   UNL     1      -1.246  10.843  18.166  0.00  0.00    +0.000 C 
BRANCH  26  27
ATOM     27  C   UNL     1      -1.809   9.889  17.114  0.00  0.00    +0.000 C 
BRANCH  27  29
ATOM     28  C   UNL     1      -3.969  11.110  16.661  0.00  0.00    +0.000 C 
ATOM     29  C   UNL     1      -2.638  10.661  16.085  0.00  0.00    +0.000 C 
ENDBRANCH  27  29
ENDBRANCH  26  27
ENDBRANCH  25  26
ENDBRANCH  23  25
ENDBRANCH  19  23
ENDBRANCH   1  20
TORSDOF 6
ENDMDL
