MODEL 1
REMARK VINA RESULT:      -7.5      0.000      0.000
REMARK  Name = 
REMARK  7 active torsions:
REMARK  status: ('A' for Active; 'I' for Inactive)
REMARK    1  A    between atoms: C_2  and  C_4
REMARK    2  A    between atoms: C_4  and  C_5
REMARK    3  A    between atoms: C_5  and  C_6
REMARK    4  A    between atoms: C_6  and  C_7
REMARK    5  A    between atoms: C_7  and  C_8
REMARK    6  A    between atoms: N_17  and  C_18
REMARK    7  A    between atoms: C_18  and  C_19
REMARK                            x       y       z     vdW  Elec       q    Type
REMARK                         _______ _______ _______ _____ _____    ______ ____
ROOT
ATOM      1  C   UNL     1       2.248   3.845  20.156  0.00  0.00    +0.000 C 
ATOM      2  C   UNL     1       1.060   3.265  19.359  0.00  0.00    +0.000 C 
ATOM      3  C   UNL     1       1.538   2.274  18.292  0.00  0.00    +0.000 C 
ATOM      4  C   UNL     1       2.475   2.961  17.303  0.00  0.00    +0.000 C 
ATOM      5  N   UNL     1       3.716   3.425  17.960  0.00  0.00    +0.000 NA
ATOM      6  C   UNL     1       3.413   4.196  19.197  0.00  0.00    +0.000 C 
ENDROOT
BRANCH   1   8
ATOM      7  N   UNL     1       1.544   2.595  22.201  0.00  0.00    +0.000 N 
ATOM      8  C   UNL     1       2.537   2.844  21.309  0.00  0.00    +0.000 C 
ATOM      9  O   UNL     1       3.637   2.304  21.475  0.00  0.00    +0.000 OA
ATOM     10  H   UNL     1       1.799   2.007  22.995  0.00  0.00    +0.000 HD
ATOM     11  H   UNL     1       0.741   3.204  22.301  0.00  0.00    +0.000 HD
ENDBRANCH   1   8
BRANCH   1  12
ATOM     12  C   UNL     1       1.898   5.165  20.962  0.00  0.00    +0.000 C 
BRANCH  12  13
ATOM     13  C   UNL     1       1.898   6.499  20.195  0.00  0.00    +0.000 C 
BRANCH  13  14
ATOM     14  C   UNL     1       1.596   7.704  21.089  0.00  0.00    +0.000 C 
BRANCH  14  15
ATOM     15  C   UNL     1       1.027   8.814  20.232  0.00  0.00    +0.000 A 
ATOM     16  C   UNL     1      -0.079   9.532  20.683  0.00  0.00    +0.000 A 
ATOM     17  C   UNL     1      -0.664  10.466  19.834  0.00  0.00    +0.000 A 
ATOM     18  C   UNL     1      -0.139  10.654  18.561  0.00  0.00    +0.000 A 
ATOM     19  C   UNL     1       0.959   9.895  18.190  0.00  0.00    +0.000 A 
ATOM     20  N   UNL     1       1.545   8.988  18.992  0.00  0.00    +0.000 NA
ENDBRANCH  14  15
ENDBRANCH  13  14
ENDBRANCH  12  13
ENDBRANCH   1  12
BRANCH   5  21
ATOM     21  C   UNL     1       4.403   4.407  17.045  0.00  0.00    +0.000 C 
BRANCH  21  22
ATOM     22  C   UNL     1       5.701   4.954  17.538  0.00  0.00    +0.000 A 
ATOM     23  N   UNL     1       6.006   6.226  17.697  0.00  0.00    +0.000 NA
ATOM     24  C   UNL     1       7.280   6.244  18.198  0.00  0.00    +0.000 A 
ATOM     25  C   UNL     1       7.755   4.963  18.341  0.00  0.00    +0.000 A 
ATOM     26  N   UNL     1       6.737   4.154  17.920  0.00  0.00    +0.000 N 
ATOM     27  H   UNL     1       6.737   3.142  17.881  0.00  0.00    +0.000 HD
ENDBRANCH  21  22
ENDBRANCH   5  21
TORSDOF 7
ENDMDL
MODEL 2
REMARK VINA RESULT:      -7.4      1.883      6.057
REMARK  Name = 
REMARK  7 active torsions:
REMARK  status: ('A' for Active; 'I' for Inactive)
REMARK    1  A    between atoms: C_2  and  C_4
REMARK    2  A    between atoms: C_4  and  C_5
REMARK    3  A    between atoms: C_5  and  C_6
REMARK    4  A    between atoms: C_6  and  C_7
REMARK    5  A    between atoms: C_7  and  C_8
REMARK    6  A    between atoms: N_17  and  C_18
REMARK    7  A    between atoms: C_18  and  C_19
REMARK                            x       y       z     vdW  Elec       q    Type
REMARK                         _______ _______ _______ _____ _____    ______ ____
ROOT
ATOM      1  C   UNL     1       3.819   4.073  19.102  0.00  0.00    +0.000 C 
ATOM      2  C   UNL     1       3.100   3.129  20.089  0.00  0.00    +0.000 C 
ATOM      3  C   UNL     1       1.607   3.463  20.189  0.00  0.00    +0.000 C 
ATOM      4  C   UNL     1       1.410   4.894  20.680  0.00  0.00    +0.000 C 
ATOM      5  N   UNL     1       1.947   5.880  19.718  0.00  0.00    +0.000 NA
ATOM      6  C   UNL     1       3.334   5.530  19.307  0.00  0.00    +0.000 C 
ENDROOT
BRANCH   1   8
ATOM      7  N   UNL     1       4.672   2.698  17.198  0.00  0.00    +0.000 N 
ATOM      8  C   UNL     1       3.651   3.446  17.690  0.00  0.00    +0.000 C 
ATOM      9  O   UNL     1       2.656   3.637  16.980  0.00  0.00    +0.000 OA
ATOM     10  H   UNL     1       4.565   2.382  16.234  0.00  0.00    +0.000 HD
ATOM     11  H   UNL     1       5.609   2.741  17.582  0.00  0.00    +0.000 HD
ENDBRANCH   1   8
BRANCH   1  12
ATOM     12  C   UNL     1       5.398   4.084  19.259  0.00  0.00    +0.000 C 
BRANCH  12  13
ATOM     13  C   UNL     1       6.096   5.446  19.418  0.00  0.00    +0.000 C 
BRANCH  13  14
ATOM     14  C   UNL     1       7.299   5.614  18.486  0.00  0.00    +0.000 C 
BRANCH  14  15
ATOM     15  C   UNL     1       6.823   5.491  17.054  0.00  0.00    +0.000 A 
ATOM     16  C   UNL     1       5.776   6.296  16.607  0.00  0.00    +0.000 A 
ATOM     17  C   UNL     1       5.271   6.088  15.327  0.00  0.00    +0.000 A 
ATOM     18  C   UNL     1       5.814   5.085  14.534  0.00  0.00    +0.000 A 
ATOM     19  C   UNL     1       6.850   4.328  15.057  0.00  0.00    +0.000 A 
ATOM     20  N   UNL     1       7.359   4.510  16.289  0.00  0.00    +0.000 NA
ENDBRANCH  14  15
ENDBRANCH  13  14
ENDBRANCH  12  13
ENDBRANCH   1  12
BRANCH   5  21
ATOM     21  C   UNL     1       2.070   7.211  20.416  0.00  0.00    +0.000 C 
BRANCH  21  22
ATOM     22  C   UNL     1       1.653   8.402  19.619  0.00  0.00    +0.000 A 
ATOM     23  N   UNL     1       1.903   8.619  18.344  0.00  0.00    +0.000 NA
ATOM     24  C   UNL     1       1.301   9.811  18.043  0.00  0.00    +0.000 A 
ATOM     25  C   UNL     1       0.681  10.326  19.155  0.00  0.00    +0.000 A 
ATOM     26  N   UNL     1       0.911   9.416  20.148  0.00  0.00    +0.000 N 
ATOM     27  H   UNL     1       0.604   9.472  21.112  0.00  0.00    +0.000 HD
ENDBRANCH  21  22
ENDBRANCH   5  21
TORSDOF 7
ENDMDL
MODEL 3
REMARK VINA RESULT:      -7.4      1.865      6.204
REMARK  Name = 
REMARK  7 active torsions:
REMARK  status: ('A' for Active; 'I' for Inactive)
REMARK    1  A    between atoms: C_2  and  C_4
REMARK    2  A    between atoms: C_4  and  C_5
REMARK    3  A    between atoms: C_5  and  C_6
REMARK    4  A    between atoms: C_6  and  C_7
REMARK    5  A    between atoms: C_7  and  C_8
REMARK    6  A    between atoms: N_17  and  C_18
REMARK    7  A    between atoms: C_18  and  C_19
REMARK                            x       y       z     vdW  Elec       q    Type
REMARK                         _______ _______ _______ _____ _____    ______ ____
ROOT
ATOM      1  C   UNL     1       3.101   3.908  18.415  0.00  0.00    +0.000 C 
ATOM      2  C   UNL     1       3.340   3.743  19.931  0.00  0.00    +0.000 C 
ATOM      3  C   UNL     1       2.334   4.565  20.744  0.00  0.00    +0.000 C 
ATOM      4  C   UNL     1       2.456   6.047  20.408  0.00  0.00    +0.000 C 
ATOM      5  N   UNL     1       2.103   6.319  18.999  0.00  0.00    +0.000 NA
ATOM      6  C   UNL     1       2.817   5.393  18.078  0.00  0.00    +0.000 C 
ENDROOT
BRANCH   1   8
ATOM      7  N   UNL     1       2.392   1.550  17.987  0.00  0.00    +0.000 N 
ATOM      8  C   UNL     1       2.025   2.858  18.021  0.00  0.00    +0.000 C 
ATOM      9  O   UNL     1       0.872   3.162  17.694  0.00  0.00    +0.000 OA
ATOM     10  H   UNL     1       1.688   0.902  17.635  0.00  0.00    +0.000 HD
ATOM     11  H   UNL     1       3.362   1.261  17.953  0.00  0.00    +0.000 HD
ENDBRANCH   1   8
BRANCH   1  12
ATOM     12  C   UNL     1       4.329   3.457  17.518  0.00  0.00    +0.000 C 
BRANCH  12  13
ATOM     13  C   UNL     1       4.754   4.378  16.361  0.00  0.00    +0.000 C 
BRANCH  13  14
ATOM     14  C   UNL     1       6.253   4.308  16.060  0.00  0.00    +0.000 C 
BRANCH  14  15
ATOM     15  C   UNL     1       6.970   5.319  16.928  0.00  0.00    +0.000 A 
ATOM     16  C   UNL     1       7.457   4.931  18.175  0.00  0.00    +0.000 A 
ATOM     17  C   UNL     1       8.006   5.898  19.011  0.00  0.00    +0.000 A 
ATOM     18  C   UNL     1       8.049   7.221  18.588  0.00  0.00    +0.000 A 
ATOM     19  C   UNL     1       7.539   7.522  17.335  0.00  0.00    +0.000 A 
ATOM     20  N   UNL     1       7.005   6.607  16.507  0.00  0.00    +0.000 NA
ENDBRANCH  14  15
ENDBRANCH  13  14
ENDBRANCH  12  13
ENDBRANCH   1  12
BRANCH   5  21
ATOM     21  C   UNL     1       2.602   7.694  18.636  0.00  0.00    +0.000 C 
BRANCH  21  22
ATOM     22  C   UNL     1       1.629   8.809  18.826  0.00  0.00    +0.000 A 
ATOM     23  N   UNL     1       1.094   9.553  17.879  0.00  0.00    +0.000 NA
ATOM     24  C   UNL     1       0.244  10.415  18.518  0.00  0.00    +0.000 A 
ATOM     25  C   UNL     1       0.266  10.191  19.873  0.00  0.00    +0.000 A 
ATOM     26  N   UNL     1       1.151   9.165  20.052  0.00  0.00    +0.000 N 
ATOM     27  H   UNL     1       1.422   8.738  20.930  0.00  0.00    +0.000 HD
ENDBRANCH  21  22
ENDBRANCH   5  21
TORSDOF 7
ENDMDL
MODEL 4
REMARK VINA RESULT:      -7.4      2.805      7.054
REMARK  Name = 
REMARK  7 active torsions:
REMARK  status: ('A' for Active; 'I' for Inactive)
REMARK    1  A    between atoms: C_2  and  C_4
REMARK    2  A    between atoms: C_4  and  C_5
REMARK    3  A    between atoms: C_5  and  C_6
REMARK    4  A    between atoms: C_6  and  C_7
REMARK    5  A    between atoms: C_7  and  C_8
REMARK    6  A    between atoms: N_17  and  C_18
REMARK    7  A    between atoms: C_18  and  C_19
REMARK                            x       y       z     vdW  Elec       q    Type
REMARK                         _______ _______ _______ _____ _____    ______ ____
ROOT
ATOM      1  C   UNL     1       3.163   4.299  18.298  0.00  0.00    +0.000 C 
ATOM      2  C   UNL     1       3.297   4.345  19.835  0.00  0.00    +0.000 C 
ATOM      3  C   UNL     1       2.237   5.261  20.458  0.00  0.00    +0.000 C 
ATOM      4  C   UNL     1       2.383   6.685  19.931  0.00  0.00    +0.000 C 
ATOM      5  N   UNL     1       2.127   6.758  18.477  0.00  0.00    +0.000 NA
ATOM      6  C   UNL     1       2.902   5.721  17.742  0.00  0.00    +0.000 C 
ENDROOT
BRANCH   1   8
ATOM      7  N   UNL     1       2.540   1.905  17.945  0.00  0.00    +0.000 N 
ATOM      8  C   UNL     1       2.116   3.195  17.980  0.00  0.00    +0.000 C 
ATOM      9  O   UNL     1       0.935   3.441  17.711  0.00  0.00    +0.000 OA
ATOM     10  H   UNL     1       1.848   1.219  17.642  0.00  0.00    +0.000 HD
ATOM     11  H   UNL     1       3.519   1.659  17.863  0.00  0.00    +0.000 HD
ENDBRANCH   1   8
BRANCH   1  12
ATOM     12  C   UNL     1       4.449   3.741  17.557  0.00  0.00    +0.000 C 
BRANCH  12  13
ATOM     13  C   UNL     1       4.855   4.395  16.226  0.00  0.00    +0.000 C 
BRANCH  13  14
ATOM     14  C   UNL     1       6.372   4.464  16.030  0.00  0.00    +0.000 C 
BRANCH  14  15
ATOM     15  C   UNL     1       6.666   4.541  14.547  0.00  0.00    +0.000 A 
ATOM     16  C   UNL     1       6.021   3.668  13.673  0.00  0.00    +0.000 A 
ATOM     17  C   UNL     1       6.390   3.669  12.331  0.00  0.00    +0.000 A 
ATOM     18  C   UNL     1       7.390   4.531  11.900  0.00  0.00    +0.000 A 
ATOM     19  C   UNL     1       7.983   5.364  12.835  0.00  0.00    +0.000 A 
ATOM     20  N   UNL     1       7.644   5.384  14.137  0.00  0.00    +0.000 NA
ENDBRANCH  14  15
ENDBRANCH  13  14
ENDBRANCH  12  13
ENDBRANCH   1  12
BRANCH   5  21
ATOM     21  C   UNL     1       2.651   8.075  17.964  0.00  0.00    +0.000 C 
BRANCH  21  22
ATOM     22  C   UNL     1       1.864   9.282  18.354  0.00  0.00    +0.000 A 
ATOM     23  N   UNL     1       0.842   9.318  19.184  0.00  0.00    +0.000 NA
ATOM     24  C   UNL     1       0.468  10.632  19.259  0.00  0.00    +0.000 A 
ATOM     25  C   UNL     1       1.274  11.404  18.458  0.00  0.00    +0.000 A 
ATOM     26  N   UNL     1       2.159  10.530  17.892  0.00  0.00    +0.000 N 
ATOM     27  H   UNL     1       2.900  10.750  17.237  0.00  0.00    +0.000 HD
ENDBRANCH  21  22
ENDBRANCH   5  21
TORSDOF 7
ENDMDL
MODEL 5
REMARK VINA RESULT:      -7.4      0.758      1.328
REMARK  Name = 
REMARK  7 active torsions:
REMARK  status: ('A' for Active; 'I' for Inactive)
REMARK    1  A    between atoms: C_2  and  C_4
REMARK    2  A    between atoms: C_4  and  C_5
REMARK    3  A    between atoms: C_5  and  C_6
REMARK    4  A    between atoms: C_6  and  C_7
REMARK    5  A    between atoms: C_7  and  C_8
REMARK    6  A    between atoms: N_17  and  C_18
REMARK    7  A    between atoms: C_18  and  C_19
REMARK                            x       y       z     vdW  Elec       q    Type
REMARK                         _______ _______ _______ _____ _____    ______ ____
ROOT
ATOM      1  C   UNL     1       2.298   3.818  20.160  0.00  0.00    +0.000 C 
ATOM      2  C   UNL     1       1.108   3.240  19.364  0.00  0.00    +0.000 C 
ATOM      3  C   UNL     1       1.581   2.227  18.315  0.00  0.00    +0.000 C 
ATOM      4  C   UNL     1       2.533   2.888  17.323  0.00  0.00    +0.000 C 
ATOM      5  N   UNL     1       3.775   3.347  17.981  0.00  0.00    +0.000 NA
ATOM      6  C   UNL     1       3.473   4.141  19.204  0.00  0.00    +0.000 C 
ENDROOT
BRANCH   1   8
ATOM      7  N   UNL     1       1.556   2.587  22.203  0.00  0.00    +0.000 N 
ATOM      8  C   UNL     1       2.567   2.832  21.330  0.00  0.00    +0.000 C 
ATOM      9  O   UNL     1       3.667   2.301  21.527  0.00  0.00    +0.000 OA
ATOM     10  H   UNL     1       1.797   2.008  23.009  0.00  0.00    +0.000 HD
ATOM     11  H   UNL     1       0.747   3.191  22.278  0.00  0.00    +0.000 HD
ENDBRANCH   1   8
BRANCH   1  12
ATOM     12  C   UNL     1       1.959   5.155  20.943  0.00  0.00    +0.000 C 
BRANCH  12  13
ATOM     13  C   UNL     1       1.809   6.450  20.127  0.00  0.00    +0.000 C 
BRANCH  13  14
ATOM     14  C   UNL     1       1.373   7.647  20.976  0.00  0.00    +0.000 C 
BRANCH  14  15
ATOM     15  C   UNL     1       1.292   8.869  20.087  0.00  0.00    +0.000 A 
ATOM     16  C   UNL     1       1.797   8.809  18.790  0.00  0.00    +0.000 A 
ATOM     17  C   UNL     1       1.825   9.972  18.026  0.00  0.00    +0.000 A 
ATOM     18  C   UNL     1       1.357  11.159  18.576  0.00  0.00    +0.000 A 
ATOM     19  C   UNL     1       0.876  11.133  19.875  0.00  0.00    +0.000 A 
ATOM     20  N   UNL     1       0.835  10.022  20.633  0.00  0.00    +0.000 NA
ENDBRANCH  14  15
ENDBRANCH  13  14
ENDBRANCH  12  13
ENDBRANCH   1  12
BRANCH   5  21
ATOM     21  C   UNL     1       4.480   4.306  17.056  0.00  0.00    +0.000 C 
BRANCH  21  22
ATOM     22  C   UNL     1       5.710   4.949  17.603  0.00  0.00    +0.000 A 
ATOM     23  N   UNL     1       6.694   4.347  18.239  0.00  0.00    +0.000 NA
ATOM     24  C   UNL     1       7.611   5.323  18.519  0.00  0.00    +0.000 A 
ATOM     25  C   UNL     1       7.175   6.537  18.048  0.00  0.00    +0.000 A 
ATOM     26  N   UNL     1       5.965   6.282  17.465  0.00  0.00    +0.000 N 
ATOM     27  H   UNL     1       5.350   6.950  17.016  0.00  0.00    +0.000 HD
ENDBRANCH  21  22
ENDBRANCH   5  21
TORSDOF 7
ENDMDL
MODEL 6
REMARK VINA RESULT:      -7.3      1.762      6.204
REMARK  Name = 
REMARK  7 active torsions:
REMARK  status: ('A' for Active; 'I' for Inactive)
REMARK    1  A    between atoms: C_2  and  C_4
REMARK    2  A    between atoms: C_4  and  C_5
REMARK    3  A    between atoms: C_5  and  C_6
REMARK    4  A    between atoms: C_6  and  C_7
REMARK    5  A    between atoms: C_7  and  C_8
REMARK    6  A    between atoms: N_17  and  C_18
REMARK    7  A    between atoms: C_18  and  C_19
REMARK                            x       y       z     vdW  Elec       q    Type
REMARK                         _______ _______ _______ _____ _____    ______ ____
ROOT
ATOM      1  C   UNL     1       2.978   3.861  18.656  0.00  0.00    +0.000 C 
ATOM      2  C   UNL     1       3.066   3.719  20.191  0.00  0.00    +0.000 C 
ATOM      3  C   UNL     1       1.998   4.569  20.889  0.00  0.00    +0.000 C 
ATOM      4  C   UNL     1       2.176   6.044  20.544  0.00  0.00    +0.000 C 
ATOM      5  N   UNL     1       1.966   6.296  19.102  0.00  0.00    +0.000 NA
ATOM      6  C   UNL     1       2.751   5.344  18.270  0.00  0.00    +0.000 C 
ENDROOT
BRANCH   1   8
ATOM      7  N   UNL     1       2.334   1.533  18.020  0.00  0.00    +0.000 N 
ATOM      8  C   UNL     1       1.929   2.820  18.176  0.00  0.00    +0.000 C 
ATOM      9  O   UNL     1       0.765   3.118  17.886  0.00  0.00    +0.000 OA
ATOM     10  H   UNL     1       1.645   0.898  17.615  0.00  0.00    +0.000 HD
ATOM     11  H   UNL     1       3.311   1.277  17.953  0.00  0.00    +0.000 HD
ENDBRANCH   1   8
BRANCH   1  12
ATOM     12  C   UNL     1       4.280   3.378  17.891  0.00  0.00    +0.000 C 
BRANCH  12  13
ATOM     13  C   UNL     1       4.616   4.046  16.547  0.00  0.00    +0.000 C 
BRANCH  13  14
ATOM     14  C   UNL     1       6.119   4.096  16.261  0.00  0.00    +0.000 C 
BRANCH  14  15
ATOM     15  C   UNL     1       6.750   5.133  17.165  0.00  0.00    +0.000 A 
ATOM     16  C   UNL     1       6.789   6.465  16.759  0.00  0.00    +0.000 A 
ATOM     17  C   UNL     1       7.478   7.386  17.544  0.00  0.00    +0.000 A 
ATOM     18  C   UNL     1       8.111   6.955  18.703  0.00  0.00    +0.000 A 
ATOM     19  C   UNL     1       8.026   5.612  19.032  0.00  0.00    +0.000 A 
ATOM     20  N   UNL     1       7.365   4.702  18.293  0.00  0.00    +0.000 NA
ENDBRANCH  14  15
ENDBRANCH  13  14
ENDBRANCH  12  13
ENDBRANCH   1  12
BRANCH   5  21
ATOM     21  C   UNL     1       2.520   7.658  18.769  0.00  0.00    +0.000 C 
BRANCH  21  22
ATOM     22  C   UNL     1       1.562   8.796  18.890  0.00  0.00    +0.000 A 
ATOM     23  N   UNL     1       0.992   9.450  17.898  0.00  0.00    +0.000 NA
ATOM     24  C   UNL     1       0.175  10.378  18.484  0.00  0.00    +0.000 A 
ATOM     25  C   UNL     1       0.253  10.286  19.852  0.00  0.00    +0.000 A 
ATOM     26  N   UNL     1       1.138   9.273  20.094  0.00  0.00    +0.000 N 
ATOM     27  H   UNL     1       1.443   8.931  20.997  0.00  0.00    +0.000 HD
ENDBRANCH  21  22
ENDBRANCH   5  21
TORSDOF 7
ENDMDL
MODEL 7
REMARK VINA RESULT:      -7.3      1.867      6.236
REMARK  Name = 
REMARK  7 active torsions:
REMARK  status: ('A' for Active; 'I' for Inactive)
REMARK    1  A    between atoms: C_2  and  C_4
REMARK    2  A    between atoms: C_4  and  C_5
REMARK    3  A    between atoms: C_5  and  C_6
REMARK    4  A    between atoms: C_6  and  C_7
REMARK    5  A    between atoms: C_7  and  C_8
REMARK    6  A    between atoms: N_17  and  C_18
REMARK    7  A    between atoms: C_18  and  C_19
REMARK                            x       y       z     vdW  Elec       q    Type
REMARK                         _______ _______ _______ _____ _____    ______ ____
ROOT
ATOM      1  C   UNL     1       5.175   4.882  17.389  0.00  0.00    +0.000 C 
ATOM      2  C   UNL     1       5.268   5.926  16.256  0.00  0.00    +0.000 C 
ATOM      3  C   UNL     1       5.148   7.352  16.804  0.00  0.00    +0.000 C 
ATOM      4  C   UNL     1       3.811   7.545  17.510  0.00  0.00    +0.000 C 
ATOM      5  N   UNL     1       3.693   6.679  18.703  0.00  0.00    +0.000 NA
ATOM      6  C   UNL     1       4.050   5.270  18.381  0.00  0.00    +0.000 C 
ENDROOT
BRANCH   1   8
ATOM      7  N   UNL     1       7.604   4.379  17.088  0.00  0.00    +0.000 N 
ATOM      8  C   UNL     1       6.613   4.715  17.954  0.00  0.00    +0.000 C 
ATOM      9  O   UNL     1       6.883   4.826  19.156  0.00  0.00    +0.000 OA
ATOM     10  H   UNL     1       8.513   4.187  17.509  0.00  0.00    +0.000 HD
ATOM     11  H   UNL     1       7.414   3.992  16.172  0.00  0.00    +0.000 HD
ENDBRANCH   1   8
BRANCH   1  12
ATOM     12  C   UNL     1       4.859   3.412  16.884  0.00  0.00    +0.000 C 
BRANCH  12  13
ATOM     13  C   UNL     1       3.419   2.892  17.034  0.00  0.00    +0.000 C 
BRANCH  13  14
ATOM     14  C   UNL     1       3.303   1.724  18.017  0.00  0.00    +0.000 C 
BRANCH  14  15
ATOM     15  C   UNL     1       2.593   2.208  19.263  0.00  0.00    +0.000 A 
ATOM     16  C   UNL     1       1.284   2.677  19.169  0.00  0.00    +0.000 A 
ATOM     17  C   UNL     1       0.687   3.230  20.297  0.00  0.00    +0.000 A 
ATOM     18  C   UNL     1       1.408   3.307  21.482  0.00  0.00    +0.000 A 
ATOM     19  C   UNL     1       2.706   2.822  21.489  0.00  0.00    +0.000 A 
ATOM     20  N   UNL     1       3.306   2.280  20.413  0.00  0.00    +0.000 NA
ENDBRANCH  14  15
ENDBRANCH  13  14
ENDBRANCH  12  13
ENDBRANCH   1  12
BRANCH   5  21
ATOM     21  C   UNL     1       2.245   6.630  19.119  0.00  0.00    +0.000 C 
BRANCH  21  22
ATOM     22  C   UNL     1       1.781   7.753  19.986  0.00  0.00    +0.000 A 
ATOM     23  N   UNL     1       1.290   8.906  19.580  0.00  0.00    +0.000 NA
ATOM     24  C   UNL     1       0.974   9.598  20.717  0.00  0.00    +0.000 A 
ATOM     25  C   UNL     1       1.282   8.854  21.830  0.00  0.00    +0.000 A 
ATOM     26  N   UNL     1       1.792   7.682  21.347  0.00  0.00    +0.000 N 
ATOM     27  H   UNL     1       2.131   6.894  21.887  0.00  0.00    +0.000 HD
ENDBRANCH  21  22
ENDBRANCH   5  21
TORSDOF 7
ENDMDL
MODEL 8
REMARK VINA RESULT:      -7.3      1.166      1.418
REMARK  Name = 
REMARK  7 active torsions:
REMARK  status: ('A' for Active; 'I' for Inactive)
REMARK    1  A    between atoms: C_2  and  C_4
REMARK    2  A    between atoms: C_4  and  C_5
REMARK    3  A    between atoms: C_5  and  C_6
REMARK    4  A    between atoms: C_6  and  C_7
REMARK    5  A    between atoms: C_7  and  C_8
REMARK    6  A    between atoms: N_17  and  C_18
REMARK    7  A    between atoms: C_18  and  C_19
REMARK                            x       y       z     vdW  Elec       q    Type
REMARK                         _______ _______ _______ _____ _____    ______ ____
ROOT
ATOM      1  C   UNL     1       2.351   3.885  20.060  0.00  0.00    +0.000 C 
ATOM      2  C   UNL     1       1.766   3.196  18.808  0.00  0.00    +0.000 C 
ATOM      3  C   UNL     1       2.791   2.256  18.162  0.00  0.00    +0.000 C 
ATOM      4  C   UNL     1       4.034   3.030  17.736  0.00  0.00    +0.000 C 
ATOM      5  N   UNL     1       4.743   3.608  18.897  0.00  0.00    +0.000 NA
ATOM      6  C   UNL     1       3.804   4.345  19.787  0.00  0.00    +0.000 C 
ENDROOT
BRANCH   1   8
ATOM      7  N   UNL     1       0.829   2.625  21.589  0.00  0.00    +0.000 N 
ATOM      8  C   UNL     1       2.112   2.913  21.250  0.00  0.00    +0.000 C 
ATOM      9  O   UNL     1       3.029   2.433  21.925  0.00  0.00    +0.000 OA
ATOM     10  H   UNL     1       0.710   2.060  22.430  0.00  0.00    +0.000 HD
ATOM     11  H   UNL     1       0.047   3.192  21.285  0.00  0.00    +0.000 HD
ENDBRANCH   1   8
BRANCH   1  12
ATOM     12  C   UNL     1       1.540   5.165  20.527  0.00  0.00    +0.000 C 
BRANCH  12  13
ATOM     13  C   UNL     1       2.077   6.547  20.118  0.00  0.00    +0.000 C 
BRANCH  13  14
ATOM     14  C   UNL     1       1.614   7.670  21.051  0.00  0.00    +0.000 C 
BRANCH  14  15
ATOM     15  C   UNL     1       1.045   8.793  20.211  0.00  0.00    +0.000 A 
ATOM     16  C   UNL     1      -0.028   9.538  20.697  0.00  0.00    +0.000 A 
ATOM     17  C   UNL     1      -0.617  10.486  19.866  0.00  0.00    +0.000 A 
ATOM     18  C   UNL     1      -0.128  10.661  18.577  0.00  0.00    +0.000 A 
ATOM     19  C   UNL     1       0.938   9.876  18.171  0.00  0.00    +0.000 A 
ATOM     20  N   UNL     1       1.528   8.955  18.955  0.00  0.00    +0.000 NA
ENDBRANCH  14  15
ENDBRANCH  13  14
ENDBRANCH  12  13
ENDBRANCH   1  12
BRANCH   5  21
ATOM     21  C   UNL     1       5.710   4.651  18.397  0.00  0.00    +0.000 C 
BRANCH  21  22
ATOM     22  C   UNL     1       5.867   4.733  16.915  0.00  0.00    +0.000 A 
ATOM     23  N   UNL     1       5.182   5.503  16.095  0.00  0.00    +0.000 NA
ATOM     24  C   UNL     1       5.692   5.265  14.847  0.00  0.00    +0.000 A 
ATOM     25  C   UNL     1       6.699   4.333  14.912  0.00  0.00    +0.000 A 
ATOM     26  N   UNL     1       6.799   4.007  16.236  0.00  0.00    +0.000 N 
ATOM     27  H   UNL     1       7.439   3.341  16.654  0.00  0.00    +0.000 HD
ENDBRANCH  21  22
ENDBRANCH   5  21
TORSDOF 7
ENDMDL
MODEL 9
REMARK VINA RESULT:      -7.3      2.638      4.616
REMARK  Name = 
REMARK  7 active torsions:
REMARK  status: ('A' for Active; 'I' for Inactive)
REMARK    1  A    between atoms: C_2  and  C_4
REMARK    2  A    between atoms: C_4  and  C_5
REMARK    3  A    between atoms: C_5  and  C_6
REMARK    4  A    between atoms: C_6  and  C_7
REMARK    5  A    between atoms: C_7  and  C_8
REMARK    6  A    between atoms: N_17  and  C_18
REMARK    7  A    between atoms: C_18  and  C_19
REMARK                            x       y       z     vdW  Elec       q    Type
REMARK                         _______ _______ _______ _____ _____    ______ ____
ROOT
ATOM      1  C   UNL     1       4.243   4.426  17.454  0.00  0.00    +0.000 C 
ATOM      2  C   UNL     1       4.816   4.529  16.024  0.00  0.00    +0.000 C 
ATOM      3  C   UNL     1       6.196   3.868  15.931  0.00  0.00    +0.000 C 
ATOM      4  C   UNL     1       7.180   4.542  16.881  0.00  0.00    +0.000 C 
ATOM      5  N   UNL     1       6.781   4.369  18.294  0.00  0.00    +0.000 NA
ATOM      6  C   UNL     1       5.349   4.724  18.496  0.00  0.00    +0.000 C 
ENDROOT
BRANCH   1   8
ATOM      7  N   UNL     1       4.123   2.057  18.236  0.00  0.00    +0.000 N 
ATOM      8  C   UNL     1       3.518   3.054  17.541  0.00  0.00    +0.000 C 
ATOM      9  O   UNL     1       2.447   2.818  16.970  0.00  0.00    +0.000 OA
ATOM     10  H   UNL     1       3.664   1.146  18.194  0.00  0.00    +0.000 HD
ATOM     11  H   UNL     1       5.107   2.081  18.473  0.00  0.00    +0.000 HD
ENDBRANCH   1   8
BRANCH   1  12
ATOM     12  C   UNL     1       3.052   5.434  17.743  0.00  0.00    +0.000 C 
BRANCH  12  13
ATOM     13  C   UNL     1       3.276   6.532  18.796  0.00  0.00    +0.000 C 
BRANCH  13  14
ATOM     14  C   UNL     1       2.257   6.484  19.938  0.00  0.00    +0.000 C 
BRANCH  14  15
ATOM     15  C   UNL     1       2.014   5.037  20.310  0.00  0.00    +0.000 A 
ATOM     16  C   UNL     1       0.890   4.380  19.814  0.00  0.00    +0.000 A 
ATOM     17  C   UNL     1       0.615   3.090  20.259  0.00  0.00    +0.000 A 
ATOM     18  C   UNL     1       1.461   2.495  21.187  0.00  0.00    +0.000 A 
ATOM     19  C   UNL     1       2.555   3.220  21.633  0.00  0.00    +0.000 A 
ATOM     20  N   UNL     1       2.844   4.466  21.216  0.00  0.00    +0.000 NA
ENDBRANCH  14  15
ENDBRANCH  13  14
ENDBRANCH  12  13
ENDBRANCH   1  12
BRANCH   5  21
ATOM     21  C   UNL     1       7.551   5.355  19.134  0.00  0.00    +0.000 C 
BRANCH  21  22
ATOM     22  C   UNL     1       7.711   6.719  18.551  0.00  0.00    +0.000 A 
ATOM     23  N   UNL     1       6.992   7.246  17.581  0.00  0.00    +0.000 NA
ATOM     24  C   UNL     1       7.473   8.515  17.407  0.00  0.00    +0.000 A 
ATOM     25  C   UNL     1       8.502   8.760  18.282  0.00  0.00    +0.000 A 
ATOM     26  N   UNL     1       8.639   7.608  19.005  0.00  0.00    +0.000 N 
ATOM     27  H   UNL     1       9.310   7.425  19.742  0.00  0.00    +0.000 HD
ENDBRANCH  21  22
ENDBRANCH   5  21
TORSDOF 7
ENDMDL
