MODEL 1
REMARK VINA RESULT:      -5.0      0.000      0.000
REMARK  Name = 
REMARK  7 active torsions:
REMARK  status: ('A' for Active; 'I' for Inactive)
REMARK    1  A    between atoms: C_1  and  C_2
REMARK    2  A    between atoms: C_2  and  N_3
REMARK    3  A    between atoms: C_2  and  C_4
REMARK    4  A    between atoms: N_6  and  O_7
REMARK    5  A    between atoms: N_6  and  C_8
REMARK    6  A    between atoms: C_8  and  C_9
REMARK    7  A    between atoms: C_9  and  O_11
REMARK                            x       y       z     vdW  Elec       q    Type
REMARK                         _______ _______ _______ _____ _____    ______ ____
ROOT
ATOM      1  C   UNL     1       6.267   5.520  15.504  0.00  0.00    +0.000 C 
ATOM      2  O   UNL     1       5.261   6.180  15.237  0.00  0.00    +0.000 OA
ATOM      3  N   UNL     1       6.821   5.518  16.775  0.00  0.00    +0.000 N 
ENDROOT
BRANCH   1   5
ATOM      4  C   UNL     1       5.972   3.996  13.519  0.00  0.00    +0.000 C 
ATOM      5  C   UNL     1       6.988   4.661  14.441  0.00  0.00    +0.000 C 
BRANCH   5   6
ATOM      6  N   UNL     1       7.927   5.506  13.682  0.00  0.00    +0.000 NA
ATOM      7  H   UNL     1       8.189   6.302  14.270  0.00  0.00    +0.000 HD
ATOM      8  H   UNL     1       7.429   5.917  12.892  0.00  0.00    +0.000 HD
ENDBRANCH   5   6
ENDBRANCH   1   5
BRANCH   3   9
ATOM      9  O   UNL     1       7.833   4.581  17.064  0.00  0.00    +0.000 OA
ATOM     10  H   UNL     1       8.422   5.118  17.637  0.00  0.00    +0.000 HD
ENDBRANCH   3   9
BRANCH   3  11
ATOM     11  C   UNL     1       5.979   5.833  17.930  0.00  0.00    +0.000 C 
BRANCH  11  12
ATOM     12  C   UNL     1       6.281   4.881  19.091  0.00  0.00    +0.000 C 
ATOM     13  O   UNL     1       7.061   5.137  19.996  0.00  0.00    +0.000 OA
BRANCH  12  14
ATOM     14  O   UNL     1       5.693   3.664  18.968  0.00  0.00    +0.000 OA
ATOM     15  H   UNL     1       4.801   3.765  18.561  0.00  0.00    +0.000 HD
ENDBRANCH  12  14
ENDBRANCH  11  12
ENDBRANCH   3  11
TORSDOF 6
ENDMDL
MODEL 2
REMARK VINA RESULT:      -4.9      3.279      4.703
REMARK  Name = 
REMARK  7 active torsions:
REMARK  status: ('A' for Active; 'I' for Inactive)
REMARK    1  A    between atoms: C_1  and  C_2
REMARK    2  A    between atoms: C_2  and  N_3
REMARK    3  A    between atoms: C_2  and  C_4
REMARK    4  A    between atoms: N_6  and  O_7
REMARK    5  A    between atoms: N_6  and  C_8
REMARK    6  A    between atoms: C_8  and  C_9
REMARK    7  A    between atoms: C_9  and  O_11
REMARK                            x       y       z     vdW  Elec       q    Type
REMARK                         _______ _______ _______ _____ _____    ______ ____
ROOT
ATOM      1  C   UNL     1       3.367   3.763  18.459  0.00  0.00    +0.000 C 
ATOM      2  O   UNL     1       2.709   4.584  17.818  0.00  0.00    +0.000 OA
ATOM      3  N   UNL     1       4.751   3.819  18.509  0.00  0.00    +0.000 N 
ENDROOT
BRANCH   1   5
ATOM      4  C   UNL     1       1.218   2.898  19.450  0.00  0.00    +0.000 C 
ATOM      5  C   UNL     1       2.700   2.609  19.240  0.00  0.00    +0.000 C 
BRANCH   5   6
ATOM      6  N   UNL     1       2.900   1.343  18.511  0.00  0.00    +0.000 NA
ATOM      7  H   UNL     1       2.716   1.513  17.519  0.00  0.00    +0.000 HD
ATOM      8  H   UNL     1       2.179   0.683  18.802  0.00  0.00    +0.000 HD
ENDBRANCH   5   6
ENDBRANCH   1   5
BRANCH   3   9
ATOM      9  O   UNL     1       5.424   2.988  19.427  0.00  0.00    +0.000 OA
ATOM     10  H   UNL     1       6.181   2.685  18.881  0.00  0.00    +0.000 HD
ENDBRANCH   3   9
BRANCH   3  11
ATOM     11  C   UNL     1       5.432   5.094  18.279  0.00  0.00    +0.000 C 
BRANCH  11  12
ATOM     12  C   UNL     1       6.902   5.002  18.696  0.00  0.00    +0.000 C 
ATOM     13  O   UNL     1       7.764   4.445  18.032  0.00  0.00    +0.000 OA
BRANCH  12  14
ATOM     14  O   UNL     1       7.152   5.493  19.936  0.00  0.00    +0.000 OA
ATOM     15  H   UNL     1       7.683   6.320  19.867  0.00  0.00    +0.000 HD
ENDBRANCH  12  14
ENDBRANCH  11  12
ENDBRANCH   3  11
TORSDOF 6
ENDMDL
MODEL 3
REMARK VINA RESULT:      -4.9      2.516      4.772
REMARK  Name = 
REMARK  7 active torsions:
REMARK  status: ('A' for Active; 'I' for Inactive)
REMARK    1  A    between atoms: C_1  and  C_2
REMARK    2  A    between atoms: C_2  and  N_3
REMARK    3  A    between atoms: C_2  and  C_4
REMARK    4  A    between atoms: N_6  and  O_7
REMARK    5  A    between atoms: N_6  and  C_8
REMARK    6  A    between atoms: C_8  and  C_9
REMARK    7  A    between atoms: C_9  and  O_11
REMARK                            x       y       z     vdW  Elec       q    Type
REMARK                         _______ _______ _______ _____ _____    ______ ____
ROOT
ATOM      1  C   UNL     1       6.128   4.231  16.266  0.00  0.00    +0.000 C 
ATOM      2  O   UNL     1       5.095   3.611  16.523  0.00  0.00    +0.000 OA
ATOM      3  N   UNL     1       6.623   4.319  14.973  0.00  0.00    +0.000 N 
ENDROOT
BRANCH   1   5
ATOM      4  C   UNL     1       6.100   5.157  18.609  0.00  0.00    +0.000 C 
ATOM      5  C   UNL     1       6.952   4.942  17.363  0.00  0.00    +0.000 C 
BRANCH   5   6
ATOM      6  N   UNL     1       8.154   4.144  17.667  0.00  0.00    +0.000 NA
ATOM      7  H   UNL     1       7.901   3.435  18.360  0.00  0.00    +0.000 HD
ATOM      8  H   UNL     1       8.829   4.743  18.143  0.00  0.00    +0.000 HD
ENDBRANCH   5   6
ENDBRANCH   1   5
BRANCH   3   9
ATOM      9  O   UNL     1       7.679   5.215  14.718  0.00  0.00    +0.000 OA
ATOM     10  H   UNL     1       8.450   4.608  14.758  0.00  0.00    +0.000 HD
ENDBRANCH   3   9
BRANCH   3  11
ATOM     11  C   UNL     1       5.710   4.165  13.839  0.00  0.00    +0.000 C 
BRANCH  11  12
ATOM     12  C   UNL     1       6.464   3.653  12.608  0.00  0.00    +0.000 C 
ATOM     13  O   UNL     1       7.281   4.315  11.986  0.00  0.00    +0.000 OA
BRANCH  12  14
ATOM     14  O   UNL     1       6.059   2.428  12.188  0.00  0.00    +0.000 OA
ATOM     15  H   UNL     1       5.933   1.834  12.964  0.00  0.00    +0.000 HD
ENDBRANCH  12  14
ENDBRANCH  11  12
ENDBRANCH   3  11
TORSDOF 6
ENDMDL
MODEL 4
REMARK VINA RESULT:      -4.9      1.870      4.402
REMARK  Name = 
REMARK  7 active torsions:
REMARK  status: ('A' for Active; 'I' for Inactive)
REMARK    1  A    between atoms: C_1  and  C_2
REMARK    2  A    between atoms: C_2  and  N_3
REMARK    3  A    between atoms: C_2  and  C_4
REMARK    4  A    between atoms: N_6  and  O_7
REMARK    5  A    between atoms: N_6  and  C_8
REMARK    6  A    between atoms: C_8  and  C_9
REMARK    7  A    between atoms: C_9  and  O_11
REMARK                            x       y       z     vdW  Elec       q    Type
REMARK                         _______ _______ _______ _____ _____    ______ ____
ROOT
ATOM      1  C   UNL     1       6.605   5.046  18.418  0.00  0.00    +0.000 C 
ATOM      2  O   UNL     1       5.554   5.143  19.054  0.00  0.00    +0.000 OA
ATOM      3  N   UNL     1       6.670   4.349  17.222  0.00  0.00    +0.000 N 
ENDROOT
BRANCH   1   5
ATOM      4  C   UNL     1       8.008   7.137  18.478  0.00  0.00    +0.000 C 
ATOM      5  C   UNL     1       7.924   5.679  18.914  0.00  0.00    +0.000 C 
BRANCH   5   6
ATOM      6  N   UNL     1       8.008   5.553  20.381  0.00  0.00    +0.000 NA
ATOM      7  H   UNL     1       8.940   5.206  20.620  0.00  0.00    +0.000 HD
ATOM      8  H   UNL     1       7.370   4.816  20.681  0.00  0.00    +0.000 HD
ENDBRANCH   5   6
ENDBRANCH   1   5
BRANCH   3   9
ATOM      9  O   UNL     1       7.840   4.458  16.444  0.00  0.00    +0.000 OA
ATOM     10  H   UNL     1       7.735   5.363  16.078  0.00  0.00    +0.000 HD
ENDBRANCH   3   9
BRANCH   3  11
ATOM     11  C   UNL     1       5.458   4.177  16.419  0.00  0.00    +0.000 C 
BRANCH  11  12
ATOM     12  C   UNL     1       5.604   4.883  15.068  0.00  0.00    +0.000 C 
ATOM     13  O   UNL     1       5.805   4.300  14.013  0.00  0.00    +0.000 OA
BRANCH  12  14
ATOM     14  O   UNL     1       5.610   6.237  15.156  0.00  0.00    +0.000 OA
ATOM     15  H   UNL     1       5.886   6.626  14.293  0.00  0.00    +0.000 HD
ENDBRANCH  12  14
ENDBRANCH  11  12
ENDBRANCH   3  11
TORSDOF 6
ENDMDL
MODEL 5
REMARK VINA RESULT:      -4.8      2.632      4.531
REMARK  Name = 
REMARK  7 active torsions:
REMARK  status: ('A' for Active; 'I' for Inactive)
REMARK    1  A    between atoms: C_1  and  C_2
REMARK    2  A    between atoms: C_2  and  N_3
REMARK    3  A    between atoms: C_2  and  C_4
REMARK    4  A    between atoms: N_6  and  O_7
REMARK    5  A    between atoms: N_6  and  C_8
REMARK    6  A    between atoms: C_8  and  C_9
REMARK    7  A    between atoms: C_9  and  O_11
REMARK                            x       y       z     vdW  Elec       q    Type
REMARK                         _______ _______ _______ _____ _____    ______ ____
ROOT
ATOM      1  C   UNL     1       4.183   4.008  18.256  0.00  0.00    +0.000 C 
ATOM      2  O   UNL     1       3.107   4.296  17.728  0.00  0.00    +0.000 OA
ATOM      3  N   UNL     1       5.392   4.241  17.618  0.00  0.00    +0.000 N 
ENDROOT
BRANCH   1   5
ATOM      4  C   UNL     1       2.868   3.236  20.262  0.00  0.00    +0.000 C 
ATOM      5  C   UNL     1       4.261   3.355  19.653  0.00  0.00    +0.000 C 
BRANCH   5   6
ATOM      6  N   UNL     1       4.911   2.036  19.544  0.00  0.00    +0.000 NA
ATOM      7  H   UNL     1       5.016   1.651  20.486  0.00  0.00    +0.000 HD
ATOM      8  H   UNL     1       5.865   2.171  19.209  0.00  0.00    +0.000 HD
ENDBRANCH   5   6
ENDBRANCH   1   5
BRANCH   3   9
ATOM      9  O   UNL     1       6.581   4.090  18.359  0.00  0.00    +0.000 OA
ATOM     10  H   UNL     1       6.527   4.868  18.955  0.00  0.00    +0.000 HD
ENDBRANCH   3   9
BRANCH   3  11
ATOM     11  C   UNL     1       5.479   5.283  16.594  0.00  0.00    +0.000 C 
BRANCH  11  12
ATOM     12  C   UNL     1       6.942   5.595  16.267  0.00  0.00    +0.000 C 
ATOM     13  O   UNL     1       7.515   6.617  16.615  0.00  0.00    +0.000 OA
BRANCH  12  14
ATOM     14  O   UNL     1       7.526   4.685  15.448  0.00  0.00    +0.000 OA
ATOM     15  H   UNL     1       8.229   5.121  14.913  0.00  0.00    +0.000 HD
ENDBRANCH  12  14
ENDBRANCH  11  12
ENDBRANCH   3  11
TORSDOF 6
ENDMDL
MODEL 6
REMARK VINA RESULT:      -4.8      3.529      4.780
REMARK  Name = 
REMARK  7 active torsions:
REMARK  status: ('A' for Active; 'I' for Inactive)
REMARK    1  A    between atoms: C_1  and  C_2
REMARK    2  A    between atoms: C_2  and  N_3
REMARK    3  A    between atoms: C_2  and  C_4
REMARK    4  A    between atoms: N_6  and  O_7
REMARK    5  A    between atoms: N_6  and  C_8
REMARK    6  A    between atoms: C_8  and  C_9
REMARK    7  A    between atoms: C_9  and  O_11
REMARK                            x       y       z     vdW  Elec       q    Type
REMARK                         _______ _______ _______ _____ _____    ______ ____
ROOT
ATOM      1  C   UNL     1       4.332   4.402  18.828  0.00  0.00    +0.000 C 
ATOM      2  O   UNL     1       3.438   5.150  18.429  0.00  0.00    +0.000 OA
ATOM      3  N   UNL     1       4.060   3.315  19.645  0.00  0.00    +0.000 N 
ENDROOT
BRANCH   1   5
ATOM      4  C   UNL     1       5.928   5.583  17.277  0.00  0.00    +0.000 C 
ATOM      5  C   UNL     1       5.815   4.629  18.461  0.00  0.00    +0.000 C 
BRANCH   5   6
ATOM      6  N   UNL     1       6.537   5.148  19.637  0.00  0.00    +0.000 NA
ATOM      7  H   UNL     1       7.354   4.553  19.799  0.00  0.00    +0.000 HD
ATOM      8  H   UNL     1       5.952   5.018  20.462  0.00  0.00    +0.000 HD
ENDBRANCH   5   6
ENDBRANCH   1   5
BRANCH   3   9
ATOM      9  O   UNL     1       5.090   2.383  19.886  0.00  0.00    +0.000 OA
ATOM     10  H   UNL     1       5.627   2.486  19.071  0.00  0.00    +0.000 HD
ENDBRANCH   3   9
BRANCH   3  11
ATOM     11  C   UNL     1       2.728   2.709  19.621  0.00  0.00    +0.000 C 
BRANCH  11  12
ATOM     12  C   UNL     1       2.094   2.751  21.015  0.00  0.00    +0.000 C 
ATOM     13  O   UNL     1       2.710   2.545  22.050  0.00  0.00    +0.000 OA
BRANCH  12  14
ATOM     14  O   UNL     1       0.748   2.921  20.998  0.00  0.00    +0.000 OA
ATOM     15  H   UNL     1       0.522   3.825  21.320  0.00  0.00    +0.000 HD
ENDBRANCH  12  14
ENDBRANCH  11  12
ENDBRANCH   3  11
TORSDOF 6
ENDMDL
MODEL 7
REMARK VINA RESULT:      -4.8      3.147      4.455
REMARK  Name = 
REMARK  7 active torsions:
REMARK  status: ('A' for Active; 'I' for Inactive)
REMARK    1  A    between atoms: C_1  and  C_2
REMARK    2  A    between atoms: C_2  and  N_3
REMARK    3  A    between atoms: C_2  and  C_4
REMARK    4  A    between atoms: N_6  and  O_7
REMARK    5  A    between atoms: N_6  and  C_8
REMARK    6  A    between atoms: C_8  and  C_9
REMARK    7  A    between atoms: C_9  and  O_11
REMARK                            x       y       z     vdW  Elec       q    Type
REMARK                         _______ _______ _______ _____ _____    ______ ____
ROOT
ATOM      1  C   UNL     1       3.651   3.940  18.057  0.00  0.00    +0.000 C 
ATOM      2  O   UNL     1       3.140   4.759  17.290  0.00  0.00    +0.000 OA
ATOM      3  N   UNL     1       5.011   3.945  18.325  0.00  0.00    +0.000 N 
ENDROOT
BRANCH   1   5
ATOM      4  C   UNL     1       1.330   3.165  18.661  0.00  0.00    +0.000 C 
ATOM      5  C   UNL     1       2.818   2.846  18.761  0.00  0.00    +0.000 C 
BRANCH   5   6
ATOM      6  N   UNL     1       3.126   1.534  18.163  0.00  0.00    +0.000 NA
ATOM      7  H   UNL     1       3.488   0.924  18.900  0.00  0.00    +0.000 HD
ATOM      8  H   UNL     1       3.903   1.648  17.512  0.00  0.00    +0.000 HD
ENDBRANCH   5   6
ENDBRANCH   1   5
BRANCH   3   9
ATOM      9  O   UNL     1       5.493   3.128  19.368  0.00  0.00    +0.000 OA
ATOM     10  H   UNL     1       6.443   3.374  19.370  0.00  0.00    +0.000 HD
ENDBRANCH   3   9
BRANCH   3  11
ATOM     11  C   UNL     1       5.775   5.182  18.162  0.00  0.00    +0.000 C 
BRANCH  11  12
ATOM     12  C   UNL     1       7.065   4.919  17.379  0.00  0.00    +0.000 C 
ATOM     13  O   UNL     1       7.316   5.421  16.294  0.00  0.00    +0.000 OA
BRANCH  12  14
ATOM     14  O   UNL     1       7.864   3.978  17.941  0.00  0.00    +0.000 OA
ATOM     15  H   UNL     1       7.542   3.079  17.700  0.00  0.00    +0.000 HD
ENDBRANCH  12  14
ENDBRANCH  11  12
ENDBRANCH   3  11
TORSDOF 6
ENDMDL
MODEL 8
REMARK VINA RESULT:      -4.8      3.430      4.488
REMARK  Name = 
REMARK  7 active torsions:
REMARK  status: ('A' for Active; 'I' for Inactive)
REMARK    1  A    between atoms: C_1  and  C_2
REMARK    2  A    between atoms: C_2  and  N_3
REMARK    3  A    between atoms: C_2  and  C_4
REMARK    4  A    between atoms: N_6  and  O_7
REMARK    5  A    between atoms: N_6  and  C_8
REMARK    6  A    between atoms: C_8  and  C_9
REMARK    7  A    between atoms: C_9  and  O_11
REMARK                            x       y       z     vdW  Elec       q    Type
REMARK                         _______ _______ _______ _____ _____    ______ ____
ROOT
ATOM      1  C   UNL     1       4.765   5.116  18.874  0.00  0.00    +0.000 C 
ATOM      2  O   UNL     1       3.990   6.050  18.659  0.00  0.00    +0.000 OA
ATOM      3  N   UNL     1       4.332   3.925  19.436  0.00  0.00    +0.000 N 
ENDROOT
BRANCH   1   5
ATOM      4  C   UNL     1       6.541   6.396  17.626  0.00  0.00    +0.000 C 
ATOM      5  C   UNL     1       6.272   5.211  18.547  0.00  0.00    +0.000 C 
BRANCH   5   6
ATOM      6  N   UNL     1       7.040   5.322  19.801  0.00  0.00    +0.000 NA
ATOM      7  H   UNL     1       6.577   6.011  20.400  0.00  0.00    +0.000 HD
ATOM      8  H   UNL     1       7.951   5.730  19.589  0.00  0.00    +0.000 HD
ENDBRANCH   5   6
ENDBRANCH   1   5
BRANCH   3   9
ATOM      9  O   UNL     1       5.219   2.830  19.454  0.00  0.00    +0.000 OA
ATOM     10  H   UNL     1       4.687   2.170  19.949  0.00  0.00    +0.000 HD
ENDBRANCH   3   9
BRANCH   3  11
ATOM     11  C   UNL     1       2.930   3.529  19.297  0.00  0.00    +0.000 C 
BRANCH  11  12
ATOM     12  C   UNL     1       2.729   2.698  18.026  0.00  0.00    +0.000 C 
ATOM     13  O   UNL     1       2.247   3.140  16.994  0.00  0.00    +0.000 OA
BRANCH  12  14
ATOM     14  O   UNL     1       3.026   1.383  18.179  0.00  0.00    +0.000 OA
ATOM     15  H   UNL     1       2.878   1.115  19.116  0.00  0.00    +0.000 HD
ENDBRANCH  12  14
ENDBRANCH  11  12
ENDBRANCH   3  11
TORSDOF 6
ENDMDL
MODEL 9
REMARK VINA RESULT:      -4.8      2.754      3.886
REMARK  Name = 
REMARK  7 active torsions:
REMARK  status: ('A' for Active; 'I' for Inactive)
REMARK    1  A    between atoms: C_1  and  C_2
REMARK    2  A    between atoms: C_2  and  N_3
REMARK    3  A    between atoms: C_2  and  C_4
REMARK    4  A    between atoms: N_6  and  O_7
REMARK    5  A    between atoms: N_6  and  C_8
REMARK    6  A    between atoms: C_8  and  C_9
REMARK    7  A    between atoms: C_9  and  O_11
REMARK                            x       y       z     vdW  Elec       q    Type
REMARK                         _______ _______ _______ _____ _____    ______ ____
ROOT
ATOM      1  C   UNL     1       5.832   4.799  18.345  0.00  0.00    +0.000 C 
ATOM      2  O   UNL     1       5.416   5.289  19.396  0.00  0.00    +0.000 OA
ATOM      3  N   UNL     1       5.138   3.797  17.683  0.00  0.00    +0.000 N 
ENDROOT
BRANCH   1   5
ATOM      4  C   UNL     1       7.731   6.452  18.449  0.00  0.00    +0.000 C 
ATOM      5  C   UNL     1       7.160   5.254  17.698  0.00  0.00    +0.000 C 
BRANCH   5   6
ATOM      6  N   UNL     1       8.111   4.127  17.686  0.00  0.00    +0.000 NA
ATOM      7  H   UNL     1       7.615   3.286  17.993  0.00  0.00    +0.000 HD
ATOM      8  H   UNL     1       8.817   4.290  18.403  0.00  0.00    +0.000 HD
ENDBRANCH   5   6
ENDBRANCH   1   5
BRANCH   3   9
ATOM      9  O   UNL     1       5.555   3.436  16.386  0.00  0.00    +0.000 OA
ATOM     10  H   UNL     1       6.310   4.050  16.258  0.00  0.00    +0.000 HD
ENDBRANCH   3   9
BRANCH   3  11
ATOM     11  C   UNL     1       3.694   3.666  17.882  0.00  0.00    +0.000 C 
BRANCH  11  12
ATOM     12  C   UNL     1       3.362   2.326  18.543  0.00  0.00    +0.000 C 
ATOM     13  O   UNL     1       2.563   2.198  19.459  0.00  0.00    +0.000 OA
BRANCH  12  14
ATOM     14  O   UNL     1       4.124   1.294  18.101  0.00  0.00    +0.000 OA
ATOM     15  H   UNL     1       3.766   0.957  17.246  0.00  0.00    +0.000 HD
ENDBRANCH  12  14
ENDBRANCH  11  12
ENDBRANCH   3  11
TORSDOF 6
ENDMDL
