MODEL 1
REMARK VINA RESULT:      -8.5      0.000      0.000
REMARK  Name = 
REMARK  6 active torsions:
REMARK  status: ('A' for Active; 'I' for Inactive)
REMARK    1  A    between atoms: C_1  and  O_2
REMARK    2  A    between atoms: O_2  and  C_3
REMARK    3  A    between atoms: C_6  and  C_7
REMARK    4  A    between atoms: C_11  and  C_12
REMARK    5  A    between atoms: N_14  and  C_15
REMARK    6  A    between atoms: C_15  and  C_16
REMARK                            x       y       z     vdW  Elec       q    Type
REMARK                         _______ _______ _______ _____ _____    ______ ____
ROOT
ATOM      1  C   UNL     1       3.110   4.271  19.410  0.00  0.00    +0.000 A 
ATOM      2  N   UNL     1       2.560   3.081  19.863  0.00  0.00    +0.000 N 
ATOM      3  N   UNL     1       1.479   3.228  20.621  0.00  0.00    +0.000 NA
ATOM      4  C   UNL     1       1.314   4.552  20.673  0.00  0.00    +0.000 A 
ATOM      5  C   UNL     1       2.269   5.264  19.913  0.00  0.00    +0.000 A 
ATOM      6  H   UNL     1       2.898   2.145  19.683  0.00  0.00    +0.000 HD
ENDROOT
BRANCH   1  10
ATOM      7  C   UNL     1       6.516   4.787  16.881  0.00  0.00    +0.000 A 
ATOM      8  C   UNL     1       5.375   4.131  16.399  0.00  0.00    +0.000 A 
ATOM      9  C   UNL     1       4.280   3.893  17.229  0.00  0.00    +0.000 A 
ATOM     10  C   UNL     1       4.315   4.281  18.575  0.00  0.00    +0.000 A 
ATOM     11  C   UNL     1       5.517   4.773  19.086  0.00  0.00    +0.000 A 
ATOM     12  C   UNL     1       6.595   5.080  18.246  0.00  0.00    +0.000 A 
ATOM     13 CL   UNL     1       7.857   5.980  19.006  0.00  0.00    +0.000 Cl
BRANCH   7  15
ATOM     14  C   UNL     1       7.035   4.806  14.545  0.00  0.00    +0.000 C 
ATOM     15  O   UNL     1       7.345   5.195  15.872  0.00  0.00    +0.000 OA
ENDBRANCH   7  15
ENDBRANCH   1  10
BRANCH   5  16
ATOM     16  C   UNL     1       2.263   6.726  19.800  0.00  0.00    +0.000 C 
ATOM     17  O   UNL     1       2.832   7.287  18.881  0.00  0.00    +0.000 OA
ATOM     18  N   UNL     1       1.646   7.421  20.823  0.00  0.00    +0.000 N 
ATOM     19  H   UNL     1       1.305   6.900  21.614  0.00  0.00    +0.000 HD
BRANCH  18  20
ATOM     20  C   UNL     1       1.536   8.883  20.836  0.00  0.00    +0.000 C 
BRANCH  20  21
ATOM     21  C   UNL     1       0.262   9.366  20.098  0.00  0.00    +0.000 C 
ATOM     22  C   UNL     1       0.551   9.696  18.632  0.00  0.00    +0.000 C 
ATOM     23  C   UNL     1       1.487  10.890  18.501  0.00  0.00    +0.000 C 
ATOM     24  C   UNL     1       1.296  12.025  19.521  0.00  0.00    +0.000 C 
ATOM     25  N   UNL     1       0.525  11.765  20.733  0.00  0.00    +0.000 NA
ATOM     26  C   UNL     1      -0.068  12.994  21.289  0.00  0.00    +0.000 C 
ATOM     27  C   UNL     1      -0.567  12.758  22.713  0.00  0.00    +0.000 C 
ATOM     28  C   UNL     1      -1.563  11.607  22.748  0.00  0.00    +0.000 C 
ATOM     29  C   UNL     1      -0.910  10.369  22.140  0.00  0.00    +0.000 C 
ATOM     30  C   UNL     1      -0.400  10.631  20.712  0.00  0.00    +0.000 C 
ENDBRANCH  20  21
ENDBRANCH  18  20
ENDBRANCH   5  16
TORSDOF 5
ENDMDL
MODEL 2
REMARK VINA RESULT:      -8.4      3.791      8.583
REMARK  Name = 
REMARK  6 active torsions:
REMARK  status: ('A' for Active; 'I' for Inactive)
REMARK    1  A    between atoms: C_1  and  O_2
REMARK    2  A    between atoms: O_2  and  C_3
REMARK    3  A    between atoms: C_6  and  C_7
REMARK    4  A    between atoms: C_11  and  C_12
REMARK    5  A    between atoms: N_14  and  C_15
REMARK    6  A    between atoms: C_15  and  C_16
REMARK                            x       y       z     vdW  Elec       q    Type
REMARK                         _______ _______ _______ _____ _____    ______ ____
ROOT
ATOM      1  C   UNL     1      -0.310  10.184  20.152  0.00  0.00    +0.000 A 
ATOM      2  N   UNL     1      -0.601  10.588  21.446  0.00  0.00    +0.000 N 
ATOM      3  N   UNL     1       0.270  10.174  22.360  0.00  0.00    +0.000 NA
ATOM      4  C   UNL     1       1.157   9.474  21.649  0.00  0.00    +0.000 A 
ATOM      5  C   UNL     1       0.882   9.467  20.263  0.00  0.00    +0.000 A 
ATOM      6  H   UNL     1      -1.390  11.142  21.750  0.00  0.00    +0.000 HD
ENDROOT
BRANCH   1  10
ATOM      7  C   UNL     1      -3.168  10.876  17.050  0.00  0.00    +0.000 A 
ATOM      8  C   UNL     1      -2.003  10.143  16.783  0.00  0.00    +0.000 A 
ATOM      9  C   UNL     1      -1.027   9.964  17.764  0.00  0.00    +0.000 A 
ATOM     10  C   UNL     1      -1.182  10.544  19.030  0.00  0.00    +0.000 A 
ATOM     11  C   UNL     1      -2.256  11.413  19.227  0.00  0.00    +0.000 A 
ATOM     12  C   UNL     1      -3.274  11.542  18.275  0.00  0.00    +0.000 A 
ATOM     13 CL   UNL     1      -4.668  12.395  18.832  0.00  0.00    +0.000 Cl
BRANCH   7  15
ATOM     14  C   UNL     1      -3.715  10.353  14.780  0.00  0.00    +0.000 C 
ATOM     15  O   UNL     1      -4.127  10.693  16.093  0.00  0.00    +0.000 OA
ENDBRANCH   7  15
ENDBRANCH   1  10
BRANCH   5  16
ATOM     16  C   UNL     1       1.739   8.786  19.287  0.00  0.00    +0.000 C 
ATOM     17  O   UNL     1       2.061   9.331  18.247  0.00  0.00    +0.000 OA
ATOM     18  N   UNL     1       2.091   7.482  19.580  0.00  0.00    +0.000 N 
ATOM     19  H   UNL     1       1.687   7.052  20.396  0.00  0.00    +0.000 HD
BRANCH  18  20
ATOM     20  C   UNL     1       2.964   6.683  18.716  0.00  0.00    +0.000 C 
BRANCH  20  21
ATOM     21  C   UNL     1       3.720   5.594  19.518  0.00  0.00    +0.000 C 
ATOM     22  C   UNL     1       5.131   5.369  18.970  0.00  0.00    +0.000 C 
ATOM     23  C   UNL     1       5.100   4.788  17.563  0.00  0.00    +0.000 C 
ATOM     24  C   UNL     1       3.990   3.765  17.269  0.00  0.00    +0.000 C 
ATOM     25  N   UNL     1       2.851   3.677  18.177  0.00  0.00    +0.000 NA
ATOM     26  C   UNL     1       2.214   2.348  18.143  0.00  0.00    +0.000 C 
ATOM     27  C   UNL     1       0.846   2.385  18.823  0.00  0.00    +0.000 C 
ATOM     28  C   UNL     1       0.973   2.894  20.252  0.00  0.00    +0.000 C 
ATOM     29  C   UNL     1       1.658   4.258  20.234  0.00  0.00    +0.000 C 
ATOM     30  C   UNL     1       3.026   4.203  19.532  0.00  0.00    +0.000 C 
ENDBRANCH  20  21
ENDBRANCH  18  20
ENDBRANCH   5  16
TORSDOF 5
ENDMDL
MODEL 3
REMARK VINA RESULT:      -8.2      3.768      8.807
REMARK  Name = 
REMARK  6 active torsions:
REMARK  status: ('A' for Active; 'I' for Inactive)
REMARK    1  A    between atoms: C_1  and  O_2
REMARK    2  A    between atoms: O_2  and  C_3
REMARK    3  A    between atoms: C_6  and  C_7
REMARK    4  A    between atoms: C_11  and  C_12
REMARK    5  A    between atoms: N_14  and  C_15
REMARK    6  A    between atoms: C_15  and  C_16
REMARK                            x       y       z     vdW  Elec       q    Type
REMARK                         _______ _______ _______ _____ _____    ______ ____
ROOT
ATOM      1  C   UNL     1      -0.178  10.179  21.020  0.00  0.00    +0.000 A 
ATOM      2  N   UNL     1      -0.342  10.430  22.373  0.00  0.00    +0.000 N 
ATOM      3  N   UNL     1       0.533   9.810  23.158  0.00  0.00    +0.000 NA
ATOM      4  C   UNL     1       1.292   9.128  22.298  0.00  0.00    +0.000 A 
ATOM      5  C   UNL     1       0.933   9.338  20.947  0.00  0.00    +0.000 A 
ATOM      6  H   UNL     1      -1.046  11.014  22.805  0.00  0.00    +0.000 HD
ENDROOT
BRANCH   1  10
ATOM      7  C   UNL     1      -3.155  11.643  18.326  0.00  0.00    +0.000 A 
ATOM      8  C   UNL     1      -2.256  10.651  17.910  0.00  0.00    +0.000 A 
ATOM      9  C   UNL     1      -1.235  10.209  18.751  0.00  0.00    +0.000 A 
ATOM     10  C   UNL     1      -1.072  10.775  20.023  0.00  0.00    +0.000 A 
ATOM     11  C   UNL     1      -1.860  11.878  20.357  0.00  0.00    +0.000 A 
ATOM     12  C   UNL     1      -2.930  12.281  19.549  0.00  0.00    +0.000 A 
ATOM     13 CL   UNL     1      -3.980  13.438  20.283  0.00  0.00    +0.000 Cl
BRANCH   7  15
ATOM     14  C   UNL     1      -5.462  11.139  17.937  0.00  0.00    +0.000 C 
ATOM     15  O   UNL     1      -4.248  11.730  17.507  0.00  0.00    +0.000 OA
ENDBRANCH   7  15
ENDBRANCH   1  10
BRANCH   5  16
ATOM     16  C   UNL     1       1.648   8.713  19.829  0.00  0.00    +0.000 C 
ATOM     17  O   UNL     1       1.777   9.292  18.766  0.00  0.00    +0.000 OA
ATOM     18  N   UNL     1       2.095   7.420  20.028  0.00  0.00    +0.000 N 
ATOM     19  H   UNL     1       1.845   6.958  20.887  0.00  0.00    +0.000 HD
BRANCH  18  20
ATOM     20  C   UNL     1       2.849   6.677  19.015  0.00  0.00    +0.000 C 
BRANCH  20  21
ATOM     21  C   UNL     1       3.666   5.521  19.646  0.00  0.00    +0.000 C 
ATOM     22  C   UNL     1       5.033   5.368  18.976  0.00  0.00    +0.000 C 
ATOM     23  C   UNL     1       4.900   4.930  17.523  0.00  0.00    +0.000 C 
ATOM     24  C   UNL     1       3.775   3.930  17.211  0.00  0.00    +0.000 C 
ATOM     25  N   UNL     1       2.706   3.739  18.186  0.00  0.00    +0.000 NA
ATOM     26  C   UNL     1       2.073   2.413  18.065  0.00  0.00    +0.000 C 
ATOM     27  C   UNL     1       0.760   2.367  18.844  0.00  0.00    +0.000 C 
ATOM     28  C   UNL     1       0.991   2.732  20.305  0.00  0.00    +0.000 C 
ATOM     29  C   UNL     1       1.668   4.097  20.373  0.00  0.00    +0.000 C 
ATOM     30  C   UNL     1       2.980   4.128  19.570  0.00  0.00    +0.000 C 
ENDBRANCH  20  21
ENDBRANCH  18  20
ENDBRANCH   5  16
TORSDOF 5
ENDMDL
MODEL 4
REMARK VINA RESULT:      -7.9      1.342      1.511
REMARK  Name = 
REMARK  6 active torsions:
REMARK  status: ('A' for Active; 'I' for Inactive)
REMARK    1  A    between atoms: C_1  and  O_2
REMARK    2  A    between atoms: O_2  and  C_3
REMARK    3  A    between atoms: C_6  and  C_7
REMARK    4  A    between atoms: C_11  and  C_12
REMARK    5  A    between atoms: N_14  and  C_15
REMARK    6  A    between atoms: C_15  and  C_16
REMARK                            x       y       z     vdW  Elec       q    Type
REMARK                         _______ _______ _______ _____ _____    ______ ____
ROOT
ATOM      1  C   UNL     1       3.207   5.266  19.494  0.00  0.00    +0.000 A 
ATOM      2  N   UNL     1       2.841   3.971  19.831  0.00  0.00    +0.000 N 
ATOM      3  N   UNL     1       1.722   3.883  20.541  0.00  0.00    +0.000 NA
ATOM      4  C   UNL     1       1.342   5.155  20.682  0.00  0.00    +0.000 A 
ATOM      5  C   UNL     1       2.196   6.069  20.025  0.00  0.00    +0.000 A 
ATOM      6  H   UNL     1       3.333   3.119  19.601  0.00  0.00    +0.000 HD
ENDROOT
BRANCH   1  10
ATOM      7  C   UNL     1       6.798   6.480  17.521  0.00  0.00    +0.000 A 
ATOM      8  C   UNL     1       5.558   6.638  16.887  0.00  0.00    +0.000 A 
ATOM      9  C   UNL     1       4.382   6.187  17.486  0.00  0.00    +0.000 A 
ATOM     10  C   UNL     1       4.425   5.535  18.726  0.00  0.00    +0.000 A 
ATOM     11  C   UNL     1       5.676   5.228  19.264  0.00  0.00    +0.000 A 
ATOM     12  C   UNL     1       6.854   5.738  18.705  0.00  0.00    +0.000 A 
ATOM     13 CL   UNL     1       8.257   5.529  19.689  0.00  0.00    +0.000 Cl
BRANCH   7  15
ATOM     14  C   UNL     1       8.095   8.491  17.521  0.00  0.00    +0.000 C 
ATOM     15  O   UNL     1       7.779   7.236  16.942  0.00  0.00    +0.000 OA
ENDBRANCH   7  15
ENDBRANCH   1  10
BRANCH   5  16
ATOM     16  C   UNL     1       1.957   7.515  20.019  0.00  0.00    +0.000 C 
ATOM     17  O   UNL     1       2.291   8.203  19.071  0.00  0.00    +0.000 OA
ATOM     18  N   UNL     1       1.405   8.054  21.166  0.00  0.00    +0.000 N 
ATOM     19  H   UNL     1       1.269   7.448  21.959  0.00  0.00    +0.000 HD
BRANCH  18  20
ATOM     20  C   UNL     1       1.083   9.478  21.299  0.00  0.00    +0.000 C 
BRANCH  20  21
ATOM     21  C   UNL     1      -0.330   9.797  20.749  0.00  0.00    +0.000 C 
ATOM     22  C   UNL     1      -0.316   9.972  19.229  0.00  0.00    +0.000 C 
ATOM     23  C   UNL     1       0.489  11.196  18.814  0.00  0.00    +0.000 C 
ATOM     24  C   UNL     1       0.384  12.427  19.728  0.00  0.00    +0.000 C 
ATOM     25  N   UNL     1      -0.152  12.264  21.076  0.00  0.00    +0.000 NA
ATOM     26  C   UNL     1      -0.737  13.513  21.597  0.00  0.00    +0.000 C 
ATOM     27  C   UNL     1      -0.972  13.414  23.103  0.00  0.00    +0.000 C 
ATOM     28  C   UNL     1      -1.856  12.217  23.430  0.00  0.00    +0.000 C 
ATOM     29  C   UNL     1      -1.219  10.958  22.849  0.00  0.00    +0.000 C 
ATOM     30  C   UNL     1      -0.977  11.083  21.335  0.00  0.00    +0.000 C 
ENDBRANCH  20  21
ENDBRANCH  18  20
ENDBRANCH   5  16
TORSDOF 5
ENDMDL
MODEL 5
REMARK VINA RESULT:      -7.9      1.575      2.178
REMARK  Name = 
REMARK  6 active torsions:
REMARK  status: ('A' for Active; 'I' for Inactive)
REMARK    1  A    between atoms: C_1  and  O_2
REMARK    2  A    between atoms: O_2  and  C_3
REMARK    3  A    between atoms: C_6  and  C_7
REMARK    4  A    between atoms: C_11  and  C_12
REMARK    5  A    between atoms: N_14  and  C_15
REMARK    6  A    between atoms: C_15  and  C_16
REMARK                            x       y       z     vdW  Elec       q    Type
REMARK                         _______ _______ _______ _____ _____    ______ ____
ROOT
ATOM      1  C   UNL     1       3.579   5.317  19.183  0.00  0.00    +0.000 A 
ATOM      2  N   UNL     1       3.259   4.289  20.056  0.00  0.00    +0.000 N 
ATOM      3  N   UNL     1       2.208   4.533  20.831  0.00  0.00    +0.000 NA
ATOM      4  C   UNL     1       1.828   5.758  20.463  0.00  0.00    +0.000 A 
ATOM      5  C   UNL     1       2.611   6.295  19.416  0.00  0.00    +0.000 A 
ATOM      6  H   UNL     1       3.738   3.405  20.160  0.00  0.00    +0.000 HD
ENDROOT
BRANCH   1  10
ATOM      7  C   UNL     1       6.690   5.375  16.253  0.00  0.00    +0.000 A 
ATOM      8  C   UNL     1       5.721   4.363  16.231  0.00  0.00    +0.000 A 
ATOM      9  C   UNL     1       4.737   4.288  17.217  0.00  0.00    +0.000 A 
ATOM     10  C   UNL     1       4.722   5.211  18.271  0.00  0.00    +0.000 A 
ATOM     11  C   UNL     1       5.790   6.103  18.379  0.00  0.00    +0.000 A 
ATOM     12  C   UNL     1       6.740   6.230  17.358  0.00  0.00    +0.000 A 
ATOM     13 CL   UNL     1       7.779   7.600  17.518  0.00  0.00    +0.000 Cl
BRANCH   7  15
ATOM     14  C   UNL     1       6.924   4.692  13.972  0.00  0.00    +0.000 C 
ATOM     15  O   UNL     1       7.369   5.470  15.070  0.00  0.00    +0.000 OA
ENDBRANCH   7  15
ENDBRANCH   1  10
BRANCH   5  16
ATOM     16  C   UNL     1       2.356   7.615  18.830  0.00  0.00    +0.000 C 
ATOM     17  O   UNL     1       2.788   7.907  17.730  0.00  0.00    +0.000 OA
ATOM     18  N   UNL     1       1.670   8.518  19.621  0.00  0.00    +0.000 N 
ATOM     19  H   UNL     1       1.452   8.252  20.567  0.00  0.00    +0.000 HD
BRANCH  18  20
ATOM     20  C   UNL     1       1.317   9.865  19.163  0.00  0.00    +0.000 C 
BRANCH  20  21
ATOM     21  C   UNL     1       0.353  10.569  20.150  0.00  0.00    +0.000 C 
ATOM     22  C   UNL     1      -1.093  10.110  19.947  0.00  0.00    +0.000 C 
ATOM     23  C   UNL     1      -1.632  10.539  18.589  0.00  0.00    +0.000 C 
ATOM     24  C   UNL     1      -1.185  11.920  18.081  0.00  0.00    +0.000 C 
ATOM     25  N   UNL     1      -0.036  12.567  18.706  0.00  0.00    +0.000 NA
ATOM     26  C   UNL     1      -0.079  14.034  18.568  0.00  0.00    +0.000 C 
ATOM     27  C   UNL     1       1.274  14.651  18.916  0.00  0.00    +0.000 C 
ATOM     28  C   UNL     1       1.702  14.246  20.320  0.00  0.00    +0.000 C 
ATOM     29  C   UNL     1       1.708  12.723  20.416  0.00  0.00    +0.000 C 
ATOM     30  C   UNL     1       0.341  12.120  20.048  0.00  0.00    +0.000 C 
ENDBRANCH  20  21
ENDBRANCH  18  20
ENDBRANCH   5  16
TORSDOF 5
ENDMDL
MODEL 6
REMARK VINA RESULT:      -7.8      0.954      2.046
REMARK  Name = 
REMARK  6 active torsions:
REMARK  status: ('A' for Active; 'I' for Inactive)
REMARK    1  A    between atoms: C_1  and  O_2
REMARK    2  A    between atoms: O_2  and  C_3
REMARK    3  A    between atoms: C_6  and  C_7
REMARK    4  A    between atoms: C_11  and  C_12
REMARK    5  A    between atoms: N_14  and  C_15
REMARK    6  A    between atoms: C_15  and  C_16
REMARK                            x       y       z     vdW  Elec       q    Type
REMARK                         _______ _______ _______ _____ _____    ______ ____
ROOT
ATOM      1  C   UNL     1       3.675   4.296  19.763  0.00  0.00    +0.000 A 
ATOM      2  N   UNL     1       3.546   3.146  20.527  0.00  0.00    +0.000 N 
ATOM      3  N   UNL     1       2.535   3.170  21.389  0.00  0.00    +0.000 NA
ATOM      4  C   UNL     1       1.987   4.370  21.192  0.00  0.00    +0.000 A 
ATOM      5  C   UNL     1       2.619   5.112  20.169  0.00  0.00    +0.000 A 
ATOM      6  H   UNL     1       4.133   2.323  20.495  0.00  0.00    +0.000 HD
ENDROOT
BRANCH   1  10
ATOM      7  C   UNL     1       6.609   5.155  16.776  0.00  0.00    +0.000 A 
ATOM      8  C   UNL     1       5.544   4.289  16.489  0.00  0.00    +0.000 A 
ATOM      9  C   UNL     1       4.615   3.943  17.470  0.00  0.00    +0.000 A 
ATOM     10  C   UNL     1       4.749   4.435  18.775  0.00  0.00    +0.000 A 
ATOM     11  C   UNL     1       5.904   5.151  19.092  0.00  0.00    +0.000 A 
ATOM     12  C   UNL     1       6.803   5.560  18.100  0.00  0.00    +0.000 A 
ATOM     13 CL   UNL     1       7.979   6.707  18.633  0.00  0.00    +0.000 Cl
BRANCH   7  15
ATOM     14  C   UNL     1       6.975   4.942  14.421  0.00  0.00    +0.000 C 
ATOM     15  O   UNL     1       7.227   5.612  15.645  0.00  0.00    +0.000 OA
ENDBRANCH   7  15
ENDBRANCH   1  10
BRANCH   5  16
ATOM     16  C   UNL     1       2.166   6.446  19.760  0.00  0.00    +0.000 C 
ATOM     17  O   UNL     1       2.496   6.919  18.688  0.00  0.00    +0.000 OA
ATOM     18  N   UNL     1       1.416   7.152  20.682  0.00  0.00    +0.000 N 
ATOM     19  H   UNL     1       1.286   6.751  21.597  0.00  0.00    +0.000 HD
BRANCH  18  20
ATOM     20  C   UNL     1       0.870   8.484  20.408  0.00  0.00    +0.000 C 
BRANCH  20  21
ATOM     21  C   UNL     1       1.566   9.574  21.260  0.00  0.00    +0.000 C 
ATOM     22  C   UNL     1       1.436   9.286  22.757  0.00  0.00    +0.000 C 
ATOM     23  C   UNL     1      -0.012   9.374  23.221  0.00  0.00    +0.000 C 
ATOM     24  C   UNL     1      -0.874  10.469  22.571  0.00  0.00    +0.000 C 
ATOM     25  N   UNL     1      -0.407  11.100  21.340  0.00  0.00    +0.000 NA
ATOM     26  C   UNL     1      -0.962  12.454  21.163  0.00  0.00    +0.000 C 
ATOM     27  C   UNL     1      -0.743  12.947  19.734  0.00  0.00    +0.000 C 
ATOM     28  C   UNL     1       0.737  12.911  19.376  0.00  0.00    +0.000 C 
ATOM     29  C   UNL     1       1.267  11.497  19.599  0.00  0.00    +0.000 C 
ATOM     30  C   UNL     1       1.023  11.013  21.039  0.00  0.00    +0.000 C 
ENDBRANCH  20  21
ENDBRANCH  18  20
ENDBRANCH   5  16
TORSDOF 5
ENDMDL
MODEL 7
REMARK VINA RESULT:      -7.7      3.704      8.851
REMARK  Name = 
REMARK  6 active torsions:
REMARK  status: ('A' for Active; 'I' for Inactive)
REMARK    1  A    between atoms: C_1  and  O_2
REMARK    2  A    between atoms: O_2  and  C_3
REMARK    3  A    between atoms: C_6  and  C_7
REMARK    4  A    between atoms: C_11  and  C_12
REMARK    5  A    between atoms: N_14  and  C_15
REMARK    6  A    between atoms: C_15  and  C_16
REMARK                            x       y       z     vdW  Elec       q    Type
REMARK                         _______ _______ _______ _____ _____    ______ ____
ROOT
ATOM      1  C   UNL     1      -0.273  11.176  19.652  0.00  0.00    +0.000 A 
ATOM      2  N   UNL     1      -0.126  12.054  20.715  0.00  0.00    +0.000 N 
ATOM      3  N   UNL     1       1.083  12.052  21.267  0.00  0.00    +0.000 NA
ATOM      4  C   UNL     1       1.749  11.144  20.551  0.00  0.00    +0.000 A 
ATOM      5  C   UNL     1       0.982  10.584  19.505  0.00  0.00    +0.000 A 
ATOM      6  H   UNL     1      -0.830  12.668  21.101  0.00  0.00    +0.000 HD
ENDROOT
BRANCH   1  10
ATOM      7  C   UNL     1      -3.837  11.175  17.292  0.00  0.00    +0.000 A 
ATOM      8  C   UNL     1      -3.831  11.776  18.559  0.00  0.00    +0.000 A 
ATOM      9  C   UNL     1      -2.699  11.728  19.372  0.00  0.00    +0.000 A 
ATOM     10  C   UNL     1      -1.551  11.046  18.945  0.00  0.00    +0.000 A 
ATOM     11  C   UNL     1      -1.626  10.307  17.763  0.00  0.00    +0.000 A 
ATOM     12  C   UNL     1      -2.732  10.408  16.910  0.00  0.00    +0.000 A 
ATOM     13 CL   UNL     1      -2.502   9.688  15.358  0.00  0.00    +0.000 Cl
BRANCH   7  15
ATOM     14  C   UNL     1      -5.880  12.409  17.128  0.00  0.00    +0.000 C 
ATOM     15  O   UNL     1      -4.900  11.576  16.532  0.00  0.00    +0.000 OA
ENDBRANCH   7  15
ENDBRANCH   1  10
BRANCH   5  16
ATOM     16  C   UNL     1       1.519   9.588  18.572  0.00  0.00    +0.000 C 
ATOM     17  O   UNL     1       1.741   9.873  17.409  0.00  0.00    +0.000 OA
ATOM     18  N   UNL     1       1.684   8.307  19.065  0.00  0.00    +0.000 N 
ATOM     19  H   UNL     1       1.363   8.112  19.999  0.00  0.00    +0.000 HD
BRANCH  18  20
ATOM     20  C   UNL     1       2.236   7.212  18.262  0.00  0.00    +0.000 C 
BRANCH  20  21
ATOM     21  C   UNL     1       3.281   6.391  19.057  0.00  0.00    +0.000 C 
ATOM     22  C   UNL     1       4.582   6.221  18.269  0.00  0.00    +0.000 C 
ATOM     23  C   UNL     1       4.373   5.376  17.020  0.00  0.00    +0.000 C 
ATOM     24  C   UNL     1       3.391   4.199  17.145  0.00  0.00    +0.000 C 
ATOM     25  N   UNL     1       2.468   4.165  18.275  0.00  0.00    +0.000 NA
ATOM     26  C   UNL     1       2.039   2.793  18.602  0.00  0.00    +0.000 C 
ATOM     27  C   UNL     1       0.834   2.811  19.540  0.00  0.00    +0.000 C 
ATOM     28  C   UNL     1       1.150   3.601  20.803  0.00  0.00    +0.000 C 
ATOM     29  C   UNL     1       1.611   5.002  20.410  0.00  0.00    +0.000 C 
ATOM     30  C   UNL     1       2.815   4.962  19.453  0.00  0.00    +0.000 C 
ENDBRANCH  20  21
ENDBRANCH  18  20
ENDBRANCH   5  16
TORSDOF 5
ENDMDL
MODEL 8
REMARK VINA RESULT:      -7.7      4.013      9.241
REMARK  Name = 
REMARK  6 active torsions:
REMARK  status: ('A' for Active; 'I' for Inactive)
REMARK    1  A    between atoms: C_1  and  O_2
REMARK    2  A    between atoms: O_2  and  C_3
REMARK    3  A    between atoms: C_6  and  C_7
REMARK    4  A    between atoms: C_11  and  C_12
REMARK    5  A    between atoms: N_14  and  C_15
REMARK    6  A    between atoms: C_15  and  C_16
REMARK                            x       y       z     vdW  Elec       q    Type
REMARK                         _______ _______ _______ _____ _____    ______ ____
ROOT
ATOM      1  C   UNL     1      -0.065  11.549  18.391  0.00  0.00    +0.000 A 
ATOM      2  N   UNL     1       0.470  12.780  18.042  0.00  0.00    +0.000 N 
ATOM      3  N   UNL     1       1.769  12.905  18.292  0.00  0.00    +0.000 NA
ATOM      4  C   UNL     1       2.098  11.726  18.825  0.00  0.00    +0.000 A 
ATOM      5  C   UNL     1       1.017  10.819  18.884  0.00  0.00    +0.000 A 
ATOM      6  H   UNL     1      -0.020  13.566  17.637  0.00  0.00    +0.000 HD
ENDROOT
BRANCH   1  10
ATOM      7  C   UNL     1      -4.220  11.092  17.502  0.00  0.00    +0.000 A 
ATOM      8  C   UNL     1      -3.820  11.684  18.708  0.00  0.00    +0.000 A 
ATOM      9  C   UNL     1      -2.470  11.781  19.046  0.00  0.00    +0.000 A 
ATOM     10  C   UNL     1      -1.488  11.257  18.195  0.00  0.00    +0.000 A 
ATOM     11  C   UNL     1      -1.905  10.518  17.087  0.00  0.00    +0.000 A 
ATOM     12  C   UNL     1      -3.252  10.476  16.704  0.00  0.00    +0.000 A 
ATOM     13 CL   UNL     1      -3.526   9.798  15.140  0.00  0.00    +0.000 Cl
BRANCH   7  15
ATOM     14  C   UNL     1      -6.499  11.192  18.226  0.00  0.00    +0.000 C 
ATOM     15  O   UNL     1      -5.529  11.353  17.205  0.00  0.00    +0.000 OA
ENDBRANCH   7  15
ENDBRANCH   1  10
BRANCH   5  16
ATOM     16  C   UNL     1       1.153   9.454  19.404  0.00  0.00    +0.000 C 
ATOM     17  O   UNL     1       0.531   9.092  20.386  0.00  0.00    +0.000 OA
ATOM     18  N   UNL     1       2.071   8.641  18.767  0.00  0.00    +0.000 N 
ATOM     19  H   UNL     1       2.641   9.043  18.040  0.00  0.00    +0.000 HD
BRANCH  18  20
ATOM     20  C   UNL     1       2.298   7.245  19.154  0.00  0.00    +0.000 C 
BRANCH  20  21
ATOM     21  C   UNL     1       2.524   6.339  17.918  0.00  0.00    +0.000 C 
ATOM     22  C   UNL     1       1.694   5.056  18.002  0.00  0.00    +0.000 C 
ATOM     23  C   UNL     1       2.147   4.170  19.154  0.00  0.00    +0.000 C 
ATOM     24  C   UNL     1       3.659   4.126  19.430  0.00  0.00    +0.000 C 
ATOM     25  N   UNL     1       4.514   5.161  18.857  0.00  0.00    +0.000 NA
ATOM     26  C   UNL     1       5.904   4.703  18.687  0.00  0.00    +0.000 C 
ATOM     27  C   UNL     1       6.834   5.885  18.418  0.00  0.00    +0.000 C 
ATOM     28  C   UNL     1       6.364   6.670  17.200  0.00  0.00    +0.000 C 
ATOM     29  C   UNL     1       4.916   7.098  17.416  0.00  0.00    +0.000 C 
ATOM     30  C   UNL     1       3.998   5.896  17.701  0.00  0.00    +0.000 C 
ENDBRANCH  20  21
ENDBRANCH  18  20
ENDBRANCH   5  16
TORSDOF 5
ENDMDL
MODEL 9
REMARK VINA RESULT:      -7.7      3.277      7.374
REMARK  Name = 
REMARK  6 active torsions:
REMARK  status: ('A' for Active; 'I' for Inactive)
REMARK    1  A    between atoms: C_1  and  O_2
REMARK    2  A    between atoms: O_2  and  C_3
REMARK    3  A    between atoms: C_6  and  C_7
REMARK    4  A    between atoms: C_11  and  C_12
REMARK    5  A    between atoms: N_14  and  C_15
REMARK    6  A    between atoms: C_15  and  C_16
REMARK                            x       y       z     vdW  Elec       q    Type
REMARK                         _______ _______ _______ _____ _____    ______ ____
ROOT
ATOM      1  C   UNL     1       2.439   5.028  18.385  0.00  0.00    +0.000 A 
ATOM      2  N   UNL     1       1.386   4.306  17.845  0.00  0.00    +0.000 N 
ATOM      3  N   UNL     1       1.650   3.019  17.642  0.00  0.00    +0.000 NA
ATOM      4  C   UNL     1       2.912   2.891  18.055  0.00  0.00    +0.000 A 
ATOM      5  C   UNL     1       3.457   4.091  18.566  0.00  0.00    +0.000 A 
ATOM      6  H   UNL     1       0.472   4.655  17.593  0.00  0.00    +0.000 HD
ENDROOT
BRANCH   1  10
ATOM      7  C   UNL     1       1.578   9.144  19.151  0.00  0.00    +0.000 A 
ATOM      8  C   UNL     1       1.989   8.736  17.874  0.00  0.00    +0.000 A 
ATOM      9  C   UNL     1       2.340   7.410  17.621  0.00  0.00    +0.000 A 
ATOM     10  C   UNL     1       2.316   6.464  18.655  0.00  0.00    +0.000 A 
ATOM     11  C   UNL     1       2.076   6.915  19.954  0.00  0.00    +0.000 A 
ATOM     12  C   UNL     1       1.656   8.227  20.203  0.00  0.00    +0.000 A 
ATOM     13 CL   UNL     1       1.094   8.501  21.813  0.00  0.00    +0.000 Cl
BRANCH   7  15
ATOM     14  C   UNL     1      -0.317  10.504  18.617  0.00  0.00    +0.000 C 
ATOM     15  O   UNL     1       0.996  10.381  19.138  0.00  0.00    +0.000 OA
ENDBRANCH   7  15
ENDBRANCH   1  10
BRANCH   5  16
ATOM     16  C   UNL     1       4.819   4.179  19.103  0.00  0.00    +0.000 C 
ATOM     17  O   UNL     1       5.291   3.273  19.766  0.00  0.00    +0.000 OA
ATOM     18  N   UNL     1       5.496   5.363  18.879  0.00  0.00    +0.000 N 
ATOM     19  H   UNL     1       5.000   6.117  18.431  0.00  0.00    +0.000 HD
BRANCH  18  20
ATOM     20  C   UNL     1       6.872   5.588  19.330  0.00  0.00    +0.000 C 
BRANCH  20  21
ATOM     21  C   UNL     1       7.806   5.955  18.150  0.00  0.00    +0.000 C 
ATOM     22  C   UNL     1       8.160   7.444  18.154  0.00  0.00    +0.000 C 
ATOM     23  C   UNL     1       6.935   8.311  17.893  0.00  0.00    +0.000 C 
ATOM     24  C   UNL     1       5.914   7.766  16.881  0.00  0.00    +0.000 C 
ATOM     25  N   UNL     1       5.965   6.355  16.514  0.00  0.00    +0.000 NA
ATOM     26  C   UNL     1       5.386   6.105  15.182  0.00  0.00    +0.000 C 
ATOM     27  C   UNL     1       5.139   4.613  14.969  0.00  0.00    +0.000 C 
ATOM     28  C   UNL     1       6.427   3.824  15.162  0.00  0.00    +0.000 C 
ATOM     29  C   UNL     1       6.997   4.136  16.543  0.00  0.00    +0.000 C 
ATOM     30  C   UNL     1       7.224   5.644  16.743  0.00  0.00    +0.000 C 
ENDBRANCH  20  21
ENDBRANCH  18  20
ENDBRANCH   5  16
TORSDOF 5
ENDMDL
