MODEL 1
REMARK VINA RESULT:      -9.7      0.000      0.000
REMARK  Name = 
REMARK  5 active torsions:
REMARK  status: ('A' for Active; 'I' for Inactive)
REMARK    1  A    between atoms: C_1  and  C_2
REMARK    2  A    between atoms: C_4  and  N_5
REMARK    3  A    between atoms: C_8  and  N_9
REMARK    4  A    between atoms: C_10  and  C_12
REMARK    5  A    between atoms: C_15  and  C_16
REMARK                            x       y       z     vdW  Elec       q    Type
REMARK                         _______ _______ _______ _____ _____    ______ ____
ROOT
ATOM      1  N   UNL     1       0.314  11.241  21.405  0.00  0.00    +0.000 N 
ATOM      2  C   UNL     1       0.326  10.931  20.056  0.00  0.00    +0.000 C 
ATOM      3  O   UNL     1      -0.176  11.605  19.162  0.00  0.00    +0.000 OA
ATOM      4  H   UNL     1       0.872  10.689  22.038  0.00  0.00    +0.000 HD
ENDROOT
BRANCH   1  11
ATOM      5  C   UNL     1      -4.059  16.855  24.705  0.00  0.00    +0.000 C 
ATOM      6  C   UNL     1      -3.468  15.590  24.172  0.00  0.00    +0.000 A 
ATOM      7  C   UNL     1      -4.083  14.365  24.395  0.00  0.00    +0.000 A 
ATOM      8  C   UNL     1      -3.524  13.212  23.853  0.00  0.00    +0.000 A 
ATOM      9  C   UNL     1      -2.279  13.310  23.184  0.00  0.00    +0.000 A 
ATOM     10  C   UNL     1      -1.583  12.198  22.660  0.00  0.00    +0.000 A 
ATOM     11  C   UNL     1      -0.374  12.335  21.974  0.00  0.00    +0.000 A 
ATOM     12  C   UNL     1       0.184  13.603  21.858  0.00  0.00    +0.000 A 
ATOM     13  C   UNL     1      -0.498  14.711  22.374  0.00  0.00    +0.000 A 
ATOM     14  C   UNL     1      -1.717  14.591  23.027  0.00  0.00    +0.000 A 
ATOM     15  N   UNL     1      -2.302  15.704  23.491  0.00  0.00    +0.000 NA
BRANCH   8  16
ATOM     16  N   UNL     1      -4.109  11.970  24.177  0.00  0.00    +0.000 N 
ATOM     17  H   UNL     1      -4.402  11.890  25.145  0.00  0.00    +0.000 HD
ATOM     18  H   UNL     1      -4.854  11.685  23.547  0.00  0.00    +0.000 HD
ENDBRANCH   8  16
ENDBRANCH   1  11
BRANCH   2  19
ATOM     19  C   UNL     1       1.002   9.667  19.658  0.00  0.00    +0.000 A 
ATOM     20  C   UNL     1       1.330   9.536  18.308  0.00  0.00    +0.000 A 
ATOM     21  C   UNL     1       2.014   8.412  17.850  0.00  0.00    +0.000 A 
ATOM     22  C   UNL     1       2.329   7.330  18.692  0.00  0.00    +0.000 A 
ATOM     23  C   UNL     1       1.992   7.487  20.053  0.00  0.00    +0.000 A 
ATOM     24  C   UNL     1       1.360   8.647  20.540  0.00  0.00    +0.000 A 
BRANCH  22  25
ATOM     25  C   UNL     1       3.089   6.144  18.176  0.00  0.00    +0.000 A 
ATOM     26  C   UNL     1       4.205   6.366  17.343  0.00  0.00    +0.000 A 
ATOM     27  C   UNL     1       4.843   5.319  16.687  0.00  0.00    +0.000 A 
ATOM     28  C   UNL     1       4.328   4.034  16.789  0.00  0.00    +0.000 A 
ATOM     29  C   UNL     1       3.234   3.749  17.585  0.00  0.00    +0.000 A 
ATOM     30  N   UNL     1       2.765   2.489  17.556  0.00  0.00    +0.000 NA
ATOM     31  C   UNL     1       1.724   2.174  18.351  0.00  0.00    +0.000 A 
ATOM     32  C   UNL     1       1.183   3.045  19.267  0.00  0.00    +0.000 A 
ATOM     33  C   UNL     1       1.685   4.342  19.296  0.00  0.00    +0.000 A 
ATOM     34  C   UNL     1       2.664   4.780  18.371  0.00  0.00    +0.000 A 
ENDBRANCH  22  25
ENDBRANCH   2  19
TORSDOF 4
ENDMDL
MODEL 2
REMARK VINA RESULT:      -9.5      1.464      2.590
REMARK  Name = 
REMARK  5 active torsions:
REMARK  status: ('A' for Active; 'I' for Inactive)
REMARK    1  A    between atoms: C_1  and  C_2
REMARK    2  A    between atoms: C_4  and  N_5
REMARK    3  A    between atoms: C_8  and  N_9
REMARK    4  A    between atoms: C_10  and  C_12
REMARK    5  A    between atoms: C_15  and  C_16
REMARK                            x       y       z     vdW  Elec       q    Type
REMARK                         _______ _______ _______ _____ _____    ______ ____
ROOT
ATOM      1  N   UNL     1      -0.659  11.048  20.193  0.00  0.00    +0.000 N 
ATOM      2  C   UNL     1       0.505  10.505  20.710  0.00  0.00    +0.000 C 
ATOM      3  O   UNL     1       1.059  10.856  21.748  0.00  0.00    +0.000 OA
ATOM      4  H   UNL     1      -1.102  10.595  19.407  0.00  0.00    +0.000 HD
ENDROOT
BRANCH   1  11
ATOM      5  C   UNL     1      -4.772  16.787  23.609  0.00  0.00    +0.000 C 
ATOM      6  C   UNL     1      -4.137  15.505  23.179  0.00  0.00    +0.000 A 
ATOM      7  C   UNL     1      -4.363  14.326  23.876  0.00  0.00    +0.000 A 
ATOM      8  C   UNL     1      -3.784  13.143  23.425  0.00  0.00    +0.000 A 
ATOM      9  C   UNL     1      -2.887  13.201  22.330  0.00  0.00    +0.000 A 
ATOM     10  C   UNL     1      -2.185  12.080  21.835  0.00  0.00    +0.000 A 
ATOM     11  C   UNL     1      -1.335  12.165  20.730  0.00  0.00    +0.000 A 
ATOM     12  C   UNL     1      -1.134  13.408  20.140  0.00  0.00    +0.000 A 
ATOM     13  C   UNL     1      -1.825  14.525  20.624  0.00  0.00    +0.000 A 
ATOM     14  C   UNL     1      -2.699  14.446  21.700  0.00  0.00    +0.000 A 
ATOM     15  N   UNL     1      -3.319  15.564  22.099  0.00  0.00    +0.000 NA
BRANCH   8  16
ATOM     16  N   UNL     1      -3.945  11.980  24.206  0.00  0.00    +0.000 N 
ATOM     17  H   UNL     1      -4.363  11.201  23.707  0.00  0.00    +0.000 HD
ATOM     18  H   UNL     1      -3.103  11.689  24.695  0.00  0.00    +0.000 HD
ENDBRANCH   8  16
ENDBRANCH   1  11
BRANCH   2  19
ATOM     19  C   UNL     1       1.143   9.407  19.936  0.00  0.00    +0.000 A 
ATOM     20  C   UNL     1       1.498   8.265  20.654  0.00  0.00    +0.000 A 
ATOM     21  C   UNL     1       2.050   7.162  20.005  0.00  0.00    +0.000 A 
ATOM     22  C   UNL     1       2.353   7.172  18.632  0.00  0.00    +0.000 A 
ATOM     23  C   UNL     1       1.981   8.336  17.926  0.00  0.00    +0.000 A 
ATOM     24  C   UNL     1       1.362   9.431  18.558  0.00  0.00    +0.000 A 
BRANCH  22  25
ATOM     25  C   UNL     1       2.923   5.961  17.957  0.00  0.00    +0.000 A 
ATOM     26  C   UNL     1       2.122   4.805  17.851  0.00  0.00    +0.000 A 
ATOM     27  C   UNL     1       2.643   3.597  17.402  0.00  0.00    +0.000 A 
ATOM     28  C   UNL     1       4.000   3.500  17.123  0.00  0.00    +0.000 A 
ATOM     29  C   UNL     1       4.841   4.593  17.210  0.00  0.00    +0.000 A 
ATOM     30  N   UNL     1       6.151   4.379  16.994  0.00  0.00    +0.000 NA
ATOM     31  C   UNL     1       6.988   5.434  17.035  0.00  0.00    +0.000 A 
ATOM     32  C   UNL     1       6.561   6.732  17.183  0.00  0.00    +0.000 A 
ATOM     33  C   UNL     1       5.202   6.942  17.392  0.00  0.00    +0.000 A 
ATOM     34  C   UNL     1       4.296   5.861  17.526  0.00  0.00    +0.000 A 
ENDBRANCH  22  25
ENDBRANCH   2  19
TORSDOF 4
ENDMDL
MODEL 3
REMARK VINA RESULT:      -9.4      1.278      2.467
REMARK  Name = 
REMARK  5 active torsions:
REMARK  status: ('A' for Active; 'I' for Inactive)
REMARK    1  A    between atoms: C_1  and  C_2
REMARK    2  A    between atoms: C_4  and  N_5
REMARK    3  A    between atoms: C_8  and  N_9
REMARK    4  A    between atoms: C_10  and  C_12
REMARK    5  A    between atoms: C_15  and  C_16
REMARK                            x       y       z     vdW  Elec       q    Type
REMARK                         _______ _______ _______ _____ _____    ______ ____
ROOT
ATOM      1  N   UNL     1      -0.146  10.963  20.970  0.00  0.00    +0.000 N 
ATOM      2  C   UNL     1       0.726  10.024  21.494  0.00  0.00    +0.000 C 
ATOM      3  O   UNL     1       1.101   9.969  22.662  0.00  0.00    +0.000 OA
ATOM      4  H   UNL     1      -0.494  10.836  20.032  0.00  0.00    +0.000 HD
ENDROOT
BRANCH   1  11
ATOM      5  C   UNL     1      -3.580  16.707  25.061  0.00  0.00    +0.000 C 
ATOM      6  C   UNL     1      -3.181  15.437  24.383  0.00  0.00    +0.000 A 
ATOM      7  C   UNL     1      -3.912  14.271  24.562  0.00  0.00    +0.000 A 
ATOM      8  C   UNL     1      -3.533  13.115  23.885  0.00  0.00    +0.000 A 
ATOM      9  C   UNL     1      -2.340  13.137  23.121  0.00  0.00    +0.000 A 
ATOM     10  C   UNL     1      -1.818  12.006  22.455  0.00  0.00    +0.000 A 
ATOM     11  C   UNL     1      -0.658  12.071  21.679  0.00  0.00    +0.000 A 
ATOM     12  C   UNL     1       0.030  13.277  21.615  0.00  0.00    +0.000 A 
ATOM     13  C   UNL     1      -0.478  14.403  22.272  0.00  0.00    +0.000 A 
ATOM     14  C   UNL     1      -1.649  14.359  23.017  0.00  0.00    +0.000 A 
ATOM     15  N   UNL     1      -2.065  15.483  23.615  0.00  0.00    +0.000 NA
BRANCH   8  16
ATOM     16  N   UNL     1      -4.230  11.920  24.161  0.00  0.00    +0.000 N 
ATOM     17  H   UNL     1      -5.236  11.994  24.057  0.00  0.00    +0.000 HD
ATOM     18  H   UNL     1      -3.871  11.108  23.666  0.00  0.00    +0.000 HD
ENDBRANCH   8  16
ENDBRANCH   1  11
BRANCH   2  19
ATOM     19  C   UNL     1       1.259   8.998  20.559  0.00  0.00    +0.000 A 
ATOM     20  C   UNL     1       1.526   7.740  21.102  0.00  0.00    +0.000 A 
ATOM     21  C   UNL     1       1.975   6.699  20.292  0.00  0.00    +0.000 A 
ATOM     22  C   UNL     1       2.259   6.878  18.926  0.00  0.00    +0.000 A 
ATOM     23  C   UNL     1       1.976   8.156  18.399  0.00  0.00    +0.000 A 
ATOM     24  C   UNL     1       1.459   9.197  19.193  0.00  0.00    +0.000 A 
BRANCH  22  25
ATOM     25  C   UNL     1       2.716   5.732  18.074  0.00  0.00    +0.000 A 
ATOM     26  C   UNL     1       1.896   4.588  17.982  0.00  0.00    +0.000 A 
ATOM     27  C   UNL     1       2.337   3.425  17.360  0.00  0.00    +0.000 A 
ATOM     28  C   UNL     1       3.640   3.355  16.887  0.00  0.00    +0.000 A 
ATOM     29  C   UNL     1       4.497   4.438  16.950  0.00  0.00    +0.000 A 
ATOM     30  N   UNL     1       5.761   4.247  16.535  0.00  0.00    +0.000 NA
ATOM     31  C   UNL     1       6.607   5.294  16.550  0.00  0.00    +0.000 A 
ATOM     32  C   UNL     1       6.218   6.574  16.869  0.00  0.00    +0.000 A 
ATOM     33  C   UNL     1       4.904   6.762  17.284  0.00  0.00    +0.000 A 
ATOM     34  C   UNL     1       4.014   5.672  17.449  0.00  0.00    +0.000 A 
ENDBRANCH  22  25
ENDBRANCH   2  19
TORSDOF 4
ENDMDL
MODEL 4
REMARK VINA RESULT:      -9.3      1.152      2.464
REMARK  Name = 
REMARK  5 active torsions:
REMARK  status: ('A' for Active; 'I' for Inactive)
REMARK    1  A    between atoms: C_1  and  C_2
REMARK    2  A    between atoms: C_4  and  N_5
REMARK    3  A    between atoms: C_8  and  N_9
REMARK    4  A    between atoms: C_10  and  C_12
REMARK    5  A    between atoms: C_15  and  C_16
REMARK                            x       y       z     vdW  Elec       q    Type
REMARK                         _______ _______ _______ _____ _____    ______ ____
ROOT
ATOM      1  N   UNL     1       0.712  11.409  20.992  0.00  0.00    +0.000 N 
ATOM      2  C   UNL     1       0.282  10.863  19.795  0.00  0.00    +0.000 C 
ATOM      3  O   UNL     1      -0.668  11.260  19.127  0.00  0.00    +0.000 OA
ATOM      4  H   UNL     1       1.583  11.092  21.389  0.00  0.00    +0.000 HD
ENDROOT
BRANCH   1  11
ATOM      5  C   UNL     1      -3.495  16.717  24.948  0.00  0.00    +0.000 C 
ATOM      6  C   UNL     1      -2.937  15.505  24.277  0.00  0.00    +0.000 A 
ATOM      7  C   UNL     1      -3.563  14.272  24.392  0.00  0.00    +0.000 A 
ATOM      8  C   UNL     1      -3.035  13.171  23.723  0.00  0.00    +0.000 A 
ATOM      9  C   UNL     1      -1.806  13.322  23.035  0.00  0.00    +0.000 A 
ATOM     10  C   UNL     1      -1.139  12.259  22.385  0.00  0.00    +0.000 A 
ATOM     11  C   UNL     1       0.054  12.449  21.685  0.00  0.00    +0.000 A 
ATOM     12  C   UNL     1       0.627  13.716  21.682  0.00  0.00    +0.000 A 
ATOM     13  C   UNL     1      -0.025  14.774  22.323  0.00  0.00    +0.000 A 
ATOM     14  C   UNL     1      -1.229  14.605  22.993  0.00  0.00    +0.000 A 
ATOM     15  N   UNL     1      -1.786  15.672  23.580  0.00  0.00    +0.000 NA
BRANCH   8  16
ATOM     16  N   UNL     1      -3.630  11.910  23.937  0.00  0.00    +0.000 N 
ATOM     17  H   UNL     1      -4.402  11.923  24.595  0.00  0.00    +0.000 HD
ATOM     18  H   UNL     1      -3.888  11.424  23.083  0.00  0.00    +0.000 HD
ENDBRANCH   8  16
ENDBRANCH   1  11
BRANCH   2  19
ATOM     19  C   UNL     1       1.034   9.688  19.278  0.00  0.00    +0.000 A 
ATOM     20  C   UNL     1       1.324   8.681  20.199  0.00  0.00    +0.000 A 
ATOM     21  C   UNL     1       1.976   7.517  19.794  0.00  0.00    +0.000 A 
ATOM     22  C   UNL     1       2.444   7.336  18.480  0.00  0.00    +0.000 A 
ATOM     23  C   UNL     1       2.135   8.365  17.567  0.00  0.00    +0.000 A 
ATOM     24  C   UNL     1       1.418   9.516  17.948  0.00  0.00    +0.000 A 
BRANCH  22  25
ATOM     25  C   UNL     1       3.119   6.062  18.069  0.00  0.00    +0.000 A 
ATOM     26  C   UNL     1       2.391   4.857  18.138  0.00  0.00    +0.000 A 
ATOM     27  C   UNL     1       3.003   3.624  17.945  0.00  0.00    +0.000 A 
ATOM     28  C   UNL     1       4.378   3.566  17.758  0.00  0.00    +0.000 A 
ATOM     29  C   UNL     1       5.151   4.708  17.685  0.00  0.00    +0.000 A 
ATOM     30  N   UNL     1       6.482   4.545  17.578  0.00  0.00    +0.000 NA
ATOM     31  C   UNL     1       7.256   5.641  17.467  0.00  0.00    +0.000 A 
ATOM     32  C   UNL     1       6.751   6.914  17.351  0.00  0.00    +0.000 A 
ATOM     33  C   UNL     1       5.372   7.070  17.450  0.00  0.00    +0.000 A 
ATOM     34  C   UNL     1       4.519   5.975  17.734  0.00  0.00    +0.000 A 
ENDBRANCH  22  25
ENDBRANCH   2  19
TORSDOF 4
ENDMDL
MODEL 5
REMARK VINA RESULT:      -9.3      1.761      2.846
REMARK  Name = 
REMARK  5 active torsions:
REMARK  status: ('A' for Active; 'I' for Inactive)
REMARK    1  A    between atoms: C_1  and  C_2
REMARK    2  A    between atoms: C_4  and  N_5
REMARK    3  A    between atoms: C_8  and  N_9
REMARK    4  A    between atoms: C_10  and  C_12
REMARK    5  A    between atoms: C_15  and  C_16
REMARK                            x       y       z     vdW  Elec       q    Type
REMARK                         _______ _______ _______ _____ _____    ______ ____
ROOT
ATOM      1  N   UNL     1      -0.548  10.605  20.934  0.00  0.00    +0.000 N 
ATOM      2  C   UNL     1       0.611  10.834  20.213  0.00  0.00    +0.000 C 
ATOM      3  O   UNL     1       1.162  11.921  20.070  0.00  0.00    +0.000 OA
ATOM      4  H   UNL     1      -0.840   9.653  21.100  0.00  0.00    +0.000 HD
ENDROOT
BRANCH   1  11
ATOM      5  C   UNL     1      -5.240  16.295  23.603  0.00  0.00    +0.000 C 
ATOM      6  C   UNL     1      -4.517  15.249  22.820  0.00  0.00    +0.000 A 
ATOM      7  C   UNL     1      -4.917  14.915  21.533  0.00  0.00    +0.000 A 
ATOM      8  C   UNL     1      -4.198  13.962  20.819  0.00  0.00    +0.000 A 
ATOM      9  C   UNL     1      -3.143  13.278  21.472  0.00  0.00    +0.000 A 
ATOM     10  C   UNL     1      -2.394  12.241  20.872  0.00  0.00    +0.000 A 
ATOM     11  C   UNL     1      -1.336  11.611  21.532  0.00  0.00    +0.000 A 
ATOM     12  C   UNL     1      -1.056  11.983  22.842  0.00  0.00    +0.000 A 
ATOM     13  C   UNL     1      -1.793  13.009  23.445  0.00  0.00    +0.000 A 
ATOM     14  C   UNL     1      -2.823  13.666  22.787  0.00  0.00    +0.000 A 
ATOM     15  N   UNL     1      -3.478  14.636  23.438  0.00  0.00    +0.000 NA
BRANCH   8  16
ATOM     16  N   UNL     1      -4.683  13.566  19.555  0.00  0.00    +0.000 N 
ATOM     17  H   UNL     1      -4.442  12.615  19.298  0.00  0.00    +0.000 HD
ATOM     18  H   UNL     1      -5.675  13.740  19.419  0.00  0.00    +0.000 HD
ENDBRANCH   8  16
ENDBRANCH   1  11
BRANCH   2  19
ATOM     19  C   UNL     1       1.239   9.660  19.548  0.00  0.00    +0.000 A 
ATOM     20  C   UNL     1       1.515   8.559  20.360  0.00  0.00    +0.000 A 
ATOM     21  C   UNL     1       2.051   7.394  19.816  0.00  0.00    +0.000 A 
ATOM     22  C   UNL     1       2.416   7.296  18.462  0.00  0.00    +0.000 A 
ATOM     23  C   UNL     1       2.125   8.419  17.660  0.00  0.00    +0.000 A 
ATOM     24  C   UNL     1       1.521   9.578  18.184  0.00  0.00    +0.000 A 
BRANCH  22  25
ATOM     25  C   UNL     1       2.968   6.020  17.900  0.00  0.00    +0.000 A 
ATOM     26  C   UNL     1       2.140   4.878  17.874  0.00  0.00    +0.000 A 
ATOM     27  C   UNL     1       2.638   3.625  17.536  0.00  0.00    +0.000 A 
ATOM     28  C   UNL     1       3.997   3.473  17.294  0.00  0.00    +0.000 A 
ATOM     29  C   UNL     1       4.864   4.549  17.308  0.00  0.00    +0.000 A 
ATOM     30  N   UNL     1       6.172   4.287  17.137  0.00  0.00    +0.000 NA
ATOM     31  C   UNL     1       7.035   5.321  17.108  0.00  0.00    +0.000 A 
ATOM     32  C   UNL     1       6.638   6.637  17.140  0.00  0.00    +0.000 A 
ATOM     33  C   UNL     1       5.281   6.896  17.304  0.00  0.00    +0.000 A 
ATOM     34  C   UNL     1       4.346   5.851  17.508  0.00  0.00    +0.000 A 
ENDBRANCH  22  25
ENDBRANCH   2  19
TORSDOF 4
ENDMDL
MODEL 6
REMARK VINA RESULT:      -9.3      1.216      1.489
REMARK  Name = 
REMARK  5 active torsions:
REMARK  status: ('A' for Active; 'I' for Inactive)
REMARK    1  A    between atoms: C_1  and  C_2
REMARK    2  A    between atoms: C_4  and  N_5
REMARK    3  A    between atoms: C_8  and  N_9
REMARK    4  A    between atoms: C_10  and  C_12
REMARK    5  A    between atoms: C_15  and  C_16
REMARK                            x       y       z     vdW  Elec       q    Type
REMARK                         _______ _______ _______ _____ _____    ______ ____
ROOT
ATOM      1  N   UNL     1      -0.797  11.026  20.326  0.00  0.00    +0.000 N 
ATOM      2  C   UNL     1       0.378  10.551  20.883  0.00  0.00    +0.000 C 
ATOM      3  O   UNL     1       0.905  10.972  21.909  0.00  0.00    +0.000 OA
ATOM      4  H   UNL     1      -1.213  10.520  19.559  0.00  0.00    +0.000 HD
ENDROOT
BRANCH   1  11
ATOM      5  C   UNL     1      -5.129  16.789  23.414  0.00  0.00    +0.000 C 
ATOM      6  C   UNL     1      -4.440  15.512  23.060  0.00  0.00    +0.000 A 
ATOM      7  C   UNL     1      -4.602  14.374  23.838  0.00  0.00    +0.000 A 
ATOM      8  C   UNL     1      -3.975  13.191  23.459  0.00  0.00    +0.000 A 
ATOM      9  C   UNL     1      -3.096  13.215  22.348  0.00  0.00    +0.000 A 
ATOM     10  C   UNL     1      -2.348  12.096  21.919  0.00  0.00    +0.000 A 
ATOM     11  C   UNL     1      -1.517  12.145  20.797  0.00  0.00    +0.000 A 
ATOM     12  C   UNL     1      -1.382  13.353  20.123  0.00  0.00    +0.000 A 
ATOM     13  C   UNL     1      -2.118  14.468  20.542  0.00  0.00    +0.000 A 
ATOM     14  C   UNL     1      -2.974  14.422  21.633  0.00  0.00    +0.000 A 
ATOM     15  N   UNL     1      -3.640  15.535  21.966  0.00  0.00    +0.000 NA
BRANCH   8  16
ATOM     16  N   UNL     1      -4.072  12.077  24.319  0.00  0.00    +0.000 N 
ATOM     17  H   UNL     1      -3.617  12.206  25.217  0.00  0.00    +0.000 HD
ATOM     18  H   UNL     1      -5.018  11.726  24.437  0.00  0.00    +0.000 HD
ENDBRANCH   8  16
ENDBRANCH   1  11
BRANCH   2  19
ATOM     19  C   UNL     1       1.062   9.437  20.174  0.00  0.00    +0.000 A 
ATOM     20  C   UNL     1       1.387   8.317  20.941  0.00  0.00    +0.000 A 
ATOM     21  C   UNL     1       1.980   7.202  20.352  0.00  0.00    +0.000 A 
ATOM     22  C   UNL     1       2.354   7.178  18.996  0.00  0.00    +0.000 A 
ATOM     23  C   UNL     1       2.012   8.319  18.240  0.00  0.00    +0.000 A 
ATOM     24  C   UNL     1       1.353   9.425  18.809  0.00  0.00    +0.000 A 
BRANCH  22  25
ATOM     25  C   UNL     1       2.967   5.954  18.385  0.00  0.00    +0.000 A 
ATOM     26  C   UNL     1       4.034   6.113  17.476  0.00  0.00    +0.000 A 
ATOM     27  C   UNL     1       4.529   5.043  16.739  0.00  0.00    +0.000 A 
ATOM     28  C   UNL     1       3.912   3.803  16.837  0.00  0.00    +0.000 A 
ATOM     29  C   UNL     1       2.859   3.580  17.704  0.00  0.00    +0.000 A 
ATOM     30  N   UNL     1       2.281   2.367  17.670  0.00  0.00    +0.000 NA
ATOM     31  C   UNL     1       1.277   2.110  18.530  0.00  0.00    +0.000 A 
ATOM     32  C   UNL     1       0.882   2.987  19.514  0.00  0.00    +0.000 A 
ATOM     33  C   UNL     1       1.497   4.234  19.548  0.00  0.00    +0.000 A 
ATOM     34  C   UNL     1       2.441   4.624  18.565  0.00  0.00    +0.000 A 
ENDBRANCH  22  25
ENDBRANCH   2  19
TORSDOF 4
ENDMDL
MODEL 7
REMARK VINA RESULT:      -9.3      1.099      1.443
REMARK  Name = 
REMARK  5 active torsions:
REMARK  status: ('A' for Active; 'I' for Inactive)
REMARK    1  A    between atoms: C_1  and  C_2
REMARK    2  A    between atoms: C_4  and  N_5
REMARK    3  A    between atoms: C_8  and  N_9
REMARK    4  A    between atoms: C_10  and  C_12
REMARK    5  A    between atoms: C_15  and  C_16
REMARK                            x       y       z     vdW  Elec       q    Type
REMARK                         _______ _______ _______ _____ _____    ______ ____
ROOT
ATOM      1  N   UNL     1      -0.451  11.149  21.434  0.00  0.00    +0.000 N 
ATOM      2  C   UNL     1       0.103  11.234  20.169  0.00  0.00    +0.000 C 
ATOM      3  O   UNL     1       0.043  12.208  19.425  0.00  0.00    +0.000 OA
ATOM      4  H   UNL     1      -0.228  10.354  22.013  0.00  0.00    +0.000 HD
ENDROOT
BRANCH   1  11
ATOM      5  C   UNL     1      -5.535  16.363  24.348  0.00  0.00    +0.000 C 
ATOM      6  C   UNL     1      -4.833  15.238  23.661  0.00  0.00    +0.000 A 
ATOM      7  C   UNL     1      -5.546  14.259  22.983  0.00  0.00    +0.000 A 
ATOM      8  C   UNL     1      -4.858  13.245  22.323  0.00  0.00    +0.000 A 
ATOM      9  C   UNL     1      -3.450  13.180  22.461  0.00  0.00    +0.000 A 
ATOM     10  C   UNL     1      -2.656  12.155  21.900  0.00  0.00    +0.000 A 
ATOM     11  C   UNL     1      -1.265  12.140  22.025  0.00  0.00    +0.000 A 
ATOM     12  C   UNL     1      -0.656  13.139  22.776  0.00  0.00    +0.000 A 
ATOM     13  C   UNL     1      -1.434  14.158  23.336  0.00  0.00    +0.000 A 
ATOM     14  C   UNL     1      -2.813  14.203  23.189  0.00  0.00    +0.000 A 
ATOM     15  N   UNL     1      -3.482  15.214  23.759  0.00  0.00    +0.000 NA
BRANCH   8  16
ATOM     16  N   UNL     1      -5.606  12.208  21.727  0.00  0.00    +0.000 N 
ATOM     17  H   UNL     1      -6.280  12.526  21.039  0.00  0.00    +0.000 HD
ATOM     18  H   UNL     1      -5.040  11.448  21.359  0.00  0.00    +0.000 HD
ENDBRANCH   8  16
ENDBRANCH   1  11
BRANCH   2  19
ATOM     19  C   UNL     1       0.828  10.037  19.665  0.00  0.00    +0.000 A 
ATOM     20  C   UNL     1       1.164   9.069  20.612  0.00  0.00    +0.000 A 
ATOM     21  C   UNL     1       1.795   7.888  20.226  0.00  0.00    +0.000 A 
ATOM     22  C   UNL     1       2.196   7.649  18.899  0.00  0.00    +0.000 A 
ATOM     23  C   UNL     1       1.842   8.640  17.959  0.00  0.00    +0.000 A 
ATOM     24  C   UNL     1       1.145   9.807  18.326  0.00  0.00    +0.000 A 
BRANCH  22  25
ATOM     25  C   UNL     1       2.851   6.358  18.509  0.00  0.00    +0.000 A 
ATOM     26  C   UNL     1       3.907   6.389  17.576  0.00  0.00    +0.000 A 
ATOM     27  C   UNL     1       4.437   5.222  17.037  0.00  0.00    +0.000 A 
ATOM     28  C   UNL     1       3.865   3.999  17.361  0.00  0.00    +0.000 A 
ATOM     29  C   UNL     1       2.825   3.898  18.265  0.00  0.00    +0.000 A 
ATOM     30  N   UNL     1       2.290   2.679  18.454  0.00  0.00    +0.000 NA
ATOM     31  C   UNL     1       1.300   2.545  19.357  0.00  0.00    +0.000 A 
ATOM     32  C   UNL     1       0.879   3.569  20.172  0.00  0.00    +0.000 A 
ATOM     33  C   UNL     1       1.448   4.823  19.977  0.00  0.00    +0.000 A 
ATOM     34  C   UNL     1       2.373   5.064  18.930  0.00  0.00    +0.000 A 
ENDBRANCH  22  25
ENDBRANCH   2  19
TORSDOF 4
ENDMDL
MODEL 8
REMARK VINA RESULT:      -9.3      0.845      1.982
REMARK  Name = 
REMARK  5 active torsions:
REMARK  status: ('A' for Active; 'I' for Inactive)
REMARK    1  A    between atoms: C_1  and  C_2
REMARK    2  A    between atoms: C_4  and  N_5
REMARK    3  A    between atoms: C_8  and  N_9
REMARK    4  A    between atoms: C_10  and  C_12
REMARK    5  A    between atoms: C_15  and  C_16
REMARK                            x       y       z     vdW  Elec       q    Type
REMARK                         _______ _______ _______ _____ _____    ______ ____
ROOT
ATOM      1  N   UNL     1       0.131  11.154  21.397  0.00  0.00    +0.000 N 
ATOM      2  C   UNL     1      -0.020  10.858  20.053  0.00  0.00    +0.000 C 
ATOM      3  O   UNL     1      -0.777  11.431  19.275  0.00  0.00    +0.000 OA
ATOM      4  H   UNL     1       0.877  10.713  21.913  0.00  0.00    +0.000 HD
ENDROOT
BRANCH   1  11
ATOM      5  C   UNL     1      -3.632  16.876  25.219  0.00  0.00    +0.000 C 
ATOM      6  C   UNL     1      -2.700  16.021  24.425  0.00  0.00    +0.000 A 
ATOM      7  C   UNL     1      -1.589  16.568  23.797  0.00  0.00    +0.000 A 
ATOM      8  C   UNL     1      -0.722  15.735  23.096  0.00  0.00    +0.000 A 
ATOM      9  C   UNL     1      -1.063  14.368  22.950  0.00  0.00    +0.000 A 
ATOM     10  C   UNL     1      -0.298  13.448  22.199  0.00  0.00    +0.000 A 
ATOM     11  C   UNL     1      -0.643  12.097  22.106  0.00  0.00    +0.000 A 
ATOM     12  C   UNL     1      -1.810  11.666  22.727  0.00  0.00    +0.000 A 
ATOM     13  C   UNL     1      -2.574  12.570  23.473  0.00  0.00    +0.000 A 
ATOM     14  C   UNL     1      -2.222  13.907  23.602  0.00  0.00    +0.000 A 
ATOM     15  N   UNL     1      -3.010  14.705  24.335  0.00  0.00    +0.000 NA
BRANCH   8  16
ATOM     16  N   UNL     1       0.342  16.327  22.382  0.00  0.00    +0.000 N 
ATOM     17  H   UNL     1       0.783  15.709  21.710  0.00  0.00    +0.000 HD
ATOM     18  H   UNL     1       0.109  17.220  21.957  0.00  0.00    +0.000 HD
ENDBRANCH   8  16
ENDBRANCH   1  11
BRANCH   2  19
ATOM     19  C   UNL     1       0.802   9.744  19.508  0.00  0.00    +0.000 A 
ATOM     20  C   UNL     1       1.236   8.785  20.424  0.00  0.00    +0.000 A 
ATOM     21  C   UNL     1       1.965   7.676  19.997  0.00  0.00    +0.000 A 
ATOM     22  C   UNL     1       2.367   7.511  18.660  0.00  0.00    +0.000 A 
ATOM     23  C   UNL     1       1.912   8.490  17.752  0.00  0.00    +0.000 A 
ATOM     24  C   UNL     1       1.119   9.579  18.159  0.00  0.00    +0.000 A 
BRANCH  22  25
ATOM     25  C   UNL     1       3.128   6.294  18.226  0.00  0.00    +0.000 A 
ATOM     26  C   UNL     1       4.297   6.465  17.457  0.00  0.00    +0.000 A 
ATOM     27  C   UNL     1       4.949   5.385  16.873  0.00  0.00    +0.000 A 
ATOM     28  C   UNL     1       4.398   4.115  16.980  0.00  0.00    +0.000 A 
ATOM     29  C   UNL     1       3.252   3.878  17.715  0.00  0.00    +0.000 A 
ATOM     30  N   UNL     1       2.756   2.629  17.695  0.00  0.00    +0.000 NA
ATOM     31  C   UNL     1       1.661   2.361  18.433  0.00  0.00    +0.000 A 
ATOM     32  C   UNL     1       1.086   3.272  19.288  0.00  0.00    +0.000 A 
ATOM     33  C   UNL     1       1.616   4.557  19.310  0.00  0.00    +0.000 A 
ATOM     34  C   UNL     1       2.660   4.945  18.434  0.00  0.00    +0.000 A 
ENDBRANCH  22  25
ENDBRANCH   2  19
TORSDOF 4
ENDMDL
MODEL 9
REMARK VINA RESULT:      -9.2      1.581      1.685
REMARK  Name = 
REMARK  5 active torsions:
REMARK  status: ('A' for Active; 'I' for Inactive)
REMARK    1  A    between atoms: C_1  and  C_2
REMARK    2  A    between atoms: C_4  and  N_5
REMARK    3  A    between atoms: C_8  and  N_9
REMARK    4  A    between atoms: C_10  and  C_12
REMARK    5  A    between atoms: C_15  and  C_16
REMARK                            x       y       z     vdW  Elec       q    Type
REMARK                         _______ _______ _______ _____ _____    ______ ____
ROOT
ATOM      1  N   UNL     1      -0.664  10.953  21.169  0.00  0.00    +0.000 N 
ATOM      2  C   UNL     1       0.039  11.016  19.978  0.00  0.00    +0.000 C 
ATOM      3  O   UNL     1       0.080  11.983  19.222  0.00  0.00    +0.000 OA
ATOM      4  H   UNL     1      -0.520  10.162  21.779  0.00  0.00    +0.000 HD
ENDROOT
BRANCH   1  11
ATOM      5  C   UNL     1      -5.802  16.532  23.166  0.00  0.00    +0.000 C 
ATOM      6  C   UNL     1      -4.996  15.459  22.510  0.00  0.00    +0.000 A 
ATOM      7  C   UNL     1      -5.367  14.940  21.277  0.00  0.00    +0.000 A 
ATOM      8  C   UNL     1      -4.572  13.968  20.677  0.00  0.00    +0.000 A 
ATOM      9  C   UNL     1      -3.466  13.455  21.400  0.00  0.00    +0.000 A 
ATOM     10  C   UNL     1      -2.636  12.416  20.924  0.00  0.00    +0.000 A 
ATOM     11  C   UNL     1      -1.531  11.958  21.647  0.00  0.00    +0.000 A 
ATOM     12  C   UNL     1      -1.284  12.509  22.900  0.00  0.00    +0.000 A 
ATOM     13  C   UNL     1      -2.102  13.538  23.380  0.00  0.00    +0.000 A 
ATOM     14  C   UNL     1      -3.181  14.025  22.655  0.00  0.00    +0.000 A 
ATOM     15  N   UNL     1      -3.912  15.012  23.189  0.00  0.00    +0.000 NA
BRANCH   8  16
ATOM     16  N   UNL     1      -5.022  13.384  19.475  0.00  0.00    +0.000 N 
ATOM     17  H   UNL     1      -4.720  13.873  18.639  0.00  0.00    +0.000 HD
ATOM     18  H   UNL     1      -4.834  12.388  19.402  0.00  0.00    +0.000 HD
ENDBRANCH   8  16
ENDBRANCH   1  11
BRANCH   2  19
ATOM     19  C   UNL     1       0.806   9.806  19.578  0.00  0.00    +0.000 A 
ATOM     20  C   UNL     1       1.148   9.705  18.229  0.00  0.00    +0.000 A 
ATOM     21  C   UNL     1       1.914   8.634  17.771  0.00  0.00    +0.000 A 
ATOM     22  C   UNL     1       2.303   7.575  18.611  0.00  0.00    +0.000 A 
ATOM     23  C   UNL     1       1.948   7.702  19.970  0.00  0.00    +0.000 A 
ATOM     24  C   UNL     1       1.233   8.811  20.458  0.00  0.00    +0.000 A 
BRANCH  22  25
ATOM     25  C   UNL     1       3.148   6.449  18.094  0.00  0.00    +0.000 A 
ATOM     26  C   UNL     1       4.288   6.757  17.323  0.00  0.00    +0.000 A 
ATOM     27  C   UNL     1       5.011   5.769  16.665  0.00  0.00    +0.000 A 
ATOM     28  C   UNL     1       4.561   4.456  16.701  0.00  0.00    +0.000 A 
ATOM     29  C   UNL     1       3.450   4.086  17.434  0.00  0.00    +0.000 A 
ATOM     30  N   UNL     1       3.051   2.805  17.343  0.00  0.00    +0.000 NA
ATOM     31  C   UNL     1       1.993   2.409  18.076  0.00  0.00    +0.000 A 
ATOM     32  C   UNL     1       1.363   3.219  18.992  0.00  0.00    +0.000 A 
ATOM     33  C   UNL     1       1.793   4.538  19.087  0.00  0.00    +0.000 A 
ATOM     34  C   UNL     1       2.789   5.058  18.224  0.00  0.00    +0.000 A 
ENDBRANCH  22  25
ENDBRANCH   2  19
TORSDOF 4
ENDMDL
