MODEL 1
REMARK VINA RESULT:      -7.6      0.000      0.000
REMARK  Name = 
REMARK  6 active torsions:
REMARK  status: ('A' for Active; 'I' for Inactive)
REMARK    1  A    between atoms: C_1  and  C_2
REMARK    2  A    between atoms: C_5  and  C_6
REMARK    3  A    between atoms: N_8  and  C_9
REMARK    4  A    between atoms: C_9  and  C_10
REMARK    5  A    between atoms: C_10  and  C_11
REMARK    6  A    between atoms: C_11  and  O_13
REMARK                            x       y       z     vdW  Elec       q    Type
REMARK                         _______ _______ _______ _____ _____    ______ ____
ROOT
ATOM      1  C   UNL     1       4.397   3.874  19.370  0.00  0.00    +0.000 C 
ENDROOT
BRANCH   1   2
ATOM      2  C   UNL     1       3.560   2.621  19.764  0.00  0.00    +0.000 C 
ATOM      3  C   UNL     1       2.952   2.951  21.156  0.00  0.00    +0.000 C 
ATOM      4  C   UNL     1       1.861   4.031  21.081  0.00  0.00    +0.000 C 
ATOM      5  C   UNL     1       0.732   3.613  20.147  0.00  0.00    +0.000 C 
ATOM      6  C   UNL     1       1.252   3.262  18.757  0.00  0.00    +0.000 C 
ATOM      7  C   UNL     1       2.402   2.255  18.802  0.00  0.00    +0.000 C 
BRANCH   2   8
ATOM      8  C   UNL     1       4.521   1.416  19.783  0.00  0.00    +0.000 C 
ATOM      9  O   UNL     1       5.354   1.228  20.658  0.00  0.00    +0.000 OA
BRANCH   8  10
ATOM     10  O   UNL     1       4.466   0.598  18.711  0.00  0.00    +0.000 OA
ATOM     11  H   UNL     1       4.365   1.018  17.841  0.00  0.00    +0.000 HD
ENDBRANCH   8  10
ENDBRANCH   2   8
ENDBRANCH   1   2
BRANCH   1  14
ATOM     12  C   UNL     1       4.761   4.668  17.078  0.00  0.00    +0.000 C 
ATOM     13  O   UNL     1       3.763   5.395  17.129  0.00  0.00    +0.000 OA
ATOM     14  N   UNL     1       5.113   3.829  18.121  0.00  0.00    +0.000 N 
ATOM     15  H   UNL     1       6.089   3.511  18.128  0.00  0.00    +0.000 HD
BRANCH  12  20
ATOM     16  C   UNL     1       5.941   3.458  12.564  0.00  0.00    +0.000 C 
ATOM     17  C   UNL     1       6.195   4.090  13.871  0.00  0.00    +0.000 A 
ATOM     18  C   UNL     1       7.245   4.819  14.387  0.00  0.00    +0.000 A 
ATOM     19  C   UNL     1       6.883   5.148  15.714  0.00  0.00    +0.000 A 
ATOM     20  C   UNL     1       5.629   4.608  15.928  0.00  0.00    +0.000 A 
ATOM     21  O   UNL     1       5.214   3.954  14.805  0.00  0.00    +0.000 OA
ENDBRANCH  12  20
ENDBRANCH   1  14
TORSDOF 5
ENDMDL
MODEL 2
REMARK VINA RESULT:      -7.5      2.565      3.199
REMARK  Name = 
REMARK  6 active torsions:
REMARK  status: ('A' for Active; 'I' for Inactive)
REMARK    1  A    between atoms: C_1  and  C_2
REMARK    2  A    between atoms: C_5  and  C_6
REMARK    3  A    between atoms: N_8  and  C_9
REMARK    4  A    between atoms: C_9  and  C_10
REMARK    5  A    between atoms: C_10  and  C_11
REMARK    6  A    between atoms: C_11  and  O_13
REMARK                            x       y       z     vdW  Elec       q    Type
REMARK                         _______ _______ _______ _____ _____    ______ ____
ROOT
ATOM      1  C   UNL     1       5.154   5.977  16.807  0.00  0.00    +0.000 C 
ENDROOT
BRANCH   1   2
ATOM      2  C   UNL     1       4.896   5.066  18.043  0.00  0.00    +0.000 C 
ATOM      3  C   UNL     1       3.878   5.842  18.925  0.00  0.00    +0.000 C 
ATOM      4  C   UNL     1       2.478   5.899  18.295  0.00  0.00    +0.000 C 
ATOM      5  C   UNL     1       1.929   4.500  18.040  0.00  0.00    +0.000 C 
ATOM      6  C   UNL     1       2.881   3.669  17.186  0.00  0.00    +0.000 C 
ATOM      7  C   UNL     1       4.307   3.667  17.737  0.00  0.00    +0.000 C 
BRANCH   2   8
ATOM      8  C   UNL     1       6.256   4.835  18.732  0.00  0.00    +0.000 C 
ATOM      9  O   UNL     1       6.555   5.313  19.818  0.00  0.00    +0.000 OA
BRANCH   8  10
ATOM     10  O   UNL     1       7.167   4.136  18.025  0.00  0.00    +0.000 OA
ATOM     11  H   UNL     1       7.062   4.125  17.059  0.00  0.00    +0.000 HD
ENDBRANCH   8  10
ENDBRANCH   2   8
ENDBRANCH   1   2
BRANCH   1  14
ATOM     12  C   UNL     1       6.397   5.060  14.901  0.00  0.00    +0.000 C 
ATOM     13  O   UNL     1       7.477   5.429  15.377  0.00  0.00    +0.000 OA
ATOM     14  N   UNL     1       5.189   5.347  15.512  0.00  0.00    +0.000 N 
ATOM     15  H   UNL     1       4.398   4.756  15.235  0.00  0.00    +0.000 HD
BRANCH  12  20
ATOM     16  C   UNL     1       4.043   2.951  11.263  0.00  0.00    +0.000 C 
ATOM     17  C   UNL     1       5.259   3.368  11.983  0.00  0.00    +0.000 A 
ATOM     18  C   UNL     1       6.607   3.246  11.723  0.00  0.00    +0.000 A 
ATOM     19  C   UNL     1       7.276   3.857  12.809  0.00  0.00    +0.000 A 
ATOM     20  C   UNL     1       6.296   4.324  13.666  0.00  0.00    +0.000 A 
ATOM     21  O   UNL     1       5.065   4.016  13.164  0.00  0.00    +0.000 OA
ENDBRANCH  12  20
ENDBRANCH   1  14
TORSDOF 5
ENDMDL
MODEL 3
REMARK VINA RESULT:      -7.4      1.005      1.005
REMARK  Name = 
REMARK  6 active torsions:
REMARK  status: ('A' for Active; 'I' for Inactive)
REMARK    1  A    between atoms: C_1  and  C_2
REMARK    2  A    between atoms: C_5  and  C_6
REMARK    3  A    between atoms: N_8  and  C_9
REMARK    4  A    between atoms: C_9  and  C_10
REMARK    5  A    between atoms: C_10  and  C_11
REMARK    6  A    between atoms: C_11  and  O_13
REMARK                            x       y       z     vdW  Elec       q    Type
REMARK                         _______ _______ _______ _____ _____    ______ ____
ROOT
ATOM      1  C   UNL     1       4.050   4.034  19.428  0.00  0.00    +0.000 C 
ENDROOT
BRANCH   1   2
ATOM      2  C   UNL     1       3.347   2.667  19.679  0.00  0.00    +0.000 C 
ATOM      3  C   UNL     1       2.571   2.840  21.015  0.00  0.00    +0.000 C 
ATOM      4  C   UNL     1       1.362   3.779  20.875  0.00  0.00    +0.000 C 
ATOM      5  C   UNL     1       0.392   3.277  19.813  0.00  0.00    +0.000 C 
ATOM      6  C   UNL     1       1.084   3.072  18.469  0.00  0.00    +0.000 C 
ATOM      7  C   UNL     1       2.345   2.215  18.589  0.00  0.00    +0.000 C 
BRANCH   2   8
ATOM      8  C   UNL     1       4.450   1.591  19.744  0.00  0.00    +0.000 C 
ATOM      9  O   UNL     1       5.327   1.571  20.595  0.00  0.00    +0.000 OA
BRANCH   8  10
ATOM     10  O   UNL     1       4.462   0.694  18.736  0.00  0.00    +0.000 OA
ATOM     11  H   UNL     1       5.021  -0.092  18.852  0.00  0.00    +0.000 HD
ENDBRANCH   8  10
ENDBRANCH   2   8
ENDBRANCH   1   2
BRANCH   1  14
ATOM     12  C   UNL     1       5.914   4.363  17.867  0.00  0.00    +0.000 C 
ATOM     13  O   UNL     1       6.741   4.330  18.785  0.00  0.00    +0.000 OA
ATOM     14  N   UNL     1       4.551   4.290  18.102  0.00  0.00    +0.000 N 
ATOM     15  H   UNL     1       3.975   4.013  17.299  0.00  0.00    +0.000 HD
BRANCH  12  20
ATOM     16  C   UNL     1       5.550   3.483  13.142  0.00  0.00    +0.000 C 
ATOM     17  C   UNL     1       6.140   4.142  14.321  0.00  0.00    +0.000 A 
ATOM     18  C   UNL     1       7.139   5.077  14.487  0.00  0.00    +0.000 A 
ATOM     19  C   UNL     1       7.237   5.307  15.879  0.00  0.00    +0.000 A 
ATOM     20  C   UNL     1       6.286   4.505  16.481  0.00  0.00    +0.000 A 
ATOM     21  O   UNL     1       5.624   3.787  15.529  0.00  0.00    +0.000 OA
ENDBRANCH  12  20
ENDBRANCH   1  14
TORSDOF 5
ENDMDL
MODEL 4
REMARK VINA RESULT:      -7.4      1.942      3.340
REMARK  Name = 
REMARK  6 active torsions:
REMARK  status: ('A' for Active; 'I' for Inactive)
REMARK    1  A    between atoms: C_1  and  C_2
REMARK    2  A    between atoms: C_5  and  C_6
REMARK    3  A    between atoms: N_8  and  C_9
REMARK    4  A    between atoms: C_9  and  C_10
REMARK    5  A    between atoms: C_10  and  C_11
REMARK    6  A    between atoms: C_11  and  O_13
REMARK                            x       y       z     vdW  Elec       q    Type
REMARK                         _______ _______ _______ _____ _____    ______ ____
ROOT
ATOM      1  C   UNL     1       3.870   4.959  19.237  0.00  0.00    +0.000 C 
ENDROOT
BRANCH   1   2
ATOM      2  C   UNL     1       2.387   5.411  19.376  0.00  0.00    +0.000 C 
ATOM      3  C   UNL     1       1.646   4.782  18.163  0.00  0.00    +0.000 C 
ATOM      4  C   UNL     1       1.507   3.256  18.285  0.00  0.00    +0.000 C 
ATOM      5  C   UNL     1       0.767   2.868  19.559  0.00  0.00    +0.000 C 
ATOM      6  C   UNL     1       1.430   3.458  20.799  0.00  0.00    +0.000 C 
ATOM      7  C   UNL     1       1.665   4.964  20.672  0.00  0.00    +0.000 C 
BRANCH   2   8
ATOM      8  C   UNL     1       2.377   6.953  19.370  0.00  0.00    +0.000 C 
ATOM      9  O   UNL     1       2.659   7.628  18.391  0.00  0.00    +0.000 OA
BRANCH   8  10
ATOM     10  O   UNL     1       2.124   7.548  20.555  0.00  0.00    +0.000 OA
ATOM     11  H   UNL     1       1.198   7.771  20.747  0.00  0.00    +0.000 HD
ENDBRANCH   8  10
ENDBRANCH   2   8
ENDBRANCH   1   2
BRANCH   1  14
ATOM     12  C   UNL     1       5.759   4.577  17.718  0.00  0.00    +0.000 C 
ATOM     13  O   UNL     1       6.492   4.233  18.652  0.00  0.00    +0.000 OA
ATOM     14  N   UNL     1       4.462   5.015  17.925  0.00  0.00    +0.000 N 
ATOM     15  H   UNL     1       3.844   4.978  17.107  0.00  0.00    +0.000 HD
BRANCH  12  20
ATOM     16  C   UNL     1       5.348   3.580  13.021  0.00  0.00    +0.000 C 
ATOM     17  C   UNL     1       6.030   4.154  14.194  0.00  0.00    +0.000 A 
ATOM     18  C   UNL     1       7.198   4.868  14.360  0.00  0.00    +0.000 A 
ATOM     19  C   UNL     1       7.304   5.135  15.745  0.00  0.00    +0.000 A 
ATOM     20  C   UNL     1       6.190   4.575  16.343  0.00  0.00    +0.000 A 
ATOM     21  O   UNL     1       5.418   3.969  15.395  0.00  0.00    +0.000 OA
ENDBRANCH  12  20
ENDBRANCH   1  14
TORSDOF 5
ENDMDL
MODEL 5
REMARK VINA RESULT:      -7.3      1.223      1.359
REMARK  Name = 
REMARK  6 active torsions:
REMARK  status: ('A' for Active; 'I' for Inactive)
REMARK    1  A    between atoms: C_1  and  C_2
REMARK    2  A    between atoms: C_5  and  C_6
REMARK    3  A    between atoms: N_8  and  C_9
REMARK    4  A    between atoms: C_9  and  C_10
REMARK    5  A    between atoms: C_10  and  C_11
REMARK    6  A    between atoms: C_11  and  O_13
REMARK                            x       y       z     vdW  Elec       q    Type
REMARK                         _______ _______ _______ _____ _____    ______ ____
ROOT
ATOM      1  C   UNL     1       3.291   4.673  18.129  0.00  0.00    +0.000 C 
ENDROOT
BRANCH   1   2
ATOM      2  C   UNL     1       3.343   3.628  19.282  0.00  0.00    +0.000 C 
ATOM      3  C   UNL     1       2.689   4.328  20.506  0.00  0.00    +0.000 C 
ATOM      4  C   UNL     1       1.173   4.514  20.337  0.00  0.00    +0.000 C 
ATOM      5  C   UNL     1       0.474   3.179  20.113  0.00  0.00    +0.000 C 
ATOM      6  C   UNL     1       1.068   2.423  18.929  0.00  0.00    +0.000 C 
ATOM      7  C   UNL     1       2.589   2.299  19.021  0.00  0.00    +0.000 C 
BRANCH   2   8
ATOM      8  C   UNL     1       4.825   3.263  19.501  0.00  0.00    +0.000 C 
ATOM      9  O   UNL     1       5.744   4.060  19.379  0.00  0.00    +0.000 OA
BRANCH   8  10
ATOM     10  O   UNL     1       5.083   1.963  19.752  0.00  0.00    +0.000 OA
ATOM     11  H   UNL     1       4.383   1.324  19.539  0.00  0.00    +0.000 HD
ENDBRANCH   8  10
ENDBRANCH   2   8
ENDBRANCH   1   2
BRANCH   1  14
ATOM     12  C   UNL     1       4.877   5.372  16.393  0.00  0.00    +0.000 C 
ATOM     13  O   UNL     1       4.886   6.534  16.814  0.00  0.00    +0.000 OA
ATOM     14  N   UNL     1       4.064   4.397  16.945  0.00  0.00    +0.000 N 
ATOM     15  H   UNL     1       4.340   3.427  16.757  0.00  0.00    +0.000 HD
BRANCH  12  20
ATOM     16  C   UNL     1       5.677   3.178  12.177  0.00  0.00    +0.000 C 
ATOM     17  C   UNL     1       6.087   3.960  13.358  0.00  0.00    +0.000 A 
ATOM     18  C   UNL     1       7.277   4.532  13.753  0.00  0.00    +0.000 A 
ATOM     19  C   UNL     1       7.022   5.155  14.997  0.00  0.00    +0.000 A 
ATOM     20  C   UNL     1       5.688   4.934  15.284  0.00  0.00    +0.000 A 
ATOM     21  O   UNL     1       5.120   4.195  14.287  0.00  0.00    +0.000 OA
ENDBRANCH  12  20
ENDBRANCH   1  14
TORSDOF 5
ENDMDL
MODEL 6
REMARK VINA RESULT:      -7.2      1.418      1.772
REMARK  Name = 
REMARK  6 active torsions:
REMARK  status: ('A' for Active; 'I' for Inactive)
REMARK    1  A    between atoms: C_1  and  C_2
REMARK    2  A    between atoms: C_5  and  C_6
REMARK    3  A    between atoms: N_8  and  C_9
REMARK    4  A    between atoms: C_9  and  C_10
REMARK    5  A    between atoms: C_10  and  C_11
REMARK    6  A    between atoms: C_11  and  O_13
REMARK                            x       y       z     vdW  Elec       q    Type
REMARK                         _______ _______ _______ _____ _____    ______ ____
ROOT
ATOM      1  C   UNL     1       3.460   4.818  18.191  0.00  0.00    +0.000 C 
ENDROOT
BRANCH   1   2
ATOM      2  C   UNL     1       3.431   3.674  19.247  0.00  0.00    +0.000 C 
ATOM      3  C   UNL     1       2.714   4.275  20.488  0.00  0.00    +0.000 C 
ATOM      4  C   UNL     1       1.212   4.500  20.248  0.00  0.00    +0.000 C 
ATOM      5  C   UNL     1       0.512   3.202  19.865  0.00  0.00    +0.000 C 
ATOM      6  C   UNL     1       1.168   2.544  18.656  0.00  0.00    +0.000 C 
ATOM      7  C   UNL     1       2.679   2.387  18.826  0.00  0.00    +0.000 C 
BRANCH   2   8
ATOM      8  C   UNL     1       4.893   3.266  19.520  0.00  0.00    +0.000 C 
ATOM      9  O   UNL     1       5.845   4.020  19.372  0.00  0.00    +0.000 OA
BRANCH   8  10
ATOM     10  O   UNL     1       5.095   1.974  19.851  0.00  0.00    +0.000 OA
ATOM     11  H   UNL     1       4.324   1.384  19.818  0.00  0.00    +0.000 HD
ENDBRANCH   8  10
ENDBRANCH   2   8
ENDBRANCH   1   2
BRANCH   1  14
ATOM     12  C   UNL     1       5.030   5.409  16.400  0.00  0.00    +0.000 C 
ATOM     13  O   UNL     1       5.279   6.500  16.925  0.00  0.00    +0.000 OA
ATOM     14  N   UNL     1       4.090   4.539  16.926  0.00  0.00    +0.000 N 
ATOM     15  H   UNL     1       4.171   3.561  16.625  0.00  0.00    +0.000 HD
BRANCH  12  20
ATOM     16  C   UNL     1       8.273   5.624  12.841  0.00  0.00    +0.000 C 
ATOM     17  C   UNL     1       7.143   5.012  13.563  0.00  0.00    +0.000 A 
ATOM     18  C   UNL     1       6.400   3.866  13.371  0.00  0.00    +0.000 A 
ATOM     19  C   UNL     1       5.448   3.833  14.416  0.00  0.00    +0.000 A 
ATOM     20  C   UNL     1       5.670   4.957  15.190  0.00  0.00    +0.000 A 
ATOM     21  O   UNL     1       6.700   5.680  14.663  0.00  0.00    +0.000 OA
ENDBRANCH  12  20
ENDBRANCH   1  14
TORSDOF 5
ENDMDL
MODEL 7
REMARK VINA RESULT:      -7.2      2.616      3.371
REMARK  Name = 
REMARK  6 active torsions:
REMARK  status: ('A' for Active; 'I' for Inactive)
REMARK    1  A    between atoms: C_1  and  C_2
REMARK    2  A    between atoms: C_5  and  C_6
REMARK    3  A    between atoms: N_8  and  C_9
REMARK    4  A    between atoms: C_9  and  C_10
REMARK    5  A    between atoms: C_10  and  C_11
REMARK    6  A    between atoms: C_11  and  O_13
REMARK                            x       y       z     vdW  Elec       q    Type
REMARK                         _______ _______ _______ _____ _____    ______ ____
ROOT
ATOM      1  C   UNL     1       5.231   5.800  16.650  0.00  0.00    +0.000 C 
ENDROOT
BRANCH   1   2
ATOM      2  C   UNL     1       4.953   4.983  17.947  0.00  0.00    +0.000 C 
ATOM      3  C   UNL     1       3.979   5.856  18.786  0.00  0.00    +0.000 C 
ATOM      4  C   UNL     1       2.573   5.927  18.169  0.00  0.00    +0.000 C 
ATOM      5  C   UNL     1       1.966   4.539  18.012  0.00  0.00    +0.000 C 
ATOM      6  C   UNL     1       2.872   3.615  17.205  0.00  0.00    +0.000 C 
ATOM      7  C   UNL     1       4.305   3.591  17.740  0.00  0.00    +0.000 C 
BRANCH   2   8
ATOM      8  C   UNL     1       6.312   4.743  18.635  0.00  0.00    +0.000 C 
ATOM      9  O   UNL     1       6.569   5.111  19.773  0.00  0.00    +0.000 OA
BRANCH   8  10
ATOM     10  O   UNL     1       7.268   4.171  17.875  0.00  0.00    +0.000 OA
ATOM     11  H   UNL     1       7.184   3.219  17.702  0.00  0.00    +0.000 HD
ENDBRANCH   8  10
ENDBRANCH   2   8
ENDBRANCH   1   2
BRANCH   1  14
ATOM     12  C   UNL     1       6.230   4.821  14.635  0.00  0.00    +0.000 C 
ATOM     13  O   UNL     1       7.353   5.236  14.942  0.00  0.00    +0.000 OA
ATOM     14  N   UNL     1       5.107   5.111  15.391  0.00  0.00    +0.000 N 
ATOM     15  H   UNL     1       4.303   4.490  15.250  0.00  0.00    +0.000 HD
BRANCH  12  20
ATOM     16  C   UNL     1       7.484   1.963  10.962  0.00  0.00    +0.000 C 
ATOM     17  C   UNL     1       6.514   2.709  11.783  0.00  0.00    +0.000 A 
ATOM     18  C   UNL     1       5.144   2.856  11.738  0.00  0.00    +0.000 A 
ATOM     19  C   UNL     1       4.802   3.709  12.813  0.00  0.00    +0.000 A 
ATOM     20  C   UNL     1       5.983   4.026  13.457  0.00  0.00    +0.000 A 
ATOM     21  O   UNL     1       7.029   3.422  12.821  0.00  0.00    +0.000 OA
ENDBRANCH  12  20
ENDBRANCH   1  14
TORSDOF 5
ENDMDL
MODEL 8
REMARK VINA RESULT:      -7.1      2.157      6.311
REMARK  Name = 
REMARK  6 active torsions:
REMARK  status: ('A' for Active; 'I' for Inactive)
REMARK    1  A    between atoms: C_1  and  C_2
REMARK    2  A    between atoms: C_5  and  C_6
REMARK    3  A    between atoms: N_8  and  C_9
REMARK    4  A    between atoms: C_9  and  C_10
REMARK    5  A    between atoms: C_10  and  C_11
REMARK    6  A    between atoms: C_11  and  O_13
REMARK                            x       y       z     vdW  Elec       q    Type
REMARK                         _______ _______ _______ _____ _____    ______ ____
ROOT
ATOM      1  C   UNL     1       5.212   6.025  16.620  0.00  0.00    +0.000 C 
ENDROOT
BRANCH   1   2
ATOM      2  C   UNL     1       6.708   5.632  16.436  0.00  0.00    +0.000 C 
ATOM      3  C   UNL     1       7.492   6.973  16.441  0.00  0.00    +0.000 C 
ATOM      4  C   UNL     1       7.523   7.632  17.830  0.00  0.00    +0.000 C 
ATOM      5  C   UNL     1       8.143   6.705  18.868  0.00  0.00    +0.000 C 
ATOM      6  C   UNL     1       7.431   5.357  18.916  0.00  0.00    +0.000 C 
ATOM      7  C   UNL     1       7.303   4.715  17.534  0.00  0.00    +0.000 C 
BRANCH   2   8
ATOM      8  C   UNL     1       6.817   4.861  15.106  0.00  0.00    +0.000 C 
ATOM      9  O   UNL     1       6.226   3.814  14.879  0.00  0.00    +0.000 OA
BRANCH   8  10
ATOM     10  O   UNL     1       7.691   5.356  14.204  0.00  0.00    +0.000 OA
ATOM     11  H   UNL     1       8.023   6.255  14.360  0.00  0.00    +0.000 HD
ENDBRANCH   8  10
ENDBRANCH   2   8
ENDBRANCH   1   2
BRANCH   1  14
ATOM     12  C   UNL     1       3.427   5.469  18.208  0.00  0.00    +0.000 C 
ATOM     13  O   UNL     1       3.390   6.629  18.634  0.00  0.00    +0.000 OA
ATOM     14  N   UNL     1       4.346   5.065  17.255  0.00  0.00    +0.000 N 
ATOM     15  H   UNL     1       4.110   4.206  16.746  0.00  0.00    +0.000 HD
BRANCH  12  20
ATOM     16  C   UNL     1       1.370   2.680  21.558  0.00  0.00    +0.000 C 
ATOM     17  C   UNL     1       1.570   3.157  20.178  0.00  0.00    +0.000 A 
ATOM     18  C   UNL     1       0.994   2.835  18.968  0.00  0.00    +0.000 A 
ATOM     19  C   UNL     1       1.623   3.653  18.001  0.00  0.00    +0.000 A 
ATOM     20  C   UNL     1       2.541   4.434  18.679  0.00  0.00    +0.000 A 
ATOM     21  O   UNL     1       2.514   4.123  20.007  0.00  0.00    +0.000 OA
ENDBRANCH  12  20
ENDBRANCH   1  14
TORSDOF 5
ENDMDL
MODEL 9
REMARK VINA RESULT:      -7.1      2.488      3.427
REMARK  Name = 
REMARK  6 active torsions:
REMARK  status: ('A' for Active; 'I' for Inactive)
REMARK    1  A    between atoms: C_1  and  C_2
REMARK    2  A    between atoms: C_5  and  C_6
REMARK    3  A    between atoms: N_8  and  C_9
REMARK    4  A    between atoms: C_9  and  C_10
REMARK    5  A    between atoms: C_10  and  C_11
REMARK    6  A    between atoms: C_11  and  O_13
REMARK                            x       y       z     vdW  Elec       q    Type
REMARK                         _______ _______ _______ _____ _____    ______ ____
ROOT
ATOM      1  C   UNL     1       4.015   4.977  18.937  0.00  0.00    +0.000 C 
ENDROOT
BRANCH   1   2
ATOM      2  C   UNL     1       2.558   5.488  19.136  0.00  0.00    +0.000 C 
ATOM      3  C   UNL     1       1.712   4.758  18.056  0.00  0.00    +0.000 C 
ATOM      4  C   UNL     1       1.548   3.258  18.351  0.00  0.00    +0.000 C 
ATOM      5  C   UNL     1       0.899   3.030  19.710  0.00  0.00    +0.000 C 
ATOM      6  C   UNL     1       1.668   3.727  20.827  0.00  0.00    +0.000 C 
ATOM      7  C   UNL     1       1.928   5.203  20.522  0.00  0.00    +0.000 C 
BRANCH   2   8
ATOM      8  C   UNL     1       2.583   7.020  18.965  0.00  0.00    +0.000 C 
ATOM      9  O   UNL     1       2.122   7.801  19.785  0.00  0.00    +0.000 OA
BRANCH   8  10
ATOM     10  O   UNL     1       3.070   7.477  17.792  0.00  0.00    +0.000 OA
ATOM     11  H   UNL     1       3.903   7.087  17.478  0.00  0.00    +0.000 HD
ENDBRANCH   8  10
ENDBRANCH   2   8
ENDBRANCH   1   2
BRANCH   1  14
ATOM     12  C   UNL     1       5.463   5.434  17.010  0.00  0.00    +0.000 C 
ATOM     13  O   UNL     1       5.960   6.420  17.566  0.00  0.00    +0.000 OA
ATOM     14  N   UNL     1       4.444   4.698  17.590  0.00  0.00    +0.000 N 
ATOM     15  H   UNL     1       4.315   3.750  17.222  0.00  0.00    +0.000 HD
BRANCH  12  20
ATOM     16  C   UNL     1       8.166   5.512  13.020  0.00  0.00    +0.000 C 
ATOM     17  C   UNL     1       7.099   4.973  13.882  0.00  0.00    +0.000 A 
ATOM     18  C   UNL     1       6.231   3.907  13.767  0.00  0.00    +0.000 A 
ATOM     19  C   UNL     1       5.440   3.915  14.939  0.00  0.00    +0.000 A 
ATOM     20  C   UNL     1       5.877   4.979  15.706  0.00  0.00    +0.000 A 
ATOM     21  O   UNL     1       6.884   5.630  15.054  0.00  0.00    +0.000 OA
ENDBRANCH  12  20
ENDBRANCH   1  14
TORSDOF 5
ENDMDL
