MODEL 1
REMARK VINA RESULT:      -7.4      0.000      0.000
REMARK  Name = 
REMARK  6 active torsions:
REMARK  status: ('A' for Active; 'I' for Inactive)
REMARK    1  A    between atoms: C_1  and  C_2
REMARK    2  A    between atoms: C_2  and  C_3
REMARK    3  A    between atoms: C_3  and  C_4
REMARK    4  A    between atoms: C_4  and  C_5
REMARK    5  A    between atoms: C_8  and  C_9
REMARK    6  A    between atoms: C_11  and  C_12
REMARK                            x       y       z     vdW  Elec       q    Type
REMARK                         _______ _______ _______ _____ _____    ______ ____
ROOT
ATOM      1  C   UNL     1       2.199   8.000  18.571  0.00  0.00    +0.000 A 
ATOM      2  N   UNL     1       1.887   8.164  19.833  0.00  0.00    +0.000 NA
ATOM      3  C   UNL     1       1.060   9.261  19.790  0.00  0.00    +0.000 A 
ATOM      4  N   UNL     1       0.889   9.778  18.561  0.00  0.00    +0.000 NA
ATOM      5  O   UNL     1       1.647   8.943  17.752  0.00  0.00    +0.000 OA
ENDROOT
BRANCH   1   9
ATOM      6  C   UNL     1       4.525   4.864  16.877  0.00  0.00    +0.000 A 
ATOM      7  C   UNL     1       4.933   6.201  16.745  0.00  0.00    +0.000 A 
ATOM      8  C   UNL     1       4.159   7.231  17.274  0.00  0.00    +0.000 A 
ATOM      9  C   UNL     1       2.956   6.942  17.930  0.00  0.00    +0.000 A 
ATOM     10  C   UNL     1       2.526   5.611  18.009  0.00  0.00    +0.000 A 
ATOM     11  C   UNL     1       3.302   4.580  17.486  0.00  0.00    +0.000 A 
BRANCH   6  12
ATOM     12  C   UNL     1       5.440   3.743  16.452  0.00  0.00    +0.000 C 
BRANCH  12  13
ATOM     13  C   UNL     1       6.257   4.180  15.234  0.00  0.00    +0.000 C 
BRANCH  13  15
ATOM     14  C   UNL     1       6.274   3.564  12.812  0.00  0.00    +0.000 C 
ATOM     15  C   UNL     1       5.448   4.154  13.946  0.00  0.00    +0.000 C 
ENDBRANCH  13  15
ENDBRANCH  12  13
ENDBRANCH   6  12
ENDBRANCH   1   9
BRANCH   3  16
ATOM     16  C   UNL     1       0.396   9.758  20.978  0.00  0.00    +0.000 A 
ATOM     17  C   UNL     1      -0.196  11.021  20.966  0.00  0.00    +0.000 A 
ATOM     18  C   UNL     1      -0.775  11.483  22.126  0.00  0.00    +0.000 A 
ATOM     19  N   UNL     1      -0.805  10.778  23.279  0.00  0.00    +0.000 NA
ATOM     20  C   UNL     1      -0.232   9.558  23.269  0.00  0.00    +0.000 A 
ATOM     21  C   UNL     1       0.371   9.005  22.151  0.00  0.00    +0.000 A 
ENDBRANCH   3  16
TORSDOF 5
ENDMDL
MODEL 2
REMARK VINA RESULT:      -7.4      1.034      1.760
REMARK  Name = 
REMARK  6 active torsions:
REMARK  status: ('A' for Active; 'I' for Inactive)
REMARK    1  A    between atoms: C_1  and  C_2
REMARK    2  A    between atoms: C_2  and  C_3
REMARK    3  A    between atoms: C_3  and  C_4
REMARK    4  A    between atoms: C_4  and  C_5
REMARK    5  A    between atoms: C_8  and  C_9
REMARK    6  A    between atoms: C_11  and  C_12
REMARK                            x       y       z     vdW  Elec       q    Type
REMARK                         _______ _______ _______ _____ _____    ______ ____
ROOT
ATOM      1  C   UNL     1       2.210   8.161  18.549  0.00  0.00    +0.000 A 
ATOM      2  N   UNL     1       1.880   8.302  19.808  0.00  0.00    +0.000 NA
ATOM      3  C   UNL     1       1.022   9.376  19.768  0.00  0.00    +0.000 A 
ATOM      4  N   UNL     1       0.850   9.902  18.543  0.00  0.00    +0.000 NA
ATOM      5  O   UNL     1       1.641   9.097  17.733  0.00  0.00    +0.000 OA
ENDROOT
BRANCH   1   9
ATOM      6  C   UNL     1       4.677   5.151  16.826  0.00  0.00    +0.000 A 
ATOM      7  C   UNL     1       4.848   6.498  16.470  0.00  0.00    +0.000 A 
ATOM      8  C   UNL     1       4.024   7.481  17.011  0.00  0.00    +0.000 A 
ATOM      9  C   UNL     1       3.004   7.132  17.904  0.00  0.00    +0.000 A 
ATOM     10  C   UNL     1       2.801   5.780  18.212  0.00  0.00    +0.000 A 
ATOM     11  C   UNL     1       3.629   4.797  17.676  0.00  0.00    +0.000 A 
BRANCH   6  12
ATOM     12  C   UNL     1       5.669   4.110  16.372  0.00  0.00    +0.000 C 
BRANCH  12  13
ATOM     13  C   UNL     1       7.090   4.670  16.490  0.00  0.00    +0.000 C 
BRANCH  13  15
ATOM     14  C   UNL     1       7.715   5.986  18.521  0.00  0.00    +0.000 C 
ATOM     15  C   UNL     1       7.632   4.594  17.909  0.00  0.00    +0.000 C 
ENDBRANCH  13  15
ENDBRANCH  12  13
ENDBRANCH   6  12
ENDBRANCH   1   9
BRANCH   3  16
ATOM     16  C   UNL     1       0.332   9.840  20.954  0.00  0.00    +0.000 A 
ATOM     17  C   UNL     1      -0.102  11.164  21.031  0.00  0.00    +0.000 A 
ATOM     18  C   UNL     1      -0.711  11.586  22.191  0.00  0.00    +0.000 A 
ATOM     19  N   UNL     1      -0.916  10.787  23.262  0.00  0.00    +0.000 NA
ATOM     20  C   UNL     1      -0.494   9.510  23.166  0.00  0.00    +0.000 A 
ATOM     21  C   UNL     1       0.124   8.991  22.039  0.00  0.00    +0.000 A 
ENDBRANCH   3  16
TORSDOF 5
ENDMDL
MODEL 3
REMARK VINA RESULT:      -7.4      0.567      1.196
REMARK  Name = 
REMARK  6 active torsions:
REMARK  status: ('A' for Active; 'I' for Inactive)
REMARK    1  A    between atoms: C_1  and  C_2
REMARK    2  A    between atoms: C_2  and  C_3
REMARK    3  A    between atoms: C_3  and  C_4
REMARK    4  A    between atoms: C_4  and  C_5
REMARK    5  A    between atoms: C_8  and  C_9
REMARK    6  A    between atoms: C_11  and  C_12
REMARK                            x       y       z     vdW  Elec       q    Type
REMARK                         _______ _______ _______ _____ _____    ______ ____
ROOT
ATOM      1  C   UNL     1       2.542   7.778  18.353  0.00  0.00    +0.000 A 
ATOM      2  N   UNL     1       2.122   7.959  19.581  0.00  0.00    +0.000 NA
ATOM      3  C   UNL     1       1.285   9.041  19.448  0.00  0.00    +0.000 A 
ATOM      4  N   UNL     1       1.211   9.535  18.200  0.00  0.00    +0.000 NA
ATOM      5  O   UNL     1       2.048   8.698  17.473  0.00  0.00    +0.000 OA
ENDROOT
BRANCH   1   9
ATOM      6  C   UNL     1       4.849   4.696  16.539  0.00  0.00    +0.000 A 
ATOM      7  C   UNL     1       3.723   4.376  17.314  0.00  0.00    +0.000 A 
ATOM      8  C   UNL     1       2.983   5.382  17.932  0.00  0.00    +0.000 A 
ATOM      9  C   UNL     1       3.366   6.722  17.798  0.00  0.00    +0.000 A 
ATOM     10  C   UNL     1       4.523   7.030  17.070  0.00  0.00    +0.000 A 
ATOM     11  C   UNL     1       5.260   6.026  16.447  0.00  0.00    +0.000 A 
BRANCH   6  12
ATOM     12  C   UNL     1       5.550   3.628  15.738  0.00  0.00    +0.000 C 
BRANCH  12  13
ATOM     13  C   UNL     1       6.210   4.259  14.509  0.00  0.00    +0.000 C 
BRANCH  13  15
ATOM     14  C   UNL     1       6.679   3.600  12.144  0.00  0.00    +0.000 C 
ATOM     15  C   UNL     1       5.599   3.773  13.202  0.00  0.00    +0.000 C 
ENDBRANCH  13  15
ENDBRANCH  12  13
ENDBRANCH   6  12
ENDBRANCH   1   9
BRANCH   3  16
ATOM     16  C   UNL     1       0.515   9.547  20.566  0.00  0.00    +0.000 A 
ATOM     17  C   UNL     1      -0.195  10.741  20.437  0.00  0.00    +0.000 A 
ATOM     18  C   UNL     1      -0.875  11.220  21.534  0.00  0.00    +0.000 A 
ATOM     19  N   UNL     1      -0.897  10.593  22.731  0.00  0.00    +0.000 NA
ATOM     20  C   UNL     1      -0.209   9.438  22.835  0.00  0.00    +0.000 A 
ATOM     21  C   UNL     1       0.502   8.875  21.787  0.00  0.00    +0.000 A 
ENDBRANCH   3  16
TORSDOF 5
ENDMDL
MODEL 4
REMARK VINA RESULT:      -7.2      0.460      1.103
REMARK  Name = 
REMARK  6 active torsions:
REMARK  status: ('A' for Active; 'I' for Inactive)
REMARK    1  A    between atoms: C_1  and  C_2
REMARK    2  A    between atoms: C_2  and  C_3
REMARK    3  A    between atoms: C_3  and  C_4
REMARK    4  A    between atoms: C_4  and  C_5
REMARK    5  A    between atoms: C_8  and  C_9
REMARK    6  A    between atoms: C_11  and  C_12
REMARK                            x       y       z     vdW  Elec       q    Type
REMARK                         _______ _______ _______ _____ _____    ______ ____
ROOT
ATOM      1  C   UNL     1       2.479   7.941  18.303  0.00  0.00    +0.000 A 
ATOM      2  N   UNL     1       2.108   8.051  19.554  0.00  0.00    +0.000 NA
ATOM      3  C   UNL     1       1.315   9.173  19.527  0.00  0.00    +0.000 A 
ATOM      4  N   UNL     1       1.222   9.757  18.319  0.00  0.00    +0.000 NA
ATOM      5  O   UNL     1       1.998   8.940  17.507  0.00  0.00    +0.000 OA
ENDROOT
BRANCH   1   9
ATOM      6  C   UNL     1       4.831   4.854  16.554  0.00  0.00    +0.000 A 
ATOM      7  C   UNL     1       5.139   6.202  16.315  0.00  0.00    +0.000 A 
ATOM      8  C   UNL     1       4.355   7.214  16.864  0.00  0.00    +0.000 A 
ATOM      9  C   UNL     1       3.239   6.894  17.646  0.00  0.00    +0.000 A 
ATOM     10  C   UNL     1       2.903   5.547  17.835  0.00  0.00    +0.000 A 
ATOM     11  C   UNL     1       3.690   4.535  17.292  0.00  0.00    +0.000 A 
BRANCH   6  12
ATOM     12  C   UNL     1       5.771   3.765  16.102  0.00  0.00    +0.000 C 
BRANCH  12  13
ATOM     13  C   UNL     1       6.426   4.170  14.778  0.00  0.00    +0.000 C 
BRANCH  13  15
ATOM     14  C   UNL     1       6.445   3.527  12.363  0.00  0.00    +0.000 C 
ATOM     15  C   UNL     1       5.567   3.822  13.571  0.00  0.00    +0.000 C 
ENDBRANCH  13  15
ENDBRANCH  12  13
ENDBRANCH   6  12
ENDBRANCH   1   9
BRANCH   3  16
ATOM     16  C   UNL     1       0.605   9.630  20.704  0.00  0.00    +0.000 A 
ATOM     17  C   UNL     1       0.219   8.713  21.682  0.00  0.00    +0.000 A 
ATOM     18  C   UNL     1      -0.497   9.173  22.764  0.00  0.00    +0.000 A 
ATOM     19  N   UNL     1      -0.845  10.468  22.934  0.00  0.00    +0.000 NA
ATOM     20  C   UNL     1      -0.459  11.339  21.981  0.00  0.00    +0.000 A 
ATOM     21  C   UNL     1       0.268  10.974  20.859  0.00  0.00    +0.000 A 
ENDBRANCH   3  16
TORSDOF 5
ENDMDL
MODEL 5
REMARK VINA RESULT:      -7.2      1.357      2.061
REMARK  Name = 
REMARK  6 active torsions:
REMARK  status: ('A' for Active; 'I' for Inactive)
REMARK    1  A    between atoms: C_1  and  C_2
REMARK    2  A    between atoms: C_2  and  C_3
REMARK    3  A    between atoms: C_3  and  C_4
REMARK    4  A    between atoms: C_4  and  C_5
REMARK    5  A    between atoms: C_8  and  C_9
REMARK    6  A    between atoms: C_11  and  C_12
REMARK                            x       y       z     vdW  Elec       q    Type
REMARK                         _______ _______ _______ _____ _____    ______ ____
ROOT
ATOM      1  C   UNL     1       2.722   6.561  18.838  0.00  0.00    +0.000 A 
ATOM      2  N   UNL     1       2.285   7.782  19.026  0.00  0.00    +0.000 NA
ATOM      3  C   UNL     1       1.666   7.687  20.250  0.00  0.00    +0.000 A 
ATOM      4  N   UNL     1       1.687   6.455  20.787  0.00  0.00    +0.000 NA
ATOM      5  O   UNL     1       2.386   5.706  19.849  0.00  0.00    +0.000 OA
ENDROOT
BRANCH   1   9
ATOM      6  C   UNL     1       5.334   4.956  15.886  0.00  0.00    +0.000 A 
ATOM      7  C   UNL     1       5.268   6.342  16.097  0.00  0.00    +0.000 A 
ATOM      8  C   UNL     1       4.394   6.872  17.043  0.00  0.00    +0.000 A 
ATOM      9  C   UNL     1       3.559   6.025  17.782  0.00  0.00    +0.000 A 
ATOM     10  C   UNL     1       3.588   4.648  17.527  0.00  0.00    +0.000 A 
ATOM     11  C   UNL     1       4.466   4.117  16.586  0.00  0.00    +0.000 A 
BRANCH   6  12
ATOM     12  C   UNL     1       6.393   4.371  14.985  0.00  0.00    +0.000 C 
BRANCH  12  13
ATOM     13  C   UNL     1       5.755   3.922  13.668  0.00  0.00    +0.000 C 
BRANCH  13  15
ATOM     14  C   UNL     1       7.671   5.086  12.562  0.00  0.00    +0.000 C 
ATOM     15  C   UNL     1       6.755   3.871  12.522  0.00  0.00    +0.000 C 
ENDBRANCH  13  15
ENDBRANCH  12  13
ENDBRANCH   6  12
ENDBRANCH   1   9
BRANCH   3  16
ATOM     16  C   UNL     1       1.099   8.847  20.906  0.00  0.00    +0.000 A 
ATOM     17  C   UNL     1       0.669   8.755  22.230  0.00  0.00    +0.000 A 
ATOM     18  C   UNL     1       0.090   9.863  22.808  0.00  0.00    +0.000 A 
ATOM     19  N   UNL     1      -0.083  11.038  22.163  0.00  0.00    +0.000 NA
ATOM     20  C   UNL     1       0.344  11.108  20.886  0.00  0.00    +0.000 A 
ATOM     21  C   UNL     1       0.942  10.051  20.220  0.00  0.00    +0.000 A 
ENDBRANCH   3  16
TORSDOF 5
ENDMDL
MODEL 6
REMARK VINA RESULT:      -7.2      1.447      1.804
REMARK  Name = 
REMARK  6 active torsions:
REMARK  status: ('A' for Active; 'I' for Inactive)
REMARK    1  A    between atoms: C_1  and  C_2
REMARK    2  A    between atoms: C_2  and  C_3
REMARK    3  A    between atoms: C_3  and  C_4
REMARK    4  A    between atoms: C_4  and  C_5
REMARK    5  A    between atoms: C_8  and  C_9
REMARK    6  A    between atoms: C_11  and  C_12
REMARK                            x       y       z     vdW  Elec       q    Type
REMARK                         _______ _______ _______ _____ _____    ______ ____
ROOT
ATOM      1  C   UNL     1       2.644   6.430  18.886  0.00  0.00    +0.000 A 
ATOM      2  N   UNL     1       2.234   7.669  18.998  0.00  0.00    +0.000 NA
ATOM      3  C   UNL     1       1.611   7.662  20.223  0.00  0.00    +0.000 A 
ATOM      4  N   UNL     1       1.603   6.465  20.834  0.00  0.00    +0.000 NA
ATOM      5  O   UNL     1       2.286   5.646  19.945  0.00  0.00    +0.000 OA
ENDROOT
BRANCH   1   9
ATOM      6  C   UNL     1       5.216   4.574  16.048  0.00  0.00    +0.000 A 
ATOM      7  C   UNL     1       5.260   5.963  16.243  0.00  0.00    +0.000 A 
ATOM      8  C   UNL     1       4.400   6.576  17.151  0.00  0.00    +0.000 A 
ATOM      9  C   UNL     1       3.470   5.812  17.867  0.00  0.00    +0.000 A 
ATOM     10  C   UNL     1       3.392   4.434  17.626  0.00  0.00    +0.000 A 
ATOM     11  C   UNL     1       4.256   3.819  16.724  0.00  0.00    +0.000 A 
BRANCH   6  12
ATOM     12  C   UNL     1       6.254   3.891  15.193  0.00  0.00    +0.000 C 
BRANCH  12  13
ATOM     13  C   UNL     1       6.745   4.857  14.112  0.00  0.00    +0.000 C 
BRANCH  13  15
ATOM     14  C   UNL     1       5.684   3.336  12.436  0.00  0.00    +0.000 C 
ATOM     15  C   UNL     1       6.906   4.184  12.756  0.00  0.00    +0.000 C 
ENDBRANCH  13  15
ENDBRANCH  12  13
ENDBRANCH   6  12
ENDBRANCH   1   9
BRANCH   3  16
ATOM     16  C   UNL     1       1.070   8.873  20.807  0.00  0.00    +0.000 A 
ATOM     17  C   UNL     1       1.026  10.047  20.054  0.00  0.00    +0.000 A 
ATOM     18  C   UNL     1       0.551  11.191  20.655  0.00  0.00    +0.000 A 
ATOM     19  N   UNL     1       0.121  11.240  21.935  0.00  0.00    +0.000 NA
ATOM     20  C   UNL     1       0.167  10.094  22.644  0.00  0.00    +0.000 A 
ATOM     21  C   UNL     1       0.623   8.892  22.127  0.00  0.00    +0.000 A 
ENDBRANCH   3  16
TORSDOF 5
ENDMDL
MODEL 7
REMARK VINA RESULT:      -7.2      0.402      1.532
REMARK  Name = 
REMARK  6 active torsions:
REMARK  status: ('A' for Active; 'I' for Inactive)
REMARK    1  A    between atoms: C_1  and  C_2
REMARK    2  A    between atoms: C_2  and  C_3
REMARK    3  A    between atoms: C_3  and  C_4
REMARK    4  A    between atoms: C_4  and  C_5
REMARK    5  A    between atoms: C_8  and  C_9
REMARK    6  A    between atoms: C_11  and  C_12
REMARK                            x       y       z     vdW  Elec       q    Type
REMARK                         _______ _______ _______ _____ _____    ______ ____
ROOT
ATOM      1  C   UNL     1       2.164   8.039  18.789  0.00  0.00    +0.000 A 
ATOM      2  N   UNL     1       1.775   8.248  20.022  0.00  0.00    +0.000 NA
ATOM      3  C   UNL     1       0.998   9.375  19.898  0.00  0.00    +0.000 A 
ATOM      4  N   UNL     1       0.931   9.867  18.648  0.00  0.00    +0.000 NA
ATOM      5  O   UNL     1       1.707   8.981  17.912  0.00  0.00    +0.000 OA
ENDROOT
BRANCH   1   9
ATOM      6  C   UNL     1       4.277   4.837  16.948  0.00  0.00    +0.000 A 
ATOM      7  C   UNL     1       3.091   4.589  17.656  0.00  0.00    +0.000 A 
ATOM      8  C   UNL     1       2.412   5.632  18.283  0.00  0.00    +0.000 A 
ATOM      9  C   UNL     1       2.918   6.936  18.226  0.00  0.00    +0.000 A 
ATOM     10  C   UNL     1       4.132   7.168  17.565  0.00  0.00    +0.000 A 
ATOM     11  C   UNL     1       4.808   6.127  16.933  0.00  0.00    +0.000 A 
BRANCH   6  12
ATOM     12  C   UNL     1       4.921   3.743  16.132  0.00  0.00    +0.000 C 
BRANCH  12  13
ATOM     13  C   UNL     1       6.351   4.149  15.767  0.00  0.00    +0.000 C 
BRANCH  13  15
ATOM     14  C   UNL     1       5.970   3.715  13.335  0.00  0.00    +0.000 C 
ATOM     15  C   UNL     1       6.454   4.728  14.363  0.00  0.00    +0.000 C 
ENDBRANCH  13  15
ENDBRANCH  12  13
ENDBRANCH   6  12
ENDBRANCH   1   9
BRANCH   3  16
ATOM     16  C   UNL     1       0.277   9.929  21.026  0.00  0.00    +0.000 A 
ATOM     17  C   UNL     1       0.187   9.205  22.215  0.00  0.00    +0.000 A 
ATOM     18  C   UNL     1      -0.547   9.738  23.251  0.00  0.00    +0.000 A 
ATOM     19  N   UNL     1      -1.184  10.928  23.181  0.00  0.00    +0.000 NA
ATOM     20  C   UNL     1      -1.081  11.614  22.024  0.00  0.00    +0.000 A 
ATOM     21  C   UNL     1      -0.363  11.163  20.929  0.00  0.00    +0.000 A 
ENDBRANCH   3  16
TORSDOF 5
ENDMDL
MODEL 8
REMARK VINA RESULT:      -7.1      2.073      2.568
REMARK  Name = 
REMARK  6 active torsions:
REMARK  status: ('A' for Active; 'I' for Inactive)
REMARK    1  A    between atoms: C_1  and  C_2
REMARK    2  A    between atoms: C_2  and  C_3
REMARK    3  A    between atoms: C_3  and  C_4
REMARK    4  A    between atoms: C_4  and  C_5
REMARK    5  A    between atoms: C_8  and  C_9
REMARK    6  A    between atoms: C_11  and  C_12
REMARK                            x       y       z     vdW  Elec       q    Type
REMARK                         _______ _______ _______ _____ _____    ______ ____
ROOT
ATOM      1  C   UNL     1       2.688   7.385  18.247  0.00  0.00    +0.000 A 
ATOM      2  N   UNL     1       2.091   8.456  17.789  0.00  0.00    +0.000 NA
ATOM      3  C   UNL     1       1.501   8.969  18.920  0.00  0.00    +0.000 A 
ATOM      4  N   UNL     1       1.693   8.232  20.028  0.00  0.00    +0.000 NA
ATOM      5  O   UNL     1       2.480   7.179  19.581  0.00  0.00    +0.000 OA
ENDROOT
BRANCH   1   9
ATOM      6  C   UNL     1       5.182   4.682  16.104  0.00  0.00    +0.000 A 
ATOM      7  C   UNL     1       4.164   4.197  16.939  0.00  0.00    +0.000 A 
ATOM      8  C   UNL     1       3.364   5.079  17.663  0.00  0.00    +0.000 A 
ATOM      9  C   UNL     1       3.582   6.459  17.576  0.00  0.00    +0.000 A 
ATOM     10  C   UNL     1       4.636   6.934  16.786  0.00  0.00    +0.000 A 
ATOM     11  C   UNL     1       5.431   6.054  16.057  0.00  0.00    +0.000 A 
BRANCH   6  12
ATOM     12  C   UNL     1       5.936   3.742  15.197  0.00  0.00    +0.000 C 
BRANCH  12  13
ATOM     13  C   UNL     1       6.675   4.547  14.125  0.00  0.00    +0.000 C 
BRANCH  13  15
ATOM     14  C   UNL     1       5.259   3.408  12.409  0.00  0.00    +0.000 C 
ATOM     15  C   UNL     1       6.668   3.859  12.768  0.00  0.00    +0.000 C 
ENDBRANCH  13  15
ENDBRANCH  12  13
ENDBRANCH   6  12
ENDBRANCH   1   9
BRANCH   3  16
ATOM     16  C   UNL     1       0.787  10.230  18.899  0.00  0.00    +0.000 A 
ATOM     17  C   UNL     1       1.489  11.423  18.731  0.00  0.00    +0.000 A 
ATOM     18  C   UNL     1       0.786  12.606  18.765  0.00  0.00    +0.000 A 
ATOM     19  N   UNL     1      -0.551  12.676  18.949  0.00  0.00    +0.000 NA
ATOM     20  C   UNL     1      -1.213  11.511  19.104  0.00  0.00    +0.000 A 
ATOM     21  C   UNL     1      -0.595  10.271  19.080  0.00  0.00    +0.000 A 
ENDBRANCH   3  16
TORSDOF 5
ENDMDL
MODEL 9
REMARK VINA RESULT:      -7.1      1.497      2.413
REMARK  Name = 
REMARK  6 active torsions:
REMARK  status: ('A' for Active; 'I' for Inactive)
REMARK    1  A    between atoms: C_1  and  C_2
REMARK    2  A    between atoms: C_2  and  C_3
REMARK    3  A    between atoms: C_3  and  C_4
REMARK    4  A    between atoms: C_4  and  C_5
REMARK    5  A    between atoms: C_8  and  C_9
REMARK    6  A    between atoms: C_11  and  C_12
REMARK                            x       y       z     vdW  Elec       q    Type
REMARK                         _______ _______ _______ _____ _____    ______ ____
ROOT
ATOM      1  C   UNL     1       2.869   6.850  18.548  0.00  0.00    +0.000 A 
ATOM      2  N   UNL     1       2.309   8.012  18.318  0.00  0.00    +0.000 NA
ATOM      3  C   UNL     1       1.714   8.294  19.524  0.00  0.00    +0.000 A 
ATOM      4  N   UNL     1       1.868   7.337  20.456  0.00  0.00    +0.000 NA
ATOM      5  O   UNL     1       2.633   6.377  19.807  0.00  0.00    +0.000 OA
ENDROOT
BRANCH   1   9
ATOM      6  C   UNL     1       5.304   4.547  15.925  0.00  0.00    +0.000 A 
ATOM      7  C   UNL     1       4.409   3.914  16.801  0.00  0.00    +0.000 A 
ATOM      8  C   UNL     1       3.631   4.664  17.680  0.00  0.00    +0.000 A 
ATOM      9  C   UNL     1       3.748   6.059  17.708  0.00  0.00    +0.000 A 
ATOM     10  C   UNL     1       4.684   6.681  16.872  0.00  0.00    +0.000 A 
ATOM     11  C   UNL     1       5.457   5.933  15.988  0.00  0.00    +0.000 A 
BRANCH   6  12
ATOM     12  C   UNL     1       6.021   3.753  14.862  0.00  0.00    +0.000 C 
BRANCH  12  13
ATOM     13  C   UNL     1       6.817   4.701  13.962  0.00  0.00    +0.000 C 
BRANCH  13  15
ATOM     14  C   UNL     1       5.763   3.230  12.238  0.00  0.00    +0.000 C 
ATOM     15  C   UNL     1       6.884   4.221  12.520  0.00  0.00    +0.000 C 
ENDBRANCH  13  15
ENDBRANCH  12  13
ENDBRANCH   6  12
ENDBRANCH   1   9
BRANCH   3  16
ATOM     16  C   UNL     1       1.035   9.552  19.760  0.00  0.00    +0.000 A 
ATOM     17  C   UNL     1       0.477   9.817  21.011  0.00  0.00    +0.000 A 
ATOM     18  C   UNL     1      -0.204  11.001  21.186  0.00  0.00    +0.000 A 
ATOM     19  N   UNL     1      -0.359  11.925  20.212  0.00  0.00    +0.000 NA
ATOM     20  C   UNL     1       0.192  11.653  19.012  0.00  0.00    +0.000 A 
ATOM     21  C   UNL     1       0.899  10.493  18.740  0.00  0.00    +0.000 A 
ENDBRANCH   3  16
TORSDOF 5
ENDMDL
