MODEL 1
REMARK VINA RESULT:      -7.6      0.000      0.000
REMARK  Name = 
REMARK  6 active torsions:
REMARK  status: ('A' for Active; 'I' for Inactive)
REMARK    1  A    between atoms: C_1  and  N_2
REMARK    2  A    between atoms: C_6  and  C_7
REMARK    3  A    between atoms: C_7  and  N_8
REMARK    4  A    between atoms: C_9  and  C_11
REMARK    5  A    between atoms: N_15  and  C_16
REMARK    6  A    between atoms: C_16  and  C_17
REMARK                            x       y       z     vdW  Elec       q    Type
REMARK                         _______ _______ _______ _____ _____    ______ ____
ROOT
ATOM      1  C   UNL     1       6.127   4.717  17.761  0.00  0.00    +0.000 C 
ATOM      2  C   UNL     1       5.459   6.085  17.910  0.00  0.00    +0.000 C 
ATOM      3  C   UNL     1       4.672   6.488  16.667  0.00  0.00    +0.000 C 
ATOM      4  C   UNL     1       5.487   6.306  15.384  0.00  0.00    +0.000 C 
ATOM      5  N   UNL     1       6.056   4.950  15.263  0.00  0.00    +0.000 NA
ATOM      6  C   UNL     1       6.888   4.618  16.438  0.00  0.00    +0.000 C 
ENDROOT
BRANCH   1   8
ATOM      7  N   UNL     1       5.070   3.065  19.248  0.00  0.00    +0.000 N 
ATOM      8  C   UNL     1       5.137   3.572  17.972  0.00  0.00    +0.000 C 
ATOM      9  O   UNL     1       4.497   3.097  17.036  0.00  0.00    +0.000 OA
ATOM     10  H   UNL     1       5.325   3.707  19.997  0.00  0.00    +0.000 HD
BRANCH   7  11
ATOM     11  C   UNL     1       4.163   1.984  19.558  0.00  0.00    +0.000 C 
BRANCH  11  17
ATOM     12  C   UNL     1       1.430   3.210  18.594  0.00  0.00    +0.000 C 
ATOM     13  N   UNL     1       1.873   3.037  19.950  0.00  0.00    +0.000 N 
ATOM     14  C   UNL     1       1.175   3.399  21.064  0.00  0.00    +0.000 A 
ATOM     15  N   UNL     1       1.851   3.067  22.134  0.00  0.00    +0.000 NA
ATOM     16  N   UNL     1       3.025   2.485  21.721  0.00  0.00    +0.000 NA
ATOM     17  C   UNL     1       3.048   2.486  20.400  0.00  0.00    +0.000 A 
ENDBRANCH  11  17
ENDBRANCH   7  11
ENDBRANCH   1   8
BRANCH   5  18
ATOM     18  C   UNL     1       6.899   4.835  14.049  0.00  0.00    +0.000 C 
BRANCH  18  19
ATOM     19  C   UNL     1       6.339   3.918  12.985  0.00  0.00    +0.000 A 
ATOM     20  C   UNL     1       7.188   3.056  12.272  0.00  0.00    +0.000 A 
ATOM     21  C   UNL     1       6.669   2.186  11.312  0.00  0.00    +0.000 A 
ATOM     22  C   UNL     1       5.300   2.169  11.053  0.00  0.00    +0.000 A 
ATOM     23  C   UNL     1       4.448   3.024  11.753  0.00  0.00    +0.000 A 
ATOM     24  C   UNL     1       4.963   3.893  12.715  0.00  0.00    +0.000 A 
ENDBRANCH  18  19
ENDBRANCH   5  18
TORSDOF 5
ENDMDL
MODEL 2
REMARK VINA RESULT:      -7.6      3.062      7.215
REMARK  Name = 
REMARK  6 active torsions:
REMARK  status: ('A' for Active; 'I' for Inactive)
REMARK    1  A    between atoms: C_1  and  N_2
REMARK    2  A    between atoms: C_6  and  C_7
REMARK    3  A    between atoms: C_7  and  N_8
REMARK    4  A    between atoms: C_9  and  C_11
REMARK    5  A    between atoms: N_15  and  C_16
REMARK    6  A    between atoms: C_16  and  C_17
REMARK                            x       y       z     vdW  Elec       q    Type
REMARK                         _______ _______ _______ _____ _____    ______ ____
ROOT
ATOM      1  C   UNL     1       3.135   2.550  19.843  0.00  0.00    +0.000 C 
ATOM      2  C   UNL     1       1.755   1.892  19.788  0.00  0.00    +0.000 C 
ATOM      3  C   UNL     1       0.677   2.840  19.274  0.00  0.00    +0.000 C 
ATOM      4  C   UNL     1       0.715   4.196  19.983  0.00  0.00    +0.000 C 
ATOM      5  N   UNL     1       2.055   4.813  19.953  0.00  0.00    +0.000 NA
ATOM      6  C   UNL     1       3.067   3.911  20.540  0.00  0.00    +0.000 C 
ENDROOT
BRANCH   1   8
ATOM      7  N   UNL     1       4.168   3.861  18.035  0.00  0.00    +0.000 N 
ATOM      8  C   UNL     1       3.794   2.611  18.466  0.00  0.00    +0.000 C 
ATOM      9  O   UNL     1       3.911   1.607  17.766  0.00  0.00    +0.000 OA
ATOM     10  H   UNL     1       4.375   4.541  18.766  0.00  0.00    +0.000 HD
BRANCH   7  11
ATOM     11  C   UNL     1       4.805   4.031  16.749  0.00  0.00    +0.000 C 
BRANCH  11  17
ATOM     12  C   UNL     1       7.735   4.448  17.814  0.00  0.00    +0.000 C 
ATOM     13  N   UNL     1       6.875   5.440  17.233  0.00  0.00    +0.000 N 
ATOM     14  C   UNL     1       7.186   6.757  17.060  0.00  0.00    +0.000 A 
ATOM     15  N   UNL     1       6.191   7.370  16.470  0.00  0.00    +0.000 NA
ATOM     16  N   UNL     1       5.198   6.445  16.260  0.00  0.00    +0.000 NA
ATOM     17  C   UNL     1       5.601   5.283  16.740  0.00  0.00    +0.000 A 
ENDBRANCH  11  17
ENDBRANCH   7  11
ENDBRANCH   1   8
BRANCH   5  18
ATOM     18  C   UNL     1       2.071   6.085  20.713  0.00  0.00    +0.000 C 
BRANCH  18  19
ATOM     19  C   UNL     1       1.916   7.324  19.861  0.00  0.00    +0.000 A 
ATOM     20  C   UNL     1       1.233   8.447  20.356  0.00  0.00    +0.000 A 
ATOM     21  C   UNL     1       1.117   9.603  19.583  0.00  0.00    +0.000 A 
ATOM     22  C   UNL     1       1.679   9.649  18.309  0.00  0.00    +0.000 A 
ATOM     23  C   UNL     1       2.355   8.539  17.805  0.00  0.00    +0.000 A 
ATOM     24  C   UNL     1       2.476   7.382  18.576  0.00  0.00    +0.000 A 
ENDBRANCH  18  19
ENDBRANCH   5  18
TORSDOF 5
ENDMDL
MODEL 3
REMARK VINA RESULT:      -7.6      3.538      5.909
REMARK  Name = 
REMARK  6 active torsions:
REMARK  status: ('A' for Active; 'I' for Inactive)
REMARK    1  A    between atoms: C_1  and  N_2
REMARK    2  A    between atoms: C_6  and  C_7
REMARK    3  A    between atoms: C_7  and  N_8
REMARK    4  A    between atoms: C_9  and  C_11
REMARK    5  A    between atoms: N_15  and  C_16
REMARK    6  A    between atoms: C_16  and  C_17
REMARK                            x       y       z     vdW  Elec       q    Type
REMARK                         _______ _______ _______ _____ _____    ______ ____
ROOT
ATOM      1  C   UNL     1       1.410   3.628  18.296  0.00  0.00    +0.000 C 
ATOM      2  C   UNL     1       1.508   2.151  18.684  0.00  0.00    +0.000 C 
ATOM      3  C   UNL     1       2.919   1.749  19.099  0.00  0.00    +0.000 C 
ATOM      4  C   UNL     1       3.973   2.222  18.093  0.00  0.00    +0.000 C 
ATOM      5  N   UNL     1       3.871   3.665  17.803  0.00  0.00    +0.000 NA
ATOM      6  C   UNL     1       2.520   4.013  17.316  0.00  0.00    +0.000 C 
ENDROOT
BRANCH   1   8
ATOM      7  N   UNL     1       2.049   5.715  19.433  0.00  0.00    +0.000 N 
ATOM      8  C   UNL     1       1.348   4.536  19.523  0.00  0.00    +0.000 C 
ATOM      9  O   UNL     1       0.762   4.191  20.547  0.00  0.00    +0.000 OA
ATOM     10  H   UNL     1       2.184   6.082  18.491  0.00  0.00    +0.000 HD
BRANCH   7  11
ATOM     11  C   UNL     1       2.053   6.649  20.535  0.00  0.00    +0.000 C 
BRANCH  11  17
ATOM     12  C   UNL     1       0.846   9.025  22.206  0.00  0.00    +0.000 C 
ATOM     13  N   UNL     1       1.142   9.017  20.801  0.00  0.00    +0.000 N 
ATOM     14  C   UNL     1       0.928  10.052  19.939  0.00  0.00    +0.000 A 
ATOM     15  N   UNL     1       1.343   9.721  18.743  0.00  0.00    +0.000 NA
ATOM     16  N   UNL     1       1.830   8.439  18.810  0.00  0.00    +0.000 NA
ATOM     17  C   UNL     1       1.689   8.004  20.050  0.00  0.00    +0.000 A 
ENDBRANCH  11  17
ENDBRANCH   7  11
ENDBRANCH   1   8
BRANCH   5  18
ATOM     18  C   UNL     1       4.855   4.069  16.771  0.00  0.00    +0.000 C 
BRANCH  18  19
ATOM     19  C   UNL     1       5.890   5.061  17.251  0.00  0.00    +0.000 A 
ATOM     20  C   UNL     1       5.950   6.350  16.697  0.00  0.00    +0.000 A 
ATOM     21  C   UNL     1       6.884   7.277  17.161  0.00  0.00    +0.000 A 
ATOM     22  C   UNL     1       7.767   6.927  18.180  0.00  0.00    +0.000 A 
ATOM     23  C   UNL     1       7.720   5.649  18.734  0.00  0.00    +0.000 A 
ATOM     24  C   UNL     1       6.786   4.720  18.275  0.00  0.00    +0.000 A 
ENDBRANCH  18  19
ENDBRANCH   5  18
TORSDOF 5
ENDMDL
MODEL 4
REMARK VINA RESULT:      -7.5      3.551      5.909
REMARK  Name = 
REMARK  6 active torsions:
REMARK  status: ('A' for Active; 'I' for Inactive)
REMARK    1  A    between atoms: C_1  and  N_2
REMARK    2  A    between atoms: C_6  and  C_7
REMARK    3  A    between atoms: C_7  and  N_8
REMARK    4  A    between atoms: C_9  and  C_11
REMARK    5  A    between atoms: N_15  and  C_16
REMARK    6  A    between atoms: C_16  and  C_17
REMARK                            x       y       z     vdW  Elec       q    Type
REMARK                         _______ _______ _______ _____ _____    ______ ____
ROOT
ATOM      1  C   UNL     1       1.409   3.670  18.255  0.00  0.00    +0.000 C 
ATOM      2  C   UNL     1       1.443   2.185  18.624  0.00  0.00    +0.000 C 
ATOM      3  C   UNL     1       2.824   1.729  19.082  0.00  0.00    +0.000 C 
ATOM      4  C   UNL     1       3.929   2.180  18.122  0.00  0.00    +0.000 C 
ATOM      5  N   UNL     1       3.886   3.629  17.851  0.00  0.00    +0.000 NA
ATOM      6  C   UNL     1       2.566   4.030  17.322  0.00  0.00    +0.000 C 
ENDROOT
BRANCH   1   8
ATOM      7  N   UNL     1       2.035   5.742  19.425  0.00  0.00    +0.000 N 
ATOM      8  C   UNL     1       1.333   4.563  19.493  0.00  0.00    +0.000 C 
ATOM      9  O   UNL     1       0.736   4.205  20.506  0.00  0.00    +0.000 OA
ATOM     10  H   UNL     1       2.180   6.122  18.490  0.00  0.00    +0.000 HD
BRANCH   7  11
ATOM     11  C   UNL     1       2.027   6.662  20.539  0.00  0.00    +0.000 C 
BRANCH  11  17
ATOM     12  C   UNL     1       0.732   8.993  22.208  0.00  0.00    +0.000 C 
ATOM     13  N   UNL     1       1.084   9.016  20.816  0.00  0.00    +0.000 N 
ATOM     14  C   UNL     1       0.895  10.067  19.967  0.00  0.00    +0.000 A 
ATOM     15  N   UNL     1       1.361   9.764  18.782  0.00  0.00    +0.000 NA
ATOM     16  N   UNL     1       1.856   8.485  18.843  0.00  0.00    +0.000 NA
ATOM     17  C   UNL     1       1.670   8.024  20.067  0.00  0.00    +0.000 A 
ENDBRANCH  11  17
ENDBRANCH   7  11
ENDBRANCH   1   8
BRANCH   5  18
ATOM     18  C   UNL     1       4.919   4.015  16.860  0.00  0.00    +0.000 C 
BRANCH  18  19
ATOM     19  C   UNL     1       5.917   5.033  17.364  0.00  0.00    +0.000 A 
ATOM     20  C   UNL     1       6.741   4.737  18.462  0.00  0.00    +0.000 A 
ATOM     21  C   UNL     1       7.685   5.663  18.909  0.00  0.00    +0.000 A 
ATOM     22  C   UNL     1       7.815   6.892  18.265  0.00  0.00    +0.000 A 
ATOM     23  C   UNL     1       7.000   7.198  17.176  0.00  0.00    +0.000 A 
ATOM     24  C   UNL     1       6.056   6.274  16.725  0.00  0.00    +0.000 A 
ENDBRANCH  18  19
ENDBRANCH   5  18
TORSDOF 5
ENDMDL
MODEL 5
REMARK VINA RESULT:      -7.5      3.063      5.509
REMARK  Name = 
REMARK  6 active torsions:
REMARK  status: ('A' for Active; 'I' for Inactive)
REMARK    1  A    between atoms: C_1  and  N_2
REMARK    2  A    between atoms: C_6  and  C_7
REMARK    3  A    between atoms: C_7  and  N_8
REMARK    4  A    between atoms: C_9  and  C_11
REMARK    5  A    between atoms: N_15  and  C_16
REMARK    6  A    between atoms: C_16  and  C_17
REMARK                            x       y       z     vdW  Elec       q    Type
REMARK                         _______ _______ _______ _____ _____    ______ ____
ROOT
ATOM      1  C   UNL     1       5.582   4.366  17.186  0.00  0.00    +0.000 C 
ATOM      2  C   UNL     1       6.949   5.007  16.940  0.00  0.00    +0.000 C 
ATOM      3  C   UNL     1       7.054   6.405  17.540  0.00  0.00    +0.000 C 
ATOM      4  C   UNL     1       5.855   7.283  17.172  0.00  0.00    +0.000 C 
ATOM      5  N   UNL     1       4.565   6.641  17.488  0.00  0.00    +0.000 NA
ATOM      6  C   UNL     1       4.450   5.328  16.820  0.00  0.00    +0.000 C 
ENDROOT
BRANCH   1   8
ATOM      7  N   UNL     1       4.650   2.706  18.746  0.00  0.00    +0.000 N 
ATOM      8  C   UNL     1       5.461   3.806  18.603  0.00  0.00    +0.000 C 
ATOM      9  O   UNL     1       6.005   4.357  19.558  0.00  0.00    +0.000 OA
ATOM     10  H   UNL     1       4.545   2.119  17.919  0.00  0.00    +0.000 HD
BRANCH   7  11
ATOM     11  C   UNL     1       4.470   2.094  20.043  0.00  0.00    +0.000 C 
BRANCH  11  17
ATOM     12  C   UNL     1       1.776   2.412  18.450  0.00  0.00    +0.000 C 
ATOM     13  N   UNL     1       1.976   2.595  19.860  0.00  0.00    +0.000 N 
ATOM     14  C   UNL     1       1.015   2.962  20.756  0.00  0.00    +0.000 A 
ATOM     15  N   UNL     1       1.528   3.001  21.960  0.00  0.00    +0.000 NA
ATOM     16  N   UNL     1       2.857   2.667  21.857  0.00  0.00    +0.000 NA
ATOM     17  C   UNL     1       3.133   2.442  20.585  0.00  0.00    +0.000 A 
ENDBRANCH  11  17
ENDBRANCH   7  11
ENDBRANCH   1   8
BRANCH   5  18
ATOM     18  C   UNL     1       3.430   7.487  17.048  0.00  0.00    +0.000 C 
BRANCH  18  19
ATOM     19  C   UNL     1       2.588   8.037  18.177  0.00  0.00    +0.000 A 
ATOM     20  C   UNL     1       1.901   9.252  18.024  0.00  0.00    +0.000 A 
ATOM     21  C   UNL     1       1.098   9.746  19.053  0.00  0.00    +0.000 A 
ATOM     22  C   UNL     1       0.974   9.034  20.244  0.00  0.00    +0.000 A 
ATOM     23  C   UNL     1       1.655   7.828  20.409  0.00  0.00    +0.000 A 
ATOM     24  C   UNL     1       2.457   7.330  19.381  0.00  0.00    +0.000 A 
ENDBRANCH  18  19
ENDBRANCH   5  18
TORSDOF 5
ENDMDL
MODEL 6
REMARK VINA RESULT:      -7.5      3.087      5.479
REMARK  Name = 
REMARK  6 active torsions:
REMARK  status: ('A' for Active; 'I' for Inactive)
REMARK    1  A    between atoms: C_1  and  N_2
REMARK    2  A    between atoms: C_6  and  C_7
REMARK    3  A    between atoms: C_7  and  N_8
REMARK    4  A    between atoms: C_9  and  C_11
REMARK    5  A    between atoms: N_15  and  C_16
REMARK    6  A    between atoms: C_16  and  C_17
REMARK                            x       y       z     vdW  Elec       q    Type
REMARK                         _______ _______ _______ _____ _____    ______ ____
ROOT
ATOM      1  C   UNL     1       5.636   4.416  17.210  0.00  0.00    +0.000 C 
ATOM      2  C   UNL     1       6.999   5.065  16.964  0.00  0.00    +0.000 C 
ATOM      3  C   UNL     1       7.099   6.460  17.571  0.00  0.00    +0.000 C 
ATOM      4  C   UNL     1       5.895   7.334  17.210  0.00  0.00    +0.000 C 
ATOM      5  N   UNL     1       4.609   6.684  17.525  0.00  0.00    +0.000 NA
ATOM      6  C   UNL     1       4.499   5.374  16.851  0.00  0.00    +0.000 C 
ENDROOT
BRANCH   1   8
ATOM      7  N   UNL     1       4.657   2.791  18.777  0.00  0.00    +0.000 N 
ATOM      8  C   UNL     1       5.521   3.848  18.624  0.00  0.00    +0.000 C 
ATOM      9  O   UNL     1       6.116   4.360  19.570  0.00  0.00    +0.000 OA
ATOM     10  H   UNL     1       4.501   2.218  17.948  0.00  0.00    +0.000 HD
BRANCH   7  11
ATOM     11  C   UNL     1       4.477   2.176  20.072  0.00  0.00    +0.000 C 
BRANCH  11  17
ATOM     12  C   UNL     1       1.815   2.506  18.428  0.00  0.00    +0.000 C 
ATOM     13  N   UNL     1       1.980   2.643  19.848  0.00  0.00    +0.000 N 
ATOM     14  C   UNL     1       0.993   2.963  20.734  0.00  0.00    +0.000 A 
ATOM     15  N   UNL     1       1.477   2.969  21.950  0.00  0.00    +0.000 NA
ATOM     16  N   UNL     1       2.813   2.659  21.867  0.00  0.00    +0.000 NA
ATOM     17  C   UNL     1       3.123   2.483  20.595  0.00  0.00    +0.000 A 
ENDBRANCH  11  17
ENDBRANCH   7  11
ENDBRANCH   1   8
BRANCH   5  18
ATOM     18  C   UNL     1       3.469   7.527  17.092  0.00  0.00    +0.000 C 
BRANCH  18  19
ATOM     19  C   UNL     1       2.582   8.004  18.220  0.00  0.00    +0.000 A 
ATOM     20  C   UNL     1       2.484   7.263  19.409  0.00  0.00    +0.000 A 
ATOM     21  C   UNL     1       1.691   7.718  20.463  0.00  0.00    +0.000 A 
ATOM     22  C   UNL     1       0.988   8.915  20.341  0.00  0.00    +0.000 A 
ATOM     23  C   UNL     1       1.074   9.657  19.163  0.00  0.00    +0.000 A 
ATOM     24  C   UNL     1       1.868   9.206  18.108  0.00  0.00    +0.000 A 
ENDBRANCH  18  19
ENDBRANCH   5  18
TORSDOF 5
ENDMDL
MODEL 7
REMARK VINA RESULT:      -7.5      3.447      7.355
REMARK  Name = 
REMARK  6 active torsions:
REMARK  status: ('A' for Active; 'I' for Inactive)
REMARK    1  A    between atoms: C_1  and  N_2
REMARK    2  A    between atoms: C_6  and  C_7
REMARK    3  A    between atoms: C_7  and  N_8
REMARK    4  A    between atoms: C_9  and  C_11
REMARK    5  A    between atoms: N_15  and  C_16
REMARK    6  A    between atoms: C_16  and  C_17
REMARK                            x       y       z     vdW  Elec       q    Type
REMARK                         _______ _______ _______ _____ _____    ______ ____
ROOT
ATOM      1  C   UNL     1       4.094   3.319  19.238  0.00  0.00    +0.000 C 
ATOM      2  C   UNL     1       2.991   2.360  18.784  0.00  0.00    +0.000 C 
ATOM      3  C   UNL     1       1.772   3.093  18.233  0.00  0.00    +0.000 C 
ATOM      4  C   UNL     1       1.306   4.217  19.162  0.00  0.00    +0.000 C 
ATOM      5  N   UNL     1       2.396   5.146  19.518  0.00  0.00    +0.000 NA
ATOM      6  C   UNL     1       3.529   4.422  20.133  0.00  0.00    +0.000 C 
ENDROOT
BRANCH   1   8
ATOM      7  N   UNL     1       6.269   3.860  18.221  0.00  0.00    +0.000 N 
ATOM      8  C   UNL     1       4.904   3.856  18.059  0.00  0.00    +0.000 C 
ATOM      9  O   UNL     1       4.355   4.318  17.061  0.00  0.00    +0.000 OA
ATOM     10  H   UNL     1       6.644   3.163  18.865  0.00  0.00    +0.000 HD
BRANCH   7  11
ATOM     11  C   UNL     1       7.129   4.342  17.165  0.00  0.00    +0.000 C 
BRANCH  11  17
ATOM     12  C   UNL     1       8.135   5.714  19.811  0.00  0.00    +0.000 C 
ATOM     13  N   UNL     1       7.855   6.353  18.556  0.00  0.00    +0.000 N 
ATOM     14  C   UNL     1       7.965   7.690  18.305  0.00  0.00    +0.000 A 
ATOM     15  N   UNL     1       7.669   7.927  17.052  0.00  0.00    +0.000 NA
ATOM     16  N   UNL     1       7.345   6.728  16.466  0.00  0.00    +0.000 NA
ATOM     17  C   UNL     1       7.437   5.778  17.380  0.00  0.00    +0.000 A 
ENDBRANCH  11  17
ENDBRANCH   7  11
ENDBRANCH   1   8
BRANCH   5  18
ATOM     18  C   UNL     1       1.926   6.173  20.477  0.00  0.00    +0.000 C 
BRANCH  18  19
ATOM     19  C   UNL     1       1.743   7.549  19.877  0.00  0.00    +0.000 A 
ATOM     20  C   UNL     1       2.158   7.812  18.562  0.00  0.00    +0.000 A 
ATOM     21  C   UNL     1       1.962   9.072  17.995  0.00  0.00    +0.000 A 
ATOM     22  C   UNL     1       1.351  10.082  18.736  0.00  0.00    +0.000 A 
ATOM     23  C   UNL     1       0.939   9.834  20.045  0.00  0.00    +0.000 A 
ATOM     24  C   UNL     1       1.131   8.574  20.614  0.00  0.00    +0.000 A 
ENDBRANCH  18  19
ENDBRANCH   5  18
TORSDOF 5
ENDMDL
MODEL 8
REMARK VINA RESULT:      -7.4      3.001      6.081
REMARK  Name = 
REMARK  6 active torsions:
REMARK  status: ('A' for Active; 'I' for Inactive)
REMARK    1  A    between atoms: C_1  and  N_2
REMARK    2  A    between atoms: C_6  and  C_7
REMARK    3  A    between atoms: C_7  and  N_8
REMARK    4  A    between atoms: C_9  and  C_11
REMARK    5  A    between atoms: N_15  and  C_16
REMARK    6  A    between atoms: C_16  and  C_17
REMARK                            x       y       z     vdW  Elec       q    Type
REMARK                         _______ _______ _______ _____ _____    ______ ____
ROOT
ATOM      1  C   UNL     1       6.183   5.437  17.674  0.00  0.00    +0.000 C 
ATOM      2  C   UNL     1       6.990   5.070  16.427  0.00  0.00    +0.000 C 
ATOM      3  C   UNL     1       6.146   4.361  15.373  0.00  0.00    +0.000 C 
ATOM      4  C   UNL     1       5.323   3.215  15.968  0.00  0.00    +0.000 C 
ATOM      5  N   UNL     1       4.517   3.640  17.129  0.00  0.00    +0.000 NA
ATOM      6  C   UNL     1       5.371   4.241  18.175  0.00  0.00    +0.000 C 
ENDROOT
BRANCH   1   8
ATOM      7  N   UNL     1       4.007   6.581  17.785  0.00  0.00    +0.000 N 
ATOM      8  C   UNL     1       5.337   6.691  17.457  0.00  0.00    +0.000 C 
ATOM      9  O   UNL     1       5.813   7.706  16.952  0.00  0.00    +0.000 OA
ATOM     10  H   UNL     1       3.780   5.890  18.499  0.00  0.00    +0.000 HD
BRANCH   7  11
ATOM     11  C   UNL     1       3.119   7.709  17.622  0.00  0.00    +0.000 C 
BRANCH  11  17
ATOM     12  C   UNL     1       1.273  10.153  18.340  0.00  0.00    +0.000 C 
ATOM     13  N   UNL     1       1.550   9.007  19.159  0.00  0.00    +0.000 N 
ATOM     14  C   UNL     1       1.064   8.793  20.415  0.00  0.00    +0.000 A 
ATOM     15  N   UNL     1       1.484   7.636  20.859  0.00  0.00    +0.000 NA
ATOM     16  N   UNL     1       2.274   7.078  19.884  0.00  0.00    +0.000 NA
ATOM     17  C   UNL     1       2.333   7.916  18.864  0.00  0.00    +0.000 A 
ENDBRANCH  11  17
ENDBRANCH   7  11
ENDBRANCH   1   8
BRANCH   5  18
ATOM     18  C   UNL     1       3.795   2.491  17.724  0.00  0.00    +0.000 C 
BRANCH  18  19
ATOM     19  C   UNL     1       2.945   2.841  18.924  0.00  0.00    +0.000 A 
ATOM     20  C   UNL     1       1.716   3.498  18.757  0.00  0.00    +0.000 A 
ATOM     21  C   UNL     1       0.915   3.794  19.860  0.00  0.00    +0.000 A 
ATOM     22  C   UNL     1       1.333   3.438  21.141  0.00  0.00    +0.000 A 
ATOM     23  C   UNL     1       2.553   2.788  21.320  0.00  0.00    +0.000 A 
ATOM     24  C   UNL     1       3.356   2.488  20.218  0.00  0.00    +0.000 A 
ENDBRANCH  18  19
ENDBRANCH   5  18
TORSDOF 5
ENDMDL
MODEL 9
REMARK VINA RESULT:      -7.4      2.770      7.336
REMARK  Name = 
REMARK  6 active torsions:
REMARK  status: ('A' for Active; 'I' for Inactive)
REMARK    1  A    between atoms: C_1  and  N_2
REMARK    2  A    between atoms: C_6  and  C_7
REMARK    3  A    between atoms: C_7  and  N_8
REMARK    4  A    between atoms: C_9  and  C_11
REMARK    5  A    between atoms: N_15  and  C_16
REMARK    6  A    between atoms: C_16  and  C_17
REMARK                            x       y       z     vdW  Elec       q    Type
REMARK                         _______ _______ _______ _____ _____    ______ ____
ROOT
ATOM      1  C   UNL     1       3.256   2.801  19.668  0.00  0.00    +0.000 C 
ATOM      2  C   UNL     1       1.935   2.180  20.126  0.00  0.00    +0.000 C 
ATOM      3  C   UNL     1       0.749   3.116  19.922  0.00  0.00    +0.000 C 
ATOM      4  C   UNL     1       1.023   4.522  20.464  0.00  0.00    +0.000 C 
ATOM      5  N   UNL     1       2.277   5.095  19.941  0.00  0.00    +0.000 NA
ATOM      6  C   UNL     1       3.425   4.212  20.232  0.00  0.00    +0.000 C 
ENDROOT
BRANCH   1   8
ATOM      7  N   UNL     1       4.124   3.768  17.578  0.00  0.00    +0.000 N 
ATOM      8  C   UNL     1       3.420   2.736  18.150  0.00  0.00    +0.000 C 
ATOM      9  O   UNL     1       2.890   1.848  17.485  0.00  0.00    +0.000 OA
ATOM     10  H   UNL     1       4.807   4.229  18.178  0.00  0.00    +0.000 HD
BRANCH   7  11
ATOM     11  C   UNL     1       4.341   3.802  16.150  0.00  0.00    +0.000 C 
BRANCH  11  17
ATOM     12  C   UNL     1       6.003   3.719  13.480  0.00  0.00    +0.000 C 
ATOM     13  N   UNL     1       6.321   4.446  14.677  0.00  0.00    +0.000 N 
ATOM     14  C   UNL     1       7.428   5.221  14.863  0.00  0.00    +0.000 A 
ATOM     15  N   UNL     1       7.388   5.766  16.053  0.00  0.00    +0.000 NA
ATOM     16  N   UNL     1       6.240   5.334  16.670  0.00  0.00    +0.000 NA
ATOM     17  C   UNL     1       5.605   4.518  15.848  0.00  0.00    +0.000 A 
ENDBRANCH  11  17
ENDBRANCH   7  11
ENDBRANCH   1   8
BRANCH   5  18
ATOM     18  C   UNL     1       2.546   6.422  20.546  0.00  0.00    +0.000 C 
BRANCH  18  19
ATOM     19  C   UNL     1       2.046   7.593  19.730  0.00  0.00    +0.000 A 
ATOM     20  C   UNL     1       1.241   8.578  20.322  0.00  0.00    +0.000 A 
ATOM     21  C   UNL     1       0.804   9.676  19.580  0.00  0.00    +0.000 A 
ATOM     22  C   UNL     1       1.167   9.801  18.240  0.00  0.00    +0.000 A 
ATOM     23  C   UNL     1       1.963   8.826  17.640  0.00  0.00    +0.000 A 
ATOM     24  C   UNL     1       2.403   7.728  18.380  0.00  0.00    +0.000 A 
ENDBRANCH  18  19
ENDBRANCH   5  18
TORSDOF 5
ENDMDL
