MODEL 1
REMARK VINA RESULT:      -7.5      0.000      0.000
REMARK  Name = 
REMARK  4 active torsions:
REMARK  status: ('A' for Active; 'I' for Inactive)
REMARK    1  A    between atoms: C_2  and  C_3
REMARK    2  A    between atoms: C_9  and  C_11
REMARK    3  A    between atoms: C_11  and  N_12
REMARK    4  A    between atoms: C_11  and  C_13
REMARK                            x       y       z     vdW  Elec       q    Type
REMARK                         _______ _______ _______ _____ _____    ______ ____
ROOT
ATOM      1  C   UNL     1       1.747   4.997  19.218  0.00  0.00    +0.000 C 
ATOM      2  C   UNL     1       0.974   4.640  20.464  0.00  0.00    +0.000 C 
ATOM      3  C   UNL     1       1.276   3.177  20.641  0.00  0.00    +0.000 C 
ATOM      4  C   UNL     1       2.390   2.751  21.542  0.00  0.00    +0.000 C 
ATOM      5  C   UNL     1       2.644   2.818  20.064  0.00  0.00    +0.000 C 
ATOM      6  N   UNL     1       3.260   3.983  19.344  0.00  0.00    +0.000 N 
ATOM      7  C   UNL     1       4.793   3.783  19.127  0.00  0.00    +0.000 C 
ATOM      8  O   UNL     1       5.293   2.821  19.744  0.00  0.00    +0.000 OA
ENDROOT
BRANCH   1  10
ATOM      9  N   UNL     1       2.534   7.638  18.849  0.00  0.00    +0.000 NA
ATOM     10  C   UNL     1       2.177   6.441  19.016  0.00  0.00    +0.000 C 
ENDBRANCH   1  10
BRANCH   7  11
ATOM     11  C   UNL     1       5.959   4.555  17.986  0.00  0.00    +0.000 C 
BRANCH  11  12
ATOM     12  C   UNL     1       6.176   4.353  16.489  0.00  0.00    +0.000 C 
ATOM     13  C   UNL     1       4.982   4.380  15.526  0.00  0.00    +0.000 C 
ATOM     14  C   UNL     1       5.699   4.063  14.231  0.00  0.00    +0.000 C 
ATOM     15  C   UNL     1       7.007   4.858  14.336  0.00  0.00    +0.000 C 
ATOM     16  C   UNL     1       7.322   5.052  15.821  0.00  0.00    +0.000 C 
ENDBRANCH  11  12
BRANCH  11  17
ATOM     17  N   UNL     1       7.361   4.256  18.226  0.00  0.00    +0.000 NA
ATOM     18  H   UNL     1       8.071   4.867  17.801  0.00  0.00    +0.000 HD
ATOM     19  H   UNL     1       7.619   4.112  19.229  0.00  0.00    +0.000 HD
ENDBRANCH  11  17
ENDBRANCH   7  11
TORSDOF 4
ENDMDL
MODEL 2
REMARK VINA RESULT:      -7.3      0.279      1.020
REMARK  Name = 
REMARK  4 active torsions:
REMARK  status: ('A' for Active; 'I' for Inactive)
REMARK    1  A    between atoms: C_2  and  C_3
REMARK    2  A    between atoms: C_9  and  C_11
REMARK    3  A    between atoms: C_11  and  N_12
REMARK    4  A    between atoms: C_11  and  C_13
REMARK                            x       y       z     vdW  Elec       q    Type
REMARK                         _______ _______ _______ _____ _____    ______ ____
ROOT
ATOM      1  C   UNL     1       1.682   4.936  19.310  0.00  0.00    +0.000 C 
ATOM      2  C   UNL     1       0.883   4.465  20.500  0.00  0.00    +0.000 C 
ATOM      3  C   UNL     1       1.230   3.003  20.582  0.00  0.00    +0.000 C 
ATOM      4  C   UNL     1       2.329   2.549  21.487  0.00  0.00    +0.000 C 
ATOM      5  C   UNL     1       2.628   2.732  20.027  0.00  0.00    +0.000 C 
ATOM      6  N   UNL     1       3.224   3.966  19.414  0.00  0.00    +0.000 N 
ATOM      7  C   UNL     1       4.770   3.832  19.236  0.00  0.00    +0.000 C 
ATOM      8  O   UNL     1       5.284   2.844  19.800  0.00  0.00    +0.000 OA
ENDROOT
BRANCH   1  10
ATOM      9  N   UNL     1       2.386   7.622  19.157  0.00  0.00    +0.000 NA
ATOM     10  C   UNL     1       2.068   6.404  19.227  0.00  0.00    +0.000 C 
ENDBRANCH   1  10
BRANCH   7  11
ATOM     11  C   UNL     1       5.944   4.723  18.194  0.00  0.00    +0.000 C 
BRANCH  11  12
ATOM     12  C   UNL     1       6.038   4.850  16.676  0.00  0.00    +0.000 C 
ATOM     13  C   UNL     1       7.353   4.526  15.955  0.00  0.00    +0.000 C 
ATOM     14  C   UNL     1       6.953   4.874  14.537  0.00  0.00    +0.000 C 
ATOM     15  C   UNL     1       5.516   4.349  14.427  0.00  0.00    +0.000 C 
ATOM     16  C   UNL     1       4.912   4.331  15.833  0.00  0.00    +0.000 C 
ENDBRANCH  11  12
BRANCH  11  17
ATOM     17  N   UNL     1       7.312   4.234  18.233  0.00  0.00    +0.000 NA
ATOM     18  H   UNL     1       7.483   3.285  18.595  0.00  0.00    +0.000 HD
ATOM     19  H   UNL     1       7.847   4.339  17.341  0.00  0.00    +0.000 HD
ENDBRANCH  11  17
ENDBRANCH   7  11
TORSDOF 4
ENDMDL
MODEL 3
REMARK VINA RESULT:      -7.1      1.642      2.212
REMARK  Name = 
REMARK  4 active torsions:
REMARK  status: ('A' for Active; 'I' for Inactive)
REMARK    1  A    between atoms: C_2  and  C_3
REMARK    2  A    between atoms: C_9  and  C_11
REMARK    3  A    between atoms: C_11  and  N_12
REMARK    4  A    between atoms: C_11  and  C_13
REMARK                            x       y       z     vdW  Elec       q    Type
REMARK                         _______ _______ _______ _____ _____    ______ ____
ROOT
ATOM      1  C   UNL     1       1.821   4.974  19.105  0.00  0.00    +0.000 C 
ATOM      2  C   UNL     1       1.059   4.800  20.395  0.00  0.00    +0.000 C 
ATOM      3  C   UNL     1       1.284   3.349  20.726  0.00  0.00    +0.000 C 
ATOM      4  C   UNL     1       2.392   2.959  21.649  0.00  0.00    +0.000 C 
ATOM      5  C   UNL     1       2.616   2.851  20.168  0.00  0.00    +0.000 C 
ATOM      6  N   UNL     1       3.278   3.895  19.315  0.00  0.00    +0.000 N 
ATOM      7  C   UNL     1       4.792   3.584  19.095  0.00  0.00    +0.000 C 
ATOM      8  O   UNL     1       5.253   2.667  19.805  0.00  0.00    +0.000 OA
ENDROOT
BRANCH   1  10
ATOM      9  N   UNL     1       2.743   7.511  18.434  0.00  0.00    +0.000 NA
ATOM     10  C   UNL     1       2.326   6.360  18.738  0.00  0.00    +0.000 C 
ENDBRANCH   1  10
BRANCH   7  11
ATOM     11  C   UNL     1       5.973   4.160  17.857  0.00  0.00    +0.000 C 
BRANCH  11  12
ATOM     12  C   UNL     1       6.849   5.409  17.815  0.00  0.00    +0.000 C 
ATOM     13  C   UNL     1       6.271   6.739  17.315  0.00  0.00    +0.000 C 
ATOM     14  C   UNL     1       7.515   7.598  17.396  0.00  0.00    +0.000 C 
ATOM     15  C   UNL     1       8.183   7.146  18.701  0.00  0.00    +0.000 C 
ATOM     16  C   UNL     1       7.745   5.706  18.980  0.00  0.00    +0.000 C 
ENDBRANCH  11  12
BRANCH  11  17
ATOM     17  N   UNL     1       5.403   4.522  16.569  0.00  0.00    +0.000 NA
ATOM     18  H   UNL     1       5.895   4.224  15.716  0.00  0.00    +0.000 HD
ATOM     19  H   UNL     1       4.389   4.294  16.452  0.00  0.00    +0.000 HD
ENDBRANCH  11  17
ENDBRANCH   7  11
TORSDOF 4
ENDMDL
MODEL 4
REMARK VINA RESULT:      -7.0      1.577      2.255
REMARK  Name = 
REMARK  4 active torsions:
REMARK  status: ('A' for Active; 'I' for Inactive)
REMARK    1  A    between atoms: C_2  and  C_3
REMARK    2  A    between atoms: C_9  and  C_11
REMARK    3  A    between atoms: C_11  and  N_12
REMARK    4  A    between atoms: C_11  and  C_13
REMARK                            x       y       z     vdW  Elec       q    Type
REMARK                         _______ _______ _______ _____ _____    ______ ____
ROOT
ATOM      1  C   UNL     1       1.756   4.811  19.145  0.00  0.00    +0.000 C 
ATOM      2  C   UNL     1       0.846   4.543  20.318  0.00  0.00    +0.000 C 
ATOM      3  C   UNL     1       1.042   3.073  20.569  0.00  0.00    +0.000 C 
ATOM      4  C   UNL     1       2.035   2.618  21.589  0.00  0.00    +0.000 C 
ATOM      5  C   UNL     1       2.437   2.617  20.142  0.00  0.00    +0.000 C 
ATOM      6  N   UNL     1       3.187   3.720  19.452  0.00  0.00    +0.000 N 
ATOM      7  C   UNL     1       4.720   3.427  19.395  0.00  0.00    +0.000 C 
ATOM      8  O   UNL     1       5.100   2.462  20.089  0.00  0.00    +0.000 OA
ENDROOT
BRANCH   1  10
ATOM      9  N   UNL     1       2.731   7.388  18.773  0.00  0.00    +0.000 NA
ATOM     10  C   UNL     1       2.288   6.220  18.942  0.00  0.00    +0.000 C 
ENDBRANCH   1  10
BRANCH   7  11
ATOM     11  C   UNL     1       6.035   4.091  18.353  0.00  0.00    +0.000 C 
BRANCH  11  12
ATOM     12  C   UNL     1       6.628   5.495  18.264  0.00  0.00    +0.000 C 
ATOM     13  C   UNL     1       7.975   5.806  18.929  0.00  0.00    +0.000 C 
ATOM     14  C   UNL     1       8.066   7.287  18.627  0.00  0.00    +0.000 C 
ATOM     15  C   UNL     1       7.530   7.399  17.194  0.00  0.00    +0.000 C 
ATOM     16  C   UNL     1       6.584   6.220  16.953  0.00  0.00    +0.000 C 
ENDBRANCH  11  12
BRANCH  11  17
ATOM     17  N   UNL     1       5.748   4.127  16.929  0.00  0.00    +0.000 NA
ATOM     18  H   UNL     1       6.261   3.485  16.310  0.00  0.00    +0.000 HD
ATOM     19  H   UNL     1       4.734   4.073  16.678  0.00  0.00    +0.000 HD
ENDBRANCH  11  17
ENDBRANCH   7  11
TORSDOF 4
ENDMDL
MODEL 5
REMARK VINA RESULT:      -7.0      2.213      3.498
REMARK  Name = 
REMARK  4 active torsions:
REMARK  status: ('A' for Active; 'I' for Inactive)
REMARK    1  A    between atoms: C_2  and  C_3
REMARK    2  A    between atoms: C_9  and  C_11
REMARK    3  A    between atoms: C_11  and  N_12
REMARK    4  A    between atoms: C_11  and  C_13
REMARK                            x       y       z     vdW  Elec       q    Type
REMARK                         _______ _______ _______ _____ _____    ______ ____
ROOT
ATOM      1  C   UNL     1       3.182   3.028  20.782  0.00  0.00    +0.000 C 
ATOM      2  C   UNL     1       1.786   2.455  20.783  0.00  0.00    +0.000 C 
ATOM      3  C   UNL     1       1.015   3.446  19.953  0.00  0.00    +0.000 C 
ATOM      4  C   UNL     1       0.818   3.200  18.493  0.00  0.00    +0.000 C 
ATOM      5  C   UNL     1       1.914   4.131  18.926  0.00  0.00    +0.000 C 
ATOM      6  N   UNL     1       3.353   3.745  19.112  0.00  0.00    +0.000 N 
ATOM      7  C   UNL     1       4.208   4.078  17.849  0.00  0.00    +0.000 C 
ATOM      8  O   UNL     1       3.553   4.406  16.839  0.00  0.00    +0.000 OA
ENDROOT
BRANCH   1  10
ATOM      9  N   UNL     1       5.329   1.307  21.183  0.00  0.00    +0.000 NA
ATOM     10  C   UNL     1       4.356   2.087  21.000  0.00  0.00    +0.000 C 
ENDBRANCH   1  10
BRANCH   7  11
ATOM     11  C   UNL     1       5.986   4.278  17.616  0.00  0.00    +0.000 C 
BRANCH  11  12
ATOM     12  C   UNL     1       6.865   5.526  17.654  0.00  0.00    +0.000 C 
ATOM     13  C   UNL     1       6.311   6.874  17.175  0.00  0.00    +0.000 C 
ATOM     14  C   UNL     1       7.552   7.726  17.338  0.00  0.00    +0.000 C 
ATOM     15  C   UNL     1       8.163   7.227  18.654  0.00  0.00    +0.000 C 
ATOM     16  C   UNL     1       7.711   5.781  18.865  0.00  0.00    +0.000 C 
ENDBRANCH  11  12
BRANCH  11  17
ATOM     17  N   UNL     1       6.481   3.976  16.283  0.00  0.00    +0.000 NA
ATOM     18  H   UNL     1       6.826   3.025  16.093  0.00  0.00    +0.000 HD
ATOM     19  H   UNL     1       5.845   4.249  15.500  0.00  0.00    +0.000 HD
ENDBRANCH  11  17
ENDBRANCH   7  11
TORSDOF 4
ENDMDL
MODEL 6
REMARK VINA RESULT:      -6.6      2.144      6.120
REMARK  Name = 
REMARK  4 active torsions:
REMARK  status: ('A' for Active; 'I' for Inactive)
REMARK    1  A    between atoms: C_2  and  C_3
REMARK    2  A    between atoms: C_9  and  C_11
REMARK    3  A    between atoms: C_11  and  N_12
REMARK    4  A    between atoms: C_11  and  C_13
REMARK                            x       y       z     vdW  Elec       q    Type
REMARK                         _______ _______ _______ _____ _____    ______ ____
ROOT
ATOM      1  C   UNL     1       7.287   4.747  17.337  0.00  0.00    +0.000 C 
ATOM      2  C   UNL     1       7.420   5.888  16.359  0.00  0.00    +0.000 C 
ATOM      3  C   UNL     1       6.769   5.344  15.116  0.00  0.00    +0.000 C 
ATOM      4  C   UNL     1       5.331   5.637  14.839  0.00  0.00    +0.000 C 
ATOM      5  C   UNL     1       5.691   4.317  15.457  0.00  0.00    +0.000 C 
ATOM      6  N   UNL     1       5.666   4.014  16.927  0.00  0.00    +0.000 N 
ATOM      7  C   UNL     1       4.334   3.319  17.351  0.00  0.00    +0.000 C 
ATOM      8  O   UNL     1       3.441   3.312  16.479  0.00  0.00    +0.000 OA
ENDROOT
BRANCH   1  10
ATOM      9  N   UNL     1       7.283   5.318  20.059  0.00  0.00    +0.000 NA
ATOM     10  C   UNL     1       7.286   5.060  18.825  0.00  0.00    +0.000 C 
ENDBRANCH   1  10
BRANCH   7  11
ATOM     11  C   UNL     1       3.895   2.335  18.799  0.00  0.00    +0.000 C 
BRANCH  11  12
ATOM     12  C   UNL     1       2.719   2.448  19.766  0.00  0.00    +0.000 C 
ATOM     13  C   UNL     1       2.968   2.753  21.249  0.00  0.00    +0.000 C 
ATOM     14  C   UNL     1       1.544   2.681  21.760  0.00  0.00    +0.000 C 
ATOM     15  C   UNL     1       0.727   3.356  20.652  0.00  0.00    +0.000 C 
ATOM     16  C   UNL     1       1.499   3.206  19.339  0.00  0.00    +0.000 C 
ENDBRANCH  11  12
BRANCH  11  17
ATOM     17  N   UNL     1       4.818   2.423  19.918  0.00  0.00    +0.000 NA
ATOM     18  H   UNL     1       4.547   1.990  20.812  0.00  0.00    +0.000 HD
ATOM     19  H   UNL     1       5.801   2.135  19.708  0.00  0.00    +0.000 HD
ENDBRANCH  11  17
ENDBRANCH   7  11
TORSDOF 4
ENDMDL
MODEL 7
REMARK VINA RESULT:      -6.6      2.243      3.566
REMARK  Name = 
REMARK  4 active torsions:
REMARK  status: ('A' for Active; 'I' for Inactive)
REMARK    1  A    between atoms: C_2  and  C_3
REMARK    2  A    between atoms: C_9  and  C_11
REMARK    3  A    between atoms: C_11  and  N_12
REMARK    4  A    between atoms: C_11  and  C_13
REMARK                            x       y       z     vdW  Elec       q    Type
REMARK                         _______ _______ _______ _____ _____    ______ ____
ROOT
ATOM      1  C   UNL     1       2.979   2.900  20.976  0.00  0.00    +0.000 C 
ATOM      2  C   UNL     1       1.641   2.205  20.912  0.00  0.00    +0.000 C 
ATOM      3  C   UNL     1       0.817   3.136  20.065  0.00  0.00    +0.000 C 
ATOM      4  C   UNL     1       0.701   2.897  18.594  0.00  0.00    +0.000 C 
ATOM      5  C   UNL     1       1.692   3.915  19.083  0.00  0.00    +0.000 C 
ATOM      6  N   UNL     1       3.151   3.656  19.323  0.00  0.00    +0.000 N 
ATOM      7  C   UNL     1       4.022   4.083  18.100  0.00  0.00    +0.000 C 
ATOM      8  O   UNL     1       3.380   4.368  17.068  0.00  0.00    +0.000 OA
ENDROOT
BRANCH   1  10
ATOM      9  N   UNL     1       5.255   1.371  21.439  0.00  0.00    +0.000 NA
ATOM     10  C   UNL     1       4.223   2.064  21.230  0.00  0.00    +0.000 C 
ENDBRANCH   1  10
BRANCH   7  11
ATOM     11  C   UNL     1       5.782   4.446  17.942  0.00  0.00    +0.000 C 
BRANCH  11  12
ATOM     12  C   UNL     1       6.552   5.754  18.100  0.00  0.00    +0.000 C 
ATOM     13  C   UNL     1       7.940   5.757  18.756  0.00  0.00    +0.000 C 
ATOM     14  C   UNL     1       8.219   7.245  18.741  0.00  0.00    +0.000 C 
ATOM     15  C   UNL     1       7.679   7.702  17.380  0.00  0.00    +0.000 C 
ATOM     16  C   UNL     1       6.584   6.721  16.955  0.00  0.00    +0.000 C 
ENDBRANCH  11  12
BRANCH  11  17
ATOM     17  N   UNL     1       6.338   4.286  16.608  0.00  0.00    +0.000 NA
ATOM     18  H   UNL     1       6.211   5.050  15.930  0.00  0.00    +0.000 HD
ATOM     19  H   UNL     1       7.340   3.991  16.576  0.00  0.00    +0.000 HD
ENDBRANCH  11  17
ENDBRANCH   7  11
TORSDOF 4
ENDMDL
MODEL 8
REMARK VINA RESULT:      -6.5      2.225      6.168
REMARK  Name = 
REMARK  4 active torsions:
REMARK  status: ('A' for Active; 'I' for Inactive)
REMARK    1  A    between atoms: C_2  and  C_3
REMARK    2  A    between atoms: C_9  and  C_11
REMARK    3  A    between atoms: C_11  and  N_12
REMARK    4  A    between atoms: C_11  and  C_13
REMARK                            x       y       z     vdW  Elec       q    Type
REMARK                         _______ _______ _______ _____ _____    ______ ____
ROOT
ATOM      1  C   UNL     1       7.377   4.647  17.243  0.00  0.00    +0.000 C 
ATOM      2  C   UNL     1       7.571   5.686  16.168  0.00  0.00    +0.000 C 
ATOM      3  C   UNL     1       6.926   5.053  14.965  0.00  0.00    +0.000 C 
ATOM      4  C   UNL     1       5.505   5.369  14.630  0.00  0.00    +0.000 C 
ATOM      5  C   UNL     1       5.804   4.099  15.374  0.00  0.00    +0.000 C 
ATOM      6  N   UNL     1       5.740   3.935  16.865  0.00  0.00    +0.000 N 
ATOM      7  C   UNL     1       4.374   3.329  17.320  0.00  0.00    +0.000 C 
ATOM      8  O   UNL     1       3.499   3.272  16.432  0.00  0.00    +0.000 OA
ENDROOT
BRANCH   1  10
ATOM      9  N   UNL     1       7.342   5.468  19.900  0.00  0.00    +0.000 NA
ATOM     10  C   UNL     1       7.359   5.095  18.696  0.00  0.00    +0.000 C 
ENDBRANCH   1  10
BRANCH   7  11
ATOM     11  C   UNL     1       3.872   2.499  18.842  0.00  0.00    +0.000 C 
BRANCH  11  12
ATOM     12  C   UNL     1       2.801   2.857  19.869  0.00  0.00    +0.000 C 
ATOM     13  C   UNL     1       1.315   2.696  19.522  0.00  0.00    +0.000 C 
ATOM     14  C   UNL     1       0.701   3.237  20.795  0.00  0.00    +0.000 C 
ATOM     15  C   UNL     1       1.607   2.680  21.900  0.00  0.00    +0.000 C 
ATOM     16  C   UNL     1       2.989   2.427  21.293  0.00  0.00    +0.000 C 
ENDBRANCH  11  12
BRANCH  11  17
ATOM     17  N   UNL     1       4.870   2.471  19.898  0.00  0.00    +0.000 NA
ATOM     18  H   UNL     1       4.547   2.441  20.875  0.00  0.00    +0.000 HD
ATOM     19  H   UNL     1       5.618   1.749  19.785  0.00  0.00    +0.000 HD
ENDBRANCH  11  17
ENDBRANCH   7  11
TORSDOF 4
ENDMDL
MODEL 9
REMARK VINA RESULT:      -6.5      2.362      3.636
REMARK  Name = 
REMARK  4 active torsions:
REMARK  status: ('A' for Active; 'I' for Inactive)
REMARK    1  A    between atoms: C_2  and  C_3
REMARK    2  A    between atoms: C_9  and  C_11
REMARK    3  A    between atoms: C_11  and  N_12
REMARK    4  A    between atoms: C_11  and  C_13
REMARK                            x       y       z     vdW  Elec       q    Type
REMARK                         _______ _______ _______ _____ _____    ______ ____
ROOT
ATOM      1  C   UNL     1       3.617   4.739  18.901  0.00  0.00    +0.000 C 
ATOM      2  C   UNL     1       2.277   5.371  19.184  0.00  0.00    +0.000 C 
ATOM      3  C   UNL     1       2.561   6.842  19.043  0.00  0.00    +0.000 C 
ATOM      4  C   UNL     1       2.302   7.528  17.741  0.00  0.00    +0.000 C 
ATOM      5  C   UNL     1       3.703   7.096  18.061  0.00  0.00    +0.000 C 
ATOM      6  N   UNL     1       4.336   5.811  17.610  0.00  0.00    +0.000 N 
ATOM      7  C   UNL     1       5.191   6.010  16.318  0.00  0.00    +0.000 C 
ATOM      8  O   UNL     1       5.053   7.117  15.759  0.00  0.00    +0.000 OA
ENDROOT
BRANCH   1  10
ATOM      9  N   UNL     1       3.688   2.125  17.955  0.00  0.00    +0.000 NA
ATOM     10  C   UNL     1       3.655   3.310  18.384  0.00  0.00    +0.000 C 
ENDBRANCH   1  10
BRANCH   7  11
ATOM     11  C   UNL     1       6.505   5.019  15.579  0.00  0.00    +0.000 C 
BRANCH  11  12
ATOM     12  C   UNL     1       6.610   4.363  14.205  0.00  0.00    +0.000 C 
ATOM     13  C   UNL     1       5.346   3.881  13.482  0.00  0.00    +0.000 C 
ATOM     14  C   UNL     1       5.980   3.264  12.254  0.00  0.00    +0.000 C 
ATOM     15  C   UNL     1       7.107   4.241  11.898  0.00  0.00    +0.000 C 
ATOM     16  C   UNL     1       7.522   4.967  13.180  0.00  0.00    +0.000 C 
ENDBRANCH  11  12
BRANCH  11  17
ATOM     17  N   UNL     1       6.747   3.731  16.207  0.00  0.00    +0.000 NA
ATOM     18  H   UNL     1       5.965   3.266  16.688  0.00  0.00    +0.000 HD
ATOM     19  H   UNL     1       7.218   3.022  15.600  0.00  0.00    +0.000 HD
ENDBRANCH  11  17
ENDBRANCH   7  11
TORSDOF 4
ENDMDL
