MODEL 1
REMARK VINA RESULT:      -8.1      0.000      0.000
REMARK  Name = 
REMARK  15 active torsions:
REMARK  status: ('A' for Active; 'I' for Inactive)
REMARK    1  A    between atoms: C_1  and  C_2
REMARK    2  A    between atoms: C_5  and  C_6
REMARK    3  A    between atoms: C_6  and  N_7
REMARK    4  A    between atoms: N_7  and  C_8
REMARK    5  A    between atoms: C_8  and  C_9
REMARK    6  A    between atoms: C_15  and  C_17
REMARK    7  A    between atoms: C_17  and  N_18
REMARK    8  A    between atoms: N_18  and  C_19
REMARK    9  A    between atoms: C_19  and  C_20
REMARK   10  A    between atoms: C_20  and  C_21
REMARK   11  A    between atoms: C_20  and  C_22
REMARK   12  A    between atoms: N_25  and  C_26
REMARK   13  A    between atoms: C_29  and  C_30
REMARK   14  A    between atoms: C_30  and  C_31
REMARK   15  A    between atoms: C_30  and  C_32
REMARK                            x       y       z     vdW  Elec       q    Type
REMARK                         _______ _______ _______ _____ _____    ______ ____
ROOT
ATOM      1  C   UNL     1       1.610   9.185  19.209  0.00  0.00    +0.000 C 
ENDROOT
BRANCH   1   2
ATOM      2  N   UNL     1       0.941  10.435  18.783  0.00  0.00    +0.000 N 
ATOM      3  C   UNL     1      -0.452  10.339  18.706  0.00  0.00    +0.000 C 
ATOM      4  O   UNL     1      -1.018   9.345  19.156  0.00  0.00    +0.000 OA
ATOM      5  N   UNL     1      -1.105  11.392  18.101  0.00  0.00    +0.000 N 
ATOM      6  H   UNL     1      -0.559  12.008  17.528  0.00  0.00    +0.000 HD
BRANCH   5   7
ATOM      7  C   UNL     1      -2.507  11.559  17.993  0.00  0.00    +0.000 A 
ATOM      8  C   UNL     1      -3.234  11.261  16.841  0.00  0.00    +0.000 A 
ATOM      9  C   UNL     1      -4.617  11.461  16.790  0.00  0.00    +0.000 A 
ATOM     10  C   UNL     1      -5.318  11.959  17.893  0.00  0.00    +0.000 A 
ATOM     11  C   UNL     1      -4.591  12.252  19.056  0.00  0.00    +0.000 A 
ATOM     12  C   UNL     1      -3.204  12.045  19.106  0.00  0.00    +0.000 A 
BRANCH  10  13
ATOM     13  C   UNL     1      -6.823  12.138  17.800  0.00  0.00    +0.000 C 
ATOM     14  C   UNL     1      -7.491  11.963  19.166  0.00  0.00    +0.000 C 
ATOM     15  C   UNL     1      -7.211  13.475  17.166  0.00  0.00    +0.000 C 
ENDBRANCH  10  13
ENDBRANCH   5   7
BRANCH   2  16
ATOM     16  C   UNL     1       1.773  11.555  18.292  0.00  0.00    +0.000 C 
BRANCH  16  17
ATOM     17  C   UNL     1       2.067  12.664  19.322  0.00  0.00    +0.000 C 
ATOM     18  C   UNL     1       1.654  14.045  18.826  0.00  0.00    +0.000 C 
ATOM     19  C   UNL     1       1.360  12.348  20.646  0.00  0.00    +0.000 C 
ENDBRANCH  16  17
ENDBRANCH   2  16
ENDBRANCH   1   2
BRANCH   1  21
ATOM     20  N   UNL     1       2.482   6.857  18.547  0.00  0.00    +0.000 N 
ATOM     21  C   UNL     1       2.317   8.203  18.214  0.00  0.00    +0.000 C 
ATOM     22  O   UNL     1       2.881   8.687  17.226  0.00  0.00    +0.000 OA
BRANCH  20  23
ATOM     23  C   UNL     1       3.298   5.957  17.716  0.00  0.00    +0.000 C 
BRANCH  23  28
ATOM     24  C   UNL     1       7.768   7.696  17.534  0.00  0.00    +0.000 C 
ATOM     25  C   UNL     1       6.791   6.653  17.913  0.00  0.00    +0.000 A 
ATOM     26  C   UNL     1       6.874   5.481  18.633  0.00  0.00    +0.000 A 
ATOM     27  C   UNL     1       5.561   4.936  18.667  0.00  0.00    +0.000 A 
ATOM     28  C   UNL     1       4.753   5.805  17.964  0.00  0.00    +0.000 A 
ATOM     29  O   UNL     1       5.510   6.855  17.506  0.00  0.00    +0.000 OA
ENDBRANCH  23  28
ENDBRANCH  20  23
BRANCH  20  30
ATOM     30  C   UNL     1       2.503   6.477  19.951  0.00  0.00    +0.000 C 
BRANCH  30  31
ATOM     31  C   UNL     1       2.015   5.093  20.295  0.00  0.00    +0.000 A 
ATOM     32  C   UNL     1       1.102   4.381  19.509  0.00  0.00    +0.000 A 
ATOM     33  C   UNL     1       0.841   3.034  19.773  0.00  0.00    +0.000 A 
ATOM     34  C   UNL     1       1.467   2.393  20.839  0.00  0.00    +0.000 A 
ATOM     35  C   UNL     1       2.321   3.107  21.674  0.00  0.00    +0.000 A 
ATOM     36  C   UNL     1       2.591   4.448  21.405  0.00  0.00    +0.000 A 
ENDBRANCH  30  31
ENDBRANCH  20  30
ENDBRANCH   1  21
TORSDOF 10
ENDMDL
MODEL 2
REMARK VINA RESULT:      -7.9      3.401      6.247
REMARK  Name = 
REMARK  15 active torsions:
REMARK  status: ('A' for Active; 'I' for Inactive)
REMARK    1  A    between atoms: C_1  and  C_2
REMARK    2  A    between atoms: C_5  and  C_6
REMARK    3  A    between atoms: C_6  and  N_7
REMARK    4  A    between atoms: N_7  and  C_8
REMARK    5  A    between atoms: C_8  and  C_9
REMARK    6  A    between atoms: C_15  and  C_17
REMARK    7  A    between atoms: C_17  and  N_18
REMARK    8  A    between atoms: N_18  and  C_19
REMARK    9  A    between atoms: C_19  and  C_20
REMARK   10  A    between atoms: C_20  and  C_21
REMARK   11  A    between atoms: C_20  and  C_22
REMARK   12  A    between atoms: N_25  and  C_26
REMARK   13  A    between atoms: C_29  and  C_30
REMARK   14  A    between atoms: C_30  and  C_31
REMARK   15  A    between atoms: C_30  and  C_32
REMARK                            x       y       z     vdW  Elec       q    Type
REMARK                         _______ _______ _______ _____ _____    ______ ____
ROOT
ATOM      1  C   UNL     1       3.202   6.366  17.974  0.00  0.00    +0.000 C 
ENDROOT
BRANCH   1   2
ATOM      2  N   UNL     1       2.562   6.488  19.304  0.00  0.00    +0.000 N 
ATOM      3  C   UNL     1       1.865   7.684  19.494  0.00  0.00    +0.000 C 
ATOM      4  O   UNL     1       1.671   8.433  18.538  0.00  0.00    +0.000 OA
ATOM      5  N   UNL     1       1.445   7.949  20.779  0.00  0.00    +0.000 N 
ATOM      6  H   UNL     1       1.879   7.436  21.525  0.00  0.00    +0.000 HD
BRANCH   5   7
ATOM      7  C   UNL     1       0.647   9.044  21.193  0.00  0.00    +0.000 A 
ATOM      8  C   UNL     1       0.035   9.931  20.310  0.00  0.00    +0.000 A 
ATOM      9  C   UNL     1      -0.730  11.004  20.781  0.00  0.00    +0.000 A 
ATOM     10  C   UNL     1      -0.914  11.215  22.151  0.00  0.00    +0.000 A 
ATOM     11  C   UNL     1      -0.308  10.319  23.042  0.00  0.00    +0.000 A 
ATOM     12  C   UNL     1       0.455   9.241  22.567  0.00  0.00    +0.000 A 
BRANCH  10  13
ATOM     13  C   UNL     1      -1.773  12.378  22.616  0.00  0.00    +0.000 C 
ATOM     14  C   UNL     1      -2.890  11.909  23.550  0.00  0.00    +0.000 C 
ATOM     15  C   UNL     1      -0.945  13.489  23.264  0.00  0.00    +0.000 C 
ENDBRANCH  10  13
ENDBRANCH   5   7
BRANCH   2  16
ATOM     16  C   UNL     1       2.878   5.481  20.340  0.00  0.00    +0.000 C 
BRANCH  16  17
ATOM     17  C   UNL     1       1.689   4.624  20.818  0.00  0.00    +0.000 C 
ATOM     18  C   UNL     1       0.889   4.040  19.660  0.00  0.00    +0.000 C 
ATOM     19  C   UNL     1       2.191   3.498  21.731  0.00  0.00    +0.000 C 
ENDBRANCH  16  17
ENDBRANCH   2  16
ENDBRANCH   1   2
BRANCH   1  21
ATOM     20  N   UNL     1       5.068   4.956  16.900  0.00  0.00    +0.000 N 
ATOM     21  C   UNL     1       3.768   5.019  17.410  0.00  0.00    +0.000 C 
ATOM     22  O   UNL     1       2.981   4.078  17.260  0.00  0.00    +0.000 OA
BRANCH  20  23
ATOM     23  C   UNL     1       5.559   3.757  16.202  0.00  0.00    +0.000 C 
BRANCH  23  28
ATOM     24  C   UNL     1       4.554   3.294  11.532  0.00  0.00    +0.000 C 
ATOM     25  C   UNL     1       5.468   3.651  12.637  0.00  0.00    +0.000 A 
ATOM     26  C   UNL     1       6.725   4.211  12.697  0.00  0.00    +0.000 A 
ATOM     27  C   UNL     1       7.051   4.324  14.076  0.00  0.00    +0.000 A 
ATOM     28  C   UNL     1       5.976   3.824  14.780  0.00  0.00    +0.000 A 
ATOM     29  O   UNL     1       5.009   3.414  13.895  0.00  0.00    +0.000 OA
ENDBRANCH  23  28
ENDBRANCH  20  23
BRANCH  20  30
ATOM     30  C   UNL     1       5.687   6.174  16.402  0.00  0.00    +0.000 C 
BRANCH  30  31
ATOM     31  C   UNL     1       6.804   6.763  17.225  0.00  0.00    +0.000 A 
ATOM     32  C   UNL     1       7.240   8.087  17.096  0.00  0.00    +0.000 A 
ATOM     33  C   UNL     1       8.139   8.629  18.017  0.00  0.00    +0.000 A 
ATOM     34  C   UNL     1       8.632   7.848  19.060  0.00  0.00    +0.000 A 
ATOM     35  C   UNL     1       8.265   6.509  19.159  0.00  0.00    +0.000 A 
ATOM     36  C   UNL     1       7.359   5.970  18.245  0.00  0.00    +0.000 A 
ENDBRANCH  30  31
ENDBRANCH  20  30
ENDBRANCH   1  21
TORSDOF 10
ENDMDL
MODEL 3
REMARK VINA RESULT:      -7.9      2.957      4.413
REMARK  Name = 
REMARK  15 active torsions:
REMARK  status: ('A' for Active; 'I' for Inactive)
REMARK    1  A    between atoms: C_1  and  C_2
REMARK    2  A    between atoms: C_5  and  C_6
REMARK    3  A    between atoms: C_6  and  N_7
REMARK    4  A    between atoms: N_7  and  C_8
REMARK    5  A    between atoms: C_8  and  C_9
REMARK    6  A    between atoms: C_15  and  C_17
REMARK    7  A    between atoms: C_17  and  N_18
REMARK    8  A    between atoms: N_18  and  C_19
REMARK    9  A    between atoms: C_19  and  C_20
REMARK   10  A    between atoms: C_20  and  C_21
REMARK   11  A    between atoms: C_20  and  C_22
REMARK   12  A    between atoms: N_25  and  C_26
REMARK   13  A    between atoms: C_29  and  C_30
REMARK   14  A    between atoms: C_30  and  C_31
REMARK   15  A    between atoms: C_30  and  C_32
REMARK                            x       y       z     vdW  Elec       q    Type
REMARK                         _______ _______ _______ _____ _____    ______ ____
ROOT
ATOM      1  C   UNL     1       0.630   9.098  19.254  0.00  0.00    +0.000 C 
ENDROOT
BRANCH   1   2
ATOM      2  N   UNL     1      -0.202  10.323  19.271  0.00  0.00    +0.000 N 
ATOM      3  C   UNL     1      -0.413  10.852  20.547  0.00  0.00    +0.000 C 
ATOM      4  O   UNL     1       0.225  10.410  21.501  0.00  0.00    +0.000 OA
ATOM      5  N   UNL     1      -1.358  11.850  20.647  0.00  0.00    +0.000 N 
ATOM      6  H   UNL     1      -2.011  11.948  19.891  0.00  0.00    +0.000 HD
BRANCH   5   7
ATOM      7  C   UNL     1      -1.674  12.595  21.810  0.00  0.00    +0.000 A 
ATOM      8  C   UNL     1      -2.733  12.286  22.660  0.00  0.00    +0.000 A 
ATOM      9  C   UNL     1      -3.004  13.069  23.788  0.00  0.00    +0.000 A 
ATOM     10  C   UNL     1      -2.217  14.181  24.103  0.00  0.00    +0.000 A 
ATOM     11  C   UNL     1      -1.144  14.489  23.254  0.00  0.00    +0.000 A 
ATOM     12  C   UNL     1      -0.872  13.699  22.127  0.00  0.00    +0.000 A 
BRANCH  10  13
ATOM     13  C   UNL     1      -2.533  14.988  25.349  0.00  0.00    +0.000 C 
ATOM     14  C   UNL     1      -1.261  15.545  25.992  0.00  0.00    +0.000 C 
ATOM     15  C   UNL     1      -3.545  16.102  25.079  0.00  0.00    +0.000 C 
ENDBRANCH  10  13
ENDBRANCH   5   7
BRANCH   2  16
ATOM     16  C   UNL     1      -0.881  10.738  18.024  0.00  0.00    +0.000 C 
BRANCH  16  17
ATOM     17  C   UNL     1      -2.239  10.063  17.751  0.00  0.00    +0.000 C 
ATOM     18  C   UNL     1      -3.418  10.952  18.125  0.00  0.00    +0.000 C 
ATOM     19  C   UNL     1      -2.334   9.658  16.275  0.00  0.00    +0.000 C 
ENDBRANCH  16  17
ENDBRANCH   2  16
ENDBRANCH   1   2
BRANCH   1  21
ATOM     20  N   UNL     1       2.586   7.711  18.320  0.00  0.00    +0.000 N 
ATOM     21  C   UNL     1       1.810   8.872  18.250  0.00  0.00    +0.000 C 
ATOM     22  O   UNL     1       2.147   9.818  17.529  0.00  0.00    +0.000 OA
BRANCH  20  23
ATOM     23  C   UNL     1       3.807   7.557  17.513  0.00  0.00    +0.000 C 
BRANCH  23  28
ATOM     24  C   UNL     1       5.850   3.703  15.510  0.00  0.00    +0.000 C 
ATOM     25  C   UNL     1       5.608   4.597  16.662  0.00  0.00    +0.000 A 
ATOM     26  C   UNL     1       6.111   4.665  17.942  0.00  0.00    +0.000 A 
ATOM     27  C   UNL     1       5.489   5.784  18.561  0.00  0.00    +0.000 A 
ATOM     28  C   UNL     1       4.640   6.334  17.623  0.00  0.00    +0.000 A 
ATOM     29  O   UNL     1       4.717   5.604  16.462  0.00  0.00    +0.000 OA
ENDBRANCH  23  28
ENDBRANCH  20  23
BRANCH  20  30
ATOM     30  C   UNL     1       2.669   6.997  19.585  0.00  0.00    +0.000 C 
BRANCH  30  31
ATOM     31  C   UNL     1       2.146   5.583  19.610  0.00  0.00    +0.000 A 
ATOM     32  C   UNL     1       1.858   4.890  20.791  0.00  0.00    +0.000 A 
ATOM     33  C   UNL     1       1.194   3.662  20.747  0.00  0.00    +0.000 A 
ATOM     34  C   UNL     1       0.837   3.100  19.522  0.00  0.00    +0.000 A 
ATOM     35  C   UNL     1       1.183   3.742  18.337  0.00  0.00    +0.000 A 
ATOM     36  C   UNL     1       1.836   4.974  18.381  0.00  0.00    +0.000 A 
ENDBRANCH  30  31
ENDBRANCH  20  30
ENDBRANCH   1  21
TORSDOF 10
ENDMDL
MODEL 4
REMARK VINA RESULT:      -7.8      4.526      9.579
REMARK  Name = 
REMARK  15 active torsions:
REMARK  status: ('A' for Active; 'I' for Inactive)
REMARK    1  A    between atoms: C_1  and  C_2
REMARK    2  A    between atoms: C_5  and  C_6
REMARK    3  A    between atoms: C_6  and  N_7
REMARK    4  A    between atoms: N_7  and  C_8
REMARK    5  A    between atoms: C_8  and  C_9
REMARK    6  A    between atoms: C_15  and  C_17
REMARK    7  A    between atoms: C_17  and  N_18
REMARK    8  A    between atoms: N_18  and  C_19
REMARK    9  A    between atoms: C_19  and  C_20
REMARK   10  A    between atoms: C_20  and  C_21
REMARK   11  A    between atoms: C_20  and  C_22
REMARK   12  A    between atoms: N_25  and  C_26
REMARK   13  A    between atoms: C_29  and  C_30
REMARK   14  A    between atoms: C_30  and  C_31
REMARK   15  A    between atoms: C_30  and  C_32
REMARK                            x       y       z     vdW  Elec       q    Type
REMARK                         _______ _______ _______ _____ _____    ______ ____
ROOT
ATOM      1  C   UNL     1       6.149   4.651  17.487  0.00  0.00    +0.000 C 
ENDROOT
BRANCH   1   2
ATOM      2  N   UNL     1       6.731   5.844  16.832  0.00  0.00    +0.000 N 
ATOM      3  C   UNL     1       7.238   6.794  17.723  0.00  0.00    +0.000 C 
ATOM      4  O   UNL     1       7.341   6.514  18.916  0.00  0.00    +0.000 OA
ATOM      5  N   UNL     1       7.582   8.015  17.185  0.00  0.00    +0.000 N 
ATOM      6  H   UNL     1       7.211   8.245  16.281  0.00  0.00    +0.000 HD
BRANCH   5   7
ATOM      7  C   UNL     1       8.198   9.092  17.870  0.00  0.00    +0.000 A 
ATOM      8  C   UNL     1       8.950   8.938  19.033  0.00  0.00    +0.000 A 
ATOM      9  C   UNL     1       9.522  10.043  19.672  0.00  0.00    +0.000 A 
ATOM     10  C   UNL     1       9.366  11.336  19.162  0.00  0.00    +0.000 A 
ATOM     11  C   UNL     1       8.618  11.493  17.987  0.00  0.00    +0.000 A 
ATOM     12  C   UNL     1       8.049  10.382  17.345  0.00  0.00    +0.000 A 
BRANCH  10  13
ATOM     13  C   UNL     1      10.025  12.502  19.876  0.00  0.00    +0.000 C 
ATOM     14  C   UNL     1      10.731  13.434  18.889  0.00  0.00    +0.000 C 
ATOM     15  C   UNL     1       9.041  13.277  20.755  0.00  0.00    +0.000 C 
ENDBRANCH  10  13
ENDBRANCH   5   7
BRANCH   2  16
ATOM     16  C   UNL     1       6.543   6.019  15.375  0.00  0.00    +0.000 C 
BRANCH  16  17
ATOM     17  C   UNL     1       7.055   4.860  14.496  0.00  0.00    +0.000 C 
ATOM     18  C   UNL     1       5.920   4.028  13.910  0.00  0.00    +0.000 C 
ATOM     19  C   UNL     1       7.939   5.410  13.371  0.00  0.00    +0.000 C 
ENDBRANCH  16  17
ENDBRANCH   2  16
ENDBRANCH   1   2
BRANCH   1  21
ATOM     20  N   UNL     1       3.606   5.010  17.650  0.00  0.00    +0.000 N 
ATOM     21  C   UNL     1       4.669   4.186  17.271  0.00  0.00    +0.000 C 
ATOM     22  O   UNL     1       4.474   3.012  16.936  0.00  0.00    +0.000 OA
BRANCH  20  23
ATOM     23  C   UNL     1       2.216   4.527  17.626  0.00  0.00    +0.000 C 
BRANCH  23  28
ATOM     24  C   UNL     1       2.079   2.841  22.117  0.00  0.00    +0.000 C 
ATOM     25  C   UNL     1       1.659   2.806  20.701  0.00  0.00    +0.000 A 
ATOM     26  C   UNL     1       0.737   2.066  19.994  0.00  0.00    +0.000 A 
ATOM     27  C   UNL     1       0.789   2.532  18.651  0.00  0.00    +0.000 A 
ATOM     28  C   UNL     1       1.743   3.527  18.615  0.00  0.00    +0.000 A 
ATOM     29  O   UNL     1       2.271   3.692  19.872  0.00  0.00    +0.000 OA
ENDBRANCH  23  28
ENDBRANCH  20  23
BRANCH  20  30
ATOM     30  C   UNL     1       3.824   6.006  18.687  0.00  0.00    +0.000 C 
BRANCH  30  31
ATOM     31  C   UNL     1       2.830   7.136  18.773  0.00  0.00    +0.000 A 
ATOM     32  C   UNL     1       2.073   7.410  19.918  0.00  0.00    +0.000 A 
ATOM     33  C   UNL     1       1.319   8.582  20.004  0.00  0.00    +0.000 A 
ATOM     34  C   UNL     1       1.290   9.479  18.938  0.00  0.00    +0.000 A 
ATOM     35  C   UNL     1       1.979   9.185  17.765  0.00  0.00    +0.000 A 
ATOM     36  C   UNL     1       2.741   8.020  17.683  0.00  0.00    +0.000 A 
ENDBRANCH  30  31
ENDBRANCH  20  30
ENDBRANCH   1  21
TORSDOF 10
ENDMDL
MODEL 5
REMARK VINA RESULT:      -7.8      2.898      4.589
REMARK  Name = 
REMARK  15 active torsions:
REMARK  status: ('A' for Active; 'I' for Inactive)
REMARK    1  A    between atoms: C_1  and  C_2
REMARK    2  A    between atoms: C_5  and  C_6
REMARK    3  A    between atoms: C_6  and  N_7
REMARK    4  A    between atoms: N_7  and  C_8
REMARK    5  A    between atoms: C_8  and  C_9
REMARK    6  A    between atoms: C_15  and  C_17
REMARK    7  A    between atoms: C_17  and  N_18
REMARK    8  A    between atoms: N_18  and  C_19
REMARK    9  A    between atoms: C_19  and  C_20
REMARK   10  A    between atoms: C_20  and  C_21
REMARK   11  A    between atoms: C_20  and  C_22
REMARK   12  A    between atoms: N_25  and  C_26
REMARK   13  A    between atoms: C_29  and  C_30
REMARK   14  A    between atoms: C_30  and  C_31
REMARK   15  A    between atoms: C_30  and  C_32
REMARK                            x       y       z     vdW  Elec       q    Type
REMARK                         _______ _______ _______ _____ _____    ______ ____
ROOT
ATOM      1  C   UNL     1       0.947   8.913  19.714  0.00  0.00    +0.000 C 
ENDROOT
BRANCH   1   2
ATOM      2  N   UNL     1      -0.095   9.961  19.798  0.00  0.00    +0.000 N 
ATOM      3  C   UNL     1       0.144  10.927  20.779  0.00  0.00    +0.000 C 
ATOM      4  O   UNL     1       1.235  10.959  21.348  0.00  0.00    +0.000 OA
ATOM      5  N   UNL     1      -0.895  11.789  21.055  0.00  0.00    +0.000 N 
ATOM      6  H   UNL     1      -1.814  11.519  20.756  0.00  0.00    +0.000 HD
BRANCH   5   7
ATOM      7  C   UNL     1      -0.855  12.898  21.936  0.00  0.00    +0.000 A 
ATOM      8  C   UNL     1      -0.060  14.023  21.726  0.00  0.00    +0.000 A 
ATOM      9  C   UNL     1      -0.053  15.082  22.640  0.00  0.00    +0.000 A 
ATOM     10  C   UNL     1      -0.849  15.051  23.789  0.00  0.00    +0.000 A 
ATOM     11  C   UNL     1      -1.657  13.925  23.999  0.00  0.00    +0.000 A 
ATOM     12  C   UNL     1      -1.666  12.866  23.078  0.00  0.00    +0.000 A 
BRANCH  10  13
ATOM     13  C   UNL     1      -0.827  16.233  24.742  0.00  0.00    +0.000 C 
ATOM     14  C   UNL     1      -1.560  17.439  24.151  0.00  0.00    +0.000 C 
ATOM     15  C   UNL     1      -1.379  15.877  26.123  0.00  0.00    +0.000 C 
ENDBRANCH  10  13
ENDBRANCH   5   7
BRANCH   2  16
ATOM     16  C   UNL     1      -1.343   9.786  19.024  0.00  0.00    +0.000 C 
BRANCH  16  17
ATOM     17  C   UNL     1      -1.382  10.498  17.657  0.00  0.00    +0.000 C 
ATOM     18  C   UNL     1      -2.218   9.743  16.631  0.00  0.00    +0.000 C 
ATOM     19  C   UNL     1      -1.921  11.924  17.827  0.00  0.00    +0.000 C 
ENDBRANCH  16  17
ENDBRANCH   2  16
ENDBRANCH   1   2
BRANCH   1  21
ATOM     20  N   UNL     1       2.673   7.615  18.315  0.00  0.00    +0.000 N 
ATOM     21  C   UNL     1       1.960   8.798  18.525  0.00  0.00    +0.000 C 
ATOM     22  O   UNL     1       2.244   9.829  17.905  0.00  0.00    +0.000 OA
BRANCH  20  23
ATOM     23  C   UNL     1       3.757   7.540  17.322  0.00  0.00    +0.000 C 
BRANCH  23  28
ATOM     24  C   UNL     1       5.841   3.745  15.252  0.00  0.00    +0.000 C 
ATOM     25  C   UNL     1       5.716   4.720  16.356  0.00  0.00    +0.000 A 
ATOM     26  C   UNL     1       6.444   4.970  17.498  0.00  0.00    +0.000 A 
ATOM     27  C   UNL     1       5.817   6.073  18.141  0.00  0.00    +0.000 A 
ATOM     28  C   UNL     1       4.742   6.431  17.356  0.00  0.00    +0.000 A 
ATOM     29  O   UNL     1       4.685   5.600  16.263  0.00  0.00    +0.000 OA
ENDBRANCH  23  28
ENDBRANCH  20  23
BRANCH  20  30
ATOM     30  C   UNL     1       2.893   6.717  19.438  0.00  0.00    +0.000 C 
BRANCH  30  31
ATOM     31  C   UNL     1       2.121   5.423  19.445  0.00  0.00    +0.000 A 
ATOM     32  C   UNL     1       1.914   4.645  18.300  0.00  0.00    +0.000 A 
ATOM     33  C   UNL     1       1.364   3.365  18.405  0.00  0.00    +0.000 A 
ATOM     34  C   UNL     1       0.990   2.861  19.649  0.00  0.00    +0.000 A 
ATOM     35  C   UNL     1       1.121   3.652  20.786  0.00  0.00    +0.000 A 
ATOM     36  C   UNL     1       1.680   4.925  20.684  0.00  0.00    +0.000 A 
ENDBRANCH  30  31
ENDBRANCH  20  30
ENDBRANCH   1  21
TORSDOF 10
ENDMDL
MODEL 6
REMARK VINA RESULT:      -7.7      0.630      1.206
REMARK  Name = 
REMARK  15 active torsions:
REMARK  status: ('A' for Active; 'I' for Inactive)
REMARK    1  A    between atoms: C_1  and  C_2
REMARK    2  A    between atoms: C_5  and  C_6
REMARK    3  A    between atoms: C_6  and  N_7
REMARK    4  A    between atoms: N_7  and  C_8
REMARK    5  A    between atoms: C_8  and  C_9
REMARK    6  A    between atoms: C_15  and  C_17
REMARK    7  A    between atoms: C_17  and  N_18
REMARK    8  A    between atoms: N_18  and  C_19
REMARK    9  A    between atoms: C_19  and  C_20
REMARK   10  A    between atoms: C_20  and  C_21
REMARK   11  A    between atoms: C_20  and  C_22
REMARK   12  A    between atoms: N_25  and  C_26
REMARK   13  A    between atoms: C_29  and  C_30
REMARK   14  A    between atoms: C_30  and  C_31
REMARK   15  A    between atoms: C_30  and  C_32
REMARK                            x       y       z     vdW  Elec       q    Type
REMARK                         _______ _______ _______ _____ _____    ______ ____
ROOT
ATOM      1  C   UNL     1       1.557   9.031  19.288  0.00  0.00    +0.000 C 
ENDROOT
BRANCH   1   2
ATOM      2  N   UNL     1       0.944  10.346  18.991  0.00  0.00    +0.000 N 
ATOM      3  C   UNL     1      -0.446  10.371  19.123  0.00  0.00    +0.000 C 
ATOM      4  O   UNL     1      -1.026   9.414  19.635  0.00  0.00    +0.000 OA
ATOM      5  N   UNL     1      -1.087  11.493  18.644  0.00  0.00    +0.000 N 
ATOM      6  H   UNL     1      -0.580  12.080  18.006  0.00  0.00    +0.000 HD
BRANCH   5   7
ATOM      7  C   UNL     1      -2.469  11.782  18.751  0.00  0.00    +0.000 A 
ATOM      8  C   UNL     1      -3.042  12.418  19.850  0.00  0.00    +0.000 A 
ATOM      9  C   UNL     1      -4.419  12.664  19.904  0.00  0.00    +0.000 A 
ATOM     10  C   UNL     1      -5.263  12.287  18.855  0.00  0.00    +0.000 A 
ATOM     11  C   UNL     1      -4.688  11.655  17.744  0.00  0.00    +0.000 A 
ATOM     12  C   UNL     1      -3.307  11.414  17.689  0.00  0.00    +0.000 A 
BRANCH  10  13
ATOM     13  C   UNL     1      -6.747  12.595  18.946  0.00  0.00    +0.000 C 
ATOM     14  C   UNL     1      -7.486  11.536  19.768  0.00  0.00    +0.000 C 
ATOM     15  C   UNL     1      -7.018  13.999  19.488  0.00  0.00    +0.000 C 
ENDBRANCH  10  13
ENDBRANCH   5   7
BRANCH   2  16
ATOM     16  C   UNL     1       1.790  11.407  18.402  0.00  0.00    +0.000 C 
BRANCH  16  17
ATOM     17  C   UNL     1       1.613  12.812  19.011  0.00  0.00    +0.000 C 
ATOM     18  C   UNL     1       2.130  12.896  20.442  0.00  0.00    +0.000 C 
ATOM     19  C   UNL     1       2.319  13.854  18.135  0.00  0.00    +0.000 C 
ENDBRANCH  16  17
ENDBRANCH   2  16
ENDBRANCH   1   2
BRANCH   1  21
ATOM     20  N   UNL     1       2.561   6.809  18.467  0.00  0.00    +0.000 N 
ATOM     21  C   UNL     1       2.276   8.152  18.209  0.00  0.00    +0.000 C 
ATOM     22  O   UNL     1       2.744   8.721  17.217  0.00  0.00    +0.000 OA
BRANCH  20  23
ATOM     23  C   UNL     1       3.392   6.012  17.549  0.00  0.00    +0.000 C 
BRANCH  23  28
ATOM     24  C   UNL     1       7.824   7.852  17.524  0.00  0.00    +0.000 C 
ATOM     25  C   UNL     1       6.871   6.758  17.805  0.00  0.00    +0.000 A 
ATOM     26  C   UNL     1       6.980   5.526  18.409  0.00  0.00    +0.000 A 
ATOM     27  C   UNL     1       5.679   4.952  18.394  0.00  0.00    +0.000 A 
ATOM     28  C   UNL     1       4.850   5.867  17.779  0.00  0.00    +0.000 A 
ATOM     29  O   UNL     1       5.585   6.972  17.422  0.00  0.00    +0.000 OA
ENDBRANCH  23  28
ENDBRANCH  20  23
BRANCH  20  30
ATOM     30  C   UNL     1       2.691   6.369  19.847  0.00  0.00    +0.000 C 
BRANCH  30  31
ATOM     31  C   UNL     1       2.091   5.033  20.202  0.00  0.00    +0.000 A 
ATOM     32  C   UNL     1       1.229   4.327  19.355  0.00  0.00    +0.000 A 
ATOM     33  C   UNL     1       0.865   3.012  19.653  0.00  0.00    +0.000 A 
ATOM     34  C   UNL     1       1.335   2.398  20.812  0.00  0.00    +0.000 A 
ATOM     35  C   UNL     1       2.133   3.112  21.701  0.00  0.00    +0.000 A 
ATOM     36  C   UNL     1       2.506   4.421  21.399  0.00  0.00    +0.000 A 
ENDBRANCH  30  31
ENDBRANCH  20  30
ENDBRANCH   1  21
TORSDOF 10
ENDMDL
MODEL 7
REMARK VINA RESULT:      -7.7      3.853     10.387
REMARK  Name = 
REMARK  15 active torsions:
REMARK  status: ('A' for Active; 'I' for Inactive)
REMARK    1  A    between atoms: C_1  and  C_2
REMARK    2  A    between atoms: C_5  and  C_6
REMARK    3  A    between atoms: C_6  and  N_7
REMARK    4  A    between atoms: N_7  and  C_8
REMARK    5  A    between atoms: C_8  and  C_9
REMARK    6  A    between atoms: C_15  and  C_17
REMARK    7  A    between atoms: C_17  and  N_18
REMARK    8  A    between atoms: N_18  and  C_19
REMARK    9  A    between atoms: C_19  and  C_20
REMARK   10  A    between atoms: C_20  and  C_21
REMARK   11  A    between atoms: C_20  and  C_22
REMARK   12  A    between atoms: N_25  and  C_26
REMARK   13  A    between atoms: C_29  and  C_30
REMARK   14  A    between atoms: C_30  and  C_31
REMARK   15  A    between atoms: C_30  and  C_32
REMARK                            x       y       z     vdW  Elec       q    Type
REMARK                         _______ _______ _______ _____ _____    ______ ____
ROOT
ATOM      1  C   UNL     1      -0.591  10.888  21.389  0.00  0.00    +0.000 C 
ENDROOT
BRANCH   1   2
ATOM      2  N   UNL     1      -0.208  10.327  20.074  0.00  0.00    +0.000 N 
ATOM      3  C   UNL     1       0.778   9.338  20.141  0.00  0.00    +0.000 C 
ATOM      4  O   UNL     1       1.108   8.882  21.235  0.00  0.00    +0.000 OA
ATOM      5  N   UNL     1       1.333   8.945  18.942  0.00  0.00    +0.000 N 
ATOM      6  H   UNL     1       1.210   9.552  18.153  0.00  0.00    +0.000 HD
BRANCH   5   7
ATOM      7  C   UNL     1       2.274   7.903  18.753  0.00  0.00    +0.000 A 
ATOM      8  C   UNL     1       2.408   6.818  19.617  0.00  0.00    +0.000 A 
ATOM      9  C   UNL     1       3.367   5.826  19.385  0.00  0.00    +0.000 A 
ATOM     10  C   UNL     1       4.215   5.886  18.275  0.00  0.00    +0.000 A 
ATOM     11  C   UNL     1       4.077   6.971  17.399  0.00  0.00    +0.000 A 
ATOM     12  C   UNL     1       3.111   7.962  17.632  0.00  0.00    +0.000 A 
BRANCH  10  13
ATOM     13  C   UNL     1       5.225   4.774  18.050  0.00  0.00    +0.000 C 
ATOM     14  C   UNL     1       5.294   4.373  16.575  0.00  0.00    +0.000 C 
ATOM     15  C   UNL     1       6.612   5.131  18.587  0.00  0.00    +0.000 C 
ENDBRANCH  10  13
ENDBRANCH   5   7
BRANCH   2  16
ATOM     16  C   UNL     1      -0.718  10.977  18.847  0.00  0.00    +0.000 C 
BRANCH  16  17
ATOM     17  C   UNL     1      -2.079  10.461  18.339  0.00  0.00    +0.000 C 
ATOM     18  C   UNL     1      -3.146  11.549  18.326  0.00  0.00    +0.000 C 
ATOM     19  C   UNL     1      -1.920   9.864  16.935  0.00  0.00    +0.000 C 
ENDBRANCH  16  17
ENDBRANCH   2  16
ENDBRANCH   1   2
BRANCH   1  21
ATOM     20  N   UNL     1      -1.380  13.224  22.128  0.00  0.00    +0.000 N 
ATOM     21  C   UNL     1      -0.319  12.374  21.805  0.00  0.00    +0.000 C 
ATOM     22  O   UNL     1       0.826  12.816  21.658  0.00  0.00    +0.000 OA
BRANCH  20  23
ATOM     23  C   UNL     1      -1.169  14.664  22.344  0.00  0.00    +0.000 C 
BRANCH  23  28
ATOM     24  C   UNL     1      -4.383  17.064  24.979  0.00  0.00    +0.000 C 
ATOM     25  C   UNL     1      -3.089  16.367  24.822  0.00  0.00    +0.000 A 
ATOM     26  C   UNL     1      -2.082  16.011  25.691  0.00  0.00    +0.000 A 
ATOM     27  C   UNL     1      -1.104  15.327  24.918  0.00  0.00    +0.000 A 
ATOM     28  C   UNL     1      -1.570  15.307  23.620  0.00  0.00    +0.000 A 
ATOM     29  O   UNL     1      -2.786  15.943  23.566  0.00  0.00    +0.000 OA
ENDBRANCH  23  28
ENDBRANCH  20  23
BRANCH  20  30
ATOM     30  C   UNL     1      -2.700  12.937  21.588  0.00  0.00    +0.000 C 
BRANCH  30  31
ATOM     31  C   UNL     1      -3.856  12.957  22.556  0.00  0.00    +0.000 A 
ATOM     32  C   UNL     1      -5.151  13.351  22.199  0.00  0.00    +0.000 A 
ATOM     33  C   UNL     1      -6.217  13.161  23.082  0.00  0.00    +0.000 A 
ATOM     34  C   UNL     1      -5.996  12.602  24.340  0.00  0.00    +0.000 A 
ATOM     35  C   UNL     1      -4.703  12.274  24.736  0.00  0.00    +0.000 A 
ATOM     36  C   UNL     1      -3.641  12.453  23.851  0.00  0.00    +0.000 A 
ENDBRANCH  30  31
ENDBRANCH  20  30
ENDBRANCH   1  21
TORSDOF 10
ENDMDL
MODEL 8
REMARK VINA RESULT:      -7.6      2.758      9.981
REMARK  Name = 
REMARK  15 active torsions:
REMARK  status: ('A' for Active; 'I' for Inactive)
REMARK    1  A    between atoms: C_1  and  C_2
REMARK    2  A    between atoms: C_5  and  C_6
REMARK    3  A    between atoms: C_6  and  N_7
REMARK    4  A    between atoms: N_7  and  C_8
REMARK    5  A    between atoms: C_8  and  C_9
REMARK    6  A    between atoms: C_15  and  C_17
REMARK    7  A    between atoms: C_17  and  N_18
REMARK    8  A    between atoms: N_18  and  C_19
REMARK    9  A    between atoms: C_19  and  C_20
REMARK   10  A    between atoms: C_20  and  C_21
REMARK   11  A    between atoms: C_20  and  C_22
REMARK   12  A    between atoms: N_25  and  C_26
REMARK   13  A    between atoms: C_29  and  C_30
REMARK   14  A    between atoms: C_30  and  C_31
REMARK   15  A    between atoms: C_30  and  C_32
REMARK                            x       y       z     vdW  Elec       q    Type
REMARK                         _______ _______ _______ _____ _____    ______ ____
ROOT
ATOM      1  C   UNL     1       1.299   7.299  19.623  0.00  0.00    +0.000 C 
ENDROOT
BRANCH   1   2
ATOM      2  N   UNL     1       2.385   6.296  19.554  0.00  0.00    +0.000 N 
ATOM      3  C   UNL     1       3.078   6.287  18.340  0.00  0.00    +0.000 C 
ATOM      4  O   UNL     1       2.885   7.187  17.524  0.00  0.00    +0.000 OA
ATOM      5  N   UNL     1       3.940   5.232  18.136  0.00  0.00    +0.000 N 
ATOM      6  H   UNL     1       3.826   4.420  18.715  0.00  0.00    +0.000 HD
BRANCH   5   7
ATOM      7  C   UNL     1       4.811   5.061  17.032  0.00  0.00    +0.000 A 
ATOM      8  C   UNL     1       6.026   5.730  16.896  0.00  0.00    +0.000 A 
ATOM      9  C   UNL     1       6.838   5.530  15.773  0.00  0.00    +0.000 A 
ATOM     10  C   UNL     1       6.462   4.646  14.757  0.00  0.00    +0.000 A 
ATOM     11  C   UNL     1       5.245   3.964  14.896  0.00  0.00    +0.000 A 
ATOM     12  C   UNL     1       4.435   4.164  16.024  0.00  0.00    +0.000 A 
BRANCH  10  13
ATOM     13  C   UNL     1       7.385   4.442  13.569  0.00  0.00    +0.000 C 
ATOM     14  C   UNL     1       6.660   3.752  12.411  0.00  0.00    +0.000 C 
ATOM     15  C   UNL     1       8.038   5.746  13.109  0.00  0.00    +0.000 C 
ENDBRANCH  10  13
ENDBRANCH   5   7
BRANCH   2  16
ATOM     16  C   UNL     1       2.499   5.296  20.638  0.00  0.00    +0.000 C 
BRANCH  16  17
ATOM     17  C   UNL     1       1.376   4.241  20.689  0.00  0.00    +0.000 C 
ATOM     18  C   UNL     1       1.087   3.632  19.322  0.00  0.00    +0.000 C 
ATOM     19  C   UNL     1       1.740   3.138  21.691  0.00  0.00    +0.000 C 
ENDBRANCH  16  17
ENDBRANCH   2  16
ENDBRANCH   1   2
BRANCH   1  21
ATOM     20  N   UNL     1       0.723   9.741  20.195  0.00  0.00    +0.000 N 
ATOM     21  C   UNL     1       1.333   8.543  20.575  0.00  0.00    +0.000 C 
ATOM     22  O   UNL     1       2.065   8.491  21.570  0.00  0.00    +0.000 OA
BRANCH  20  23
ATOM     23  C   UNL     1       0.895  10.972  20.984  0.00  0.00    +0.000 C 
BRANCH  23  28
ATOM     24  C   UNL     1      -1.378  14.384  23.479  0.00  0.00    +0.000 C 
ATOM     25  C   UNL     1      -1.181  12.973  23.085  0.00  0.00    +0.000 A 
ATOM     26  C   UNL     1      -1.854  11.802  23.352  0.00  0.00    +0.000 A 
ATOM     27  C   UNL     1      -1.171  10.774  22.646  0.00  0.00    +0.000 A 
ATOM     28  C   UNL     1      -0.119  11.377  21.989  0.00  0.00    +0.000 A 
ATOM     29  O   UNL     1      -0.130  12.723  22.260  0.00  0.00    +0.000 OA
ENDBRANCH  23  28
ENDBRANCH  20  23
BRANCH  20  30
ATOM     30  C   UNL     1       0.538  10.018  18.779  0.00  0.00    +0.000 C 
BRANCH  30  31
ATOM     31  C   UNL     1      -0.869  10.288  18.311  0.00  0.00    +0.000 A 
ATOM     32  C   UNL     1      -1.721  11.213  18.926  0.00  0.00    +0.000 A 
ATOM     33  C   UNL     1      -2.936  11.561  18.331  0.00  0.00    +0.000 A 
ATOM     34  C   UNL     1      -3.325  10.970  17.131  0.00  0.00    +0.000 A 
ATOM     35  C   UNL     1      -2.523   9.994  16.545  0.00  0.00    +0.000 A 
ATOM     36  C   UNL     1      -1.305   9.655  17.133  0.00  0.00    +0.000 A 
ENDBRANCH  30  31
ENDBRANCH  20  30
ENDBRANCH   1  21
TORSDOF 10
ENDMDL
MODEL 9
REMARK VINA RESULT:      -7.6      3.473      6.436
REMARK  Name = 
REMARK  15 active torsions:
REMARK  status: ('A' for Active; 'I' for Inactive)
REMARK    1  A    between atoms: C_1  and  C_2
REMARK    2  A    between atoms: C_5  and  C_6
REMARK    3  A    between atoms: C_6  and  N_7
REMARK    4  A    between atoms: N_7  and  C_8
REMARK    5  A    between atoms: C_8  and  C_9
REMARK    6  A    between atoms: C_15  and  C_17
REMARK    7  A    between atoms: C_17  and  N_18
REMARK    8  A    between atoms: N_18  and  C_19
REMARK    9  A    between atoms: C_19  and  C_20
REMARK   10  A    between atoms: C_20  and  C_21
REMARK   11  A    between atoms: C_20  and  C_22
REMARK   12  A    between atoms: N_25  and  C_26
REMARK   13  A    between atoms: C_29  and  C_30
REMARK   14  A    between atoms: C_30  and  C_31
REMARK   15  A    between atoms: C_30  and  C_32
REMARK                            x       y       z     vdW  Elec       q    Type
REMARK                         _______ _______ _______ _____ _____    ______ ____
ROOT
ATOM      1  C   UNL     1       4.205   5.124  18.721  0.00  0.00    +0.000 C 
ENDROOT
BRANCH   1   2
ATOM      2  N   UNL     1       3.149   5.391  19.724  0.00  0.00    +0.000 N 
ATOM      3  C   UNL     1       2.654   6.697  19.697  0.00  0.00    +0.000 C 
ATOM      4  O   UNL     1       2.965   7.446  18.772  0.00  0.00    +0.000 OA
ATOM      5  N   UNL     1       1.841   7.064  20.747  0.00  0.00    +0.000 N 
ATOM      6  H   UNL     1       1.869   6.499  21.576  0.00  0.00    +0.000 HD
BRANCH   5   7
ATOM      7  C   UNL     1       1.153   8.295  20.886  0.00  0.00    +0.000 A 
ATOM      8  C   UNL     1       0.992   9.212  19.849  0.00  0.00    +0.000 A 
ATOM      9  C   UNL     1       0.314  10.419  20.052  0.00  0.00    +0.000 A 
ATOM     10  C   UNL     1      -0.232  10.741  21.298  0.00  0.00    +0.000 A 
ATOM     11  C   UNL     1      -0.081   9.817  22.341  0.00  0.00    +0.000 A 
ATOM     12  C   UNL     1       0.596   8.605  22.134  0.00  0.00    +0.000 A 
BRANCH  10  13
ATOM     13  C   UNL     1      -0.981  12.051  21.467  0.00  0.00    +0.000 C 
ATOM     14  C   UNL     1      -1.455  12.241  22.909  0.00  0.00    +0.000 C 
ATOM     15  C   UNL     1      -0.162  13.253  20.995  0.00  0.00    +0.000 C 
ENDBRANCH  10  13
ENDBRANCH   5   7
BRANCH   2  16
ATOM     16  C   UNL     1       2.875   4.368  20.757  0.00  0.00    +0.000 C 
BRANCH  16  17
ATOM     17  C   UNL     1       1.476   3.724  20.699  0.00  0.00    +0.000 C 
ATOM     18  C   UNL     1       1.136   3.192  19.312  0.00  0.00    +0.000 C 
ATOM     19  C   UNL     1       1.376   2.597  21.735  0.00  0.00    +0.000 C 
ENDBRANCH  16  17
ENDBRANCH   2  16
ENDBRANCH   1   2
BRANCH   1  21
ATOM     20  N   UNL     1       6.141   6.624  17.930  0.00  0.00    +0.000 N 
ATOM     21  C   UNL     1       5.667   5.675  18.840  0.00  0.00    +0.000 C 
ATOM     22  O   UNL     1       6.433   5.118  19.634  0.00  0.00    +0.000 OA
BRANCH  20  23
ATOM     23  C   UNL     1       7.557   7.022  17.908  0.00  0.00    +0.000 C 
BRANCH  23  28
ATOM     24  C   UNL     1      10.060  10.505  20.063  0.00  0.00    +0.000 C 
ATOM     25  C   UNL     1       9.149  10.021  19.004  0.00  0.00    +0.000 A 
ATOM     26  C   UNL     1       8.589  10.598  17.887  0.00  0.00    +0.000 A 
ATOM     27  C   UNL     1       7.815   9.586  17.255  0.00  0.00    +0.000 A 
ATOM     28  C   UNL     1       7.946   8.449  18.024  0.00  0.00    +0.000 A 
ATOM     29  O   UNL     1       8.765   8.720  19.093  0.00  0.00    +0.000 OA
ENDBRANCH  23  28
ENDBRANCH  20  23
BRANCH  20  30
ATOM     30  C   UNL     1       5.527   6.703  16.613  0.00  0.00    +0.000 C 
BRANCH  30  31
ATOM     31  C   UNL     1       5.876   5.618  15.627  0.00  0.00    +0.000 A 
ATOM     32  C   UNL     1       5.016   4.558  15.313  0.00  0.00    +0.000 A 
ATOM     33  C   UNL     1       5.311   3.698  14.253  0.00  0.00    +0.000 A 
ATOM     34  C   UNL     1       6.480   3.870  13.513  0.00  0.00    +0.000 A 
ATOM     35  C   UNL     1       7.380   4.873  13.860  0.00  0.00    +0.000 A 
ATOM     36  C   UNL     1       7.080   5.739  14.912  0.00  0.00    +0.000 A 
ENDBRANCH  30  31
ENDBRANCH  20  30
ENDBRANCH   1  21
TORSDOF 10
ENDMDL
