MODEL 1
REMARK VINA RESULT:      -8.1      0.000      0.000
REMARK  Name = 
REMARK  9 active torsions:
REMARK  status: ('A' for Active; 'I' for Inactive)
REMARK    1  A    between atoms: C_1  and  O_2
REMARK    2  A    between atoms: O_2  and  C_3
REMARK    3  A    between atoms: C_6  and  S_7
REMARK    4  A    between atoms: S_7  and  N_10
REMARK    5  A    between atoms: N_10  and  C_11
REMARK    6  A    between atoms: N_14  and  C_15
REMARK    7  A    between atoms: C_15  and  C_16
REMARK    8  A    between atoms: C_25  and  N_26
REMARK    9  A    between atoms: C_27  and  C_28
REMARK                            x       y       z     vdW  Elec       q    Type
REMARK                         _______ _______ _______ _____ _____    ______ ____
ROOT
ATOM      1  S   UNL     1       4.239   3.328  18.993  0.00  0.00    +0.000 S 
ATOM      2  O   UNL     1       3.187   2.502  18.448  0.00  0.00    +0.000 OA
ATOM      3  O   UNL     1       5.251   2.807  19.883  0.00  0.00    +0.000 OA
ENDROOT
BRANCH   1   7
ATOM      4  C   UNL     1       6.727   5.162  15.645  0.00  0.00    +0.000 A 
ATOM      5  C   UNL     1       6.041   3.949  15.452  0.00  0.00    +0.000 A 
ATOM      6  C   UNL     1       5.237   3.424  16.456  0.00  0.00    +0.000 A 
ATOM      7  C   UNL     1       5.122   4.113  17.661  0.00  0.00    +0.000 A 
ATOM      8  C   UNL     1       5.694   5.379  17.820  0.00  0.00    +0.000 A 
ATOM      9  C   UNL     1       6.486   5.930  16.802  0.00  0.00    +0.000 A 
BRANCH   9  10
ATOM     10  N   UNL     1       7.048   7.239  16.898  0.00  0.00    +0.000 N 
ATOM     11  C   UNL     1       7.875   7.712  17.904  0.00  0.00    +0.000 C 
ATOM     12  C   UNL     1       8.201   9.183  17.824  0.00  0.00    +0.000 C 
ATOM     13  O   UNL     1       8.358   7.052  18.819  0.00  0.00    +0.000 OA
ATOM     14  H   UNL     1       6.739   7.883  16.176  0.00  0.00    +0.000 HD
ENDBRANCH   9  10
BRANCH   4  16
ATOM     15  C   UNL     1       7.495   5.031  13.421  0.00  0.00    +0.000 C 
ATOM     16  O   UNL     1       7.630   5.635  14.716  0.00  0.00    +0.000 OA
ENDBRANCH   4  16
ENDBRANCH   1   7
BRANCH   1  17
ATOM     17  N   UNL     1       3.533   4.664  19.778  0.00  0.00    +0.000 NA
ATOM     18  H   UNL     1       4.160   5.466  19.808  0.00  0.00    +0.000 HD
BRANCH  17  19
ATOM     19  C   UNL     1       2.102   4.984  19.531  0.00  0.00    +0.000 C 
ATOM     20  C   UNL     1       1.810   5.388  18.094  0.00  0.00    +0.000 C 
ATOM     21  C   UNL     1       2.384   6.759  17.756  0.00  0.00    +0.000 C 
ATOM     22  N   UNL     1       1.798   7.781  18.633  0.00  0.00    +0.000 NA
ATOM     23  C   UNL     1       2.100   7.497  20.046  0.00  0.00    +0.000 C 
ATOM     24  C   UNL     1       1.646   6.099  20.481  0.00  0.00    +0.000 C 
BRANCH  22  25
ATOM     25  C   UNL     1       2.266   9.135  18.277  0.00  0.00    +0.000 C 
BRANCH  25  26
ATOM     26  C   UNL     1       1.202  10.210  18.376  0.00  0.00    +0.000 A 
ATOM     27  C   UNL     1      -0.151   9.904  18.166  0.00  0.00    +0.000 A 
ATOM     28  C   UNL     1      -1.128  10.897  18.272  0.00  0.00    +0.000 A 
ATOM     29  C   UNL     1      -0.764  12.203  18.592  0.00  0.00    +0.000 A 
ATOM     30  C   UNL     1       0.577  12.522  18.797  0.00  0.00    +0.000 A 
ATOM     31  C   UNL     1       1.555  11.532  18.689  0.00  0.00    +0.000 A 
ENDBRANCH  25  26
ENDBRANCH  22  25
ENDBRANCH  17  19
ENDBRANCH   1  17
TORSDOF 7
ENDMDL
MODEL 2
REMARK VINA RESULT:      -7.9      1.399      2.817
REMARK  Name = 
REMARK  9 active torsions:
REMARK  status: ('A' for Active; 'I' for Inactive)
REMARK    1  A    between atoms: C_1  and  O_2
REMARK    2  A    between atoms: O_2  and  C_3
REMARK    3  A    between atoms: C_6  and  S_7
REMARK    4  A    between atoms: S_7  and  N_10
REMARK    5  A    between atoms: N_10  and  C_11
REMARK    6  A    between atoms: N_14  and  C_15
REMARK    7  A    between atoms: C_15  and  C_16
REMARK    8  A    between atoms: C_25  and  N_26
REMARK    9  A    between atoms: C_27  and  C_28
REMARK                            x       y       z     vdW  Elec       q    Type
REMARK                         _______ _______ _______ _____ _____    ______ ____
ROOT
ATOM      1  S   UNL     1       4.430   2.862  19.156  0.00  0.00    +0.000 S 
ATOM      2  O   UNL     1       3.697   2.207  18.098  0.00  0.00    +0.000 OA
ATOM      3  O   UNL     1       5.187   2.127  20.145  0.00  0.00    +0.000 OA
ENDROOT
BRANCH   1   7
ATOM      4  C   UNL     1       7.118   6.054  17.327  0.00  0.00    +0.000 A 
ATOM      5  C   UNL     1       6.823   6.062  18.702  0.00  0.00    +0.000 A 
ATOM      6  C   UNL     1       6.051   5.053  19.265  0.00  0.00    +0.000 A 
ATOM      7  C   UNL     1       5.567   4.034  18.448  0.00  0.00    +0.000 A 
ATOM      8  C   UNL     1       5.956   3.945  17.107  0.00  0.00    +0.000 A 
ATOM      9  C   UNL     1       6.758   4.944  16.535  0.00  0.00    +0.000 A 
BRANCH   9  10
ATOM     10  N   UNL     1       7.222   4.869  15.188  0.00  0.00    +0.000 N 
ATOM     11  C   UNL     1       6.479   4.506  14.076  0.00  0.00    +0.000 C 
ATOM     12  C   UNL     1       7.267   4.374  12.796  0.00  0.00    +0.000 C 
ATOM     13  O   UNL     1       5.269   4.301  14.046  0.00  0.00    +0.000 OA
ATOM     14  H   UNL     1       8.217   5.043  15.075  0.00  0.00    +0.000 HD
ENDBRANCH   9  10
BRANCH   4  16
ATOM     15  C   UNL     1       7.889   8.268  17.561  0.00  0.00    +0.000 C 
ATOM     16  O   UNL     1       7.770   7.109  16.723  0.00  0.00    +0.000 OA
ENDBRANCH   4  16
ENDBRANCH   1   7
BRANCH   1  17
ATOM     17  N   UNL     1       3.365   3.880  20.010  0.00  0.00    +0.000 NA
ATOM     18  H   UNL     1       3.851   4.657  20.454  0.00  0.00    +0.000 HD
BRANCH  17  19
ATOM     19  C   UNL     1       2.041   4.213  19.418  0.00  0.00    +0.000 C 
ATOM     20  C   UNL     1       2.137   5.019  18.132  0.00  0.00    +0.000 C 
ATOM     21  C   UNL     1       2.608   6.446  18.384  0.00  0.00    +0.000 C 
ATOM     22  N   UNL     1       1.667   7.139  19.274  0.00  0.00    +0.000 NA
ATOM     23  C   UNL     1       1.574   6.455  20.575  0.00  0.00    +0.000 C 
ATOM     24  C   UNL     1       1.191   4.976  20.442  0.00  0.00    +0.000 C 
BRANCH  22  25
ATOM     25  C   UNL     1       2.046   8.552  19.471  0.00  0.00    +0.000 C 
BRANCH  25  26
ATOM     26  C   UNL     1       0.874   9.511  19.527  0.00  0.00    +0.000 A 
ATOM     27  C   UNL     1       0.409  10.009  20.753  0.00  0.00    +0.000 A 
ATOM     28  C   UNL     1      -0.663  10.904  20.796  0.00  0.00    +0.000 A 
ATOM     29  C   UNL     1      -1.279  11.312  19.615  0.00  0.00    +0.000 A 
ATOM     30  C   UNL     1      -0.832  10.821  18.391  0.00  0.00    +0.000 A 
ATOM     31  C   UNL     1       0.238   9.925  18.345  0.00  0.00    +0.000 A 
ENDBRANCH  25  26
ENDBRANCH  22  25
ENDBRANCH  17  19
ENDBRANCH   1  17
TORSDOF 7
ENDMDL
MODEL 3
REMARK VINA RESULT:      -7.8      1.343      1.595
REMARK  Name = 
REMARK  9 active torsions:
REMARK  status: ('A' for Active; 'I' for Inactive)
REMARK    1  A    between atoms: C_1  and  O_2
REMARK    2  A    between atoms: O_2  and  C_3
REMARK    3  A    between atoms: C_6  and  S_7
REMARK    4  A    between atoms: S_7  and  N_10
REMARK    5  A    between atoms: N_10  and  C_11
REMARK    6  A    between atoms: N_14  and  C_15
REMARK    7  A    between atoms: C_15  and  C_16
REMARK    8  A    between atoms: C_25  and  N_26
REMARK    9  A    between atoms: C_27  and  C_28
REMARK                            x       y       z     vdW  Elec       q    Type
REMARK                         _______ _______ _______ _____ _____    ______ ____
ROOT
ATOM      1  S   UNL     1       4.237   3.178  18.898  0.00  0.00    +0.000 S 
ATOM      2  O   UNL     1       3.252   2.285  18.334  0.00  0.00    +0.000 OA
ATOM      3  O   UNL     1       5.261   2.724  19.812  0.00  0.00    +0.000 OA
ENDROOT
BRANCH   1   7
ATOM      4  C   UNL     1       6.668   5.134  15.576  0.00  0.00    +0.000 A 
ATOM      5  C   UNL     1       5.967   3.935  15.347  0.00  0.00    +0.000 A 
ATOM      6  C   UNL     1       5.181   3.374  16.346  0.00  0.00    +0.000 A 
ATOM      7  C   UNL     1       5.098   4.012  17.581  0.00  0.00    +0.000 A 
ATOM      8  C   UNL     1       5.686   5.265  17.782  0.00  0.00    +0.000 A 
ATOM      9  C   UNL     1       6.460   5.854  16.771  0.00  0.00    +0.000 A 
BRANCH   9  10
ATOM     10  N   UNL     1       7.035   7.152  16.910  0.00  0.00    +0.000 N 
ATOM     11  C   UNL     1       7.849   7.590  17.943  0.00  0.00    +0.000 C 
ATOM     12  C   UNL     1       8.194   9.058  17.907  0.00  0.00    +0.000 C 
ATOM     13  O   UNL     1       8.306   6.900  18.850  0.00  0.00    +0.000 OA
ATOM     14  H   UNL     1       6.748   7.818  16.199  0.00  0.00    +0.000 HD
ENDBRANCH   9  10
BRANCH   4  16
ATOM     15  C   UNL     1       7.594   4.893  13.423  0.00  0.00    +0.000 C 
ATOM     16  O   UNL     1       7.555   5.639  14.649  0.00  0.00    +0.000 OA
ENDBRANCH   4  16
ENDBRANCH   1   7
BRANCH   1  17
ATOM     17  N   UNL     1       3.432   4.469  19.661  0.00  0.00    +0.000 NA
ATOM     18  H   UNL     1       4.074   5.209  19.940  0.00  0.00    +0.000 HD
BRANCH  17  19
ATOM     19  C   UNL     1       2.122   4.930  19.129  0.00  0.00    +0.000 C 
ATOM     20  C   UNL     1       2.204   6.244  18.368  0.00  0.00    +0.000 C 
ATOM     21  C   UNL     1       2.472   7.425  19.292  0.00  0.00    +0.000 C 
ATOM     22  N   UNL     1       1.391   7.550  20.278  0.00  0.00    +0.000 NA
ATOM     23  C   UNL     1       1.294   6.337  21.108  0.00  0.00    +0.000 C 
ATOM     24  C   UNL     1       1.112   5.062  20.276  0.00  0.00    +0.000 C 
BRANCH  22  25
ATOM     25  C   UNL     1       1.572   8.737  21.137  0.00  0.00    +0.000 C 
BRANCH  25  26
ATOM     26  C   UNL     1       0.500   9.796  20.974  0.00  0.00    +0.000 A 
ATOM     27  C   UNL     1       0.073  10.561  22.069  0.00  0.00    +0.000 A 
ATOM     28  C   UNL     1      -0.906  11.545  21.909  0.00  0.00    +0.000 A 
ATOM     29  C   UNL     1      -1.465  11.776  20.655  0.00  0.00    +0.000 A 
ATOM     30  C   UNL     1      -1.054  11.019  19.559  0.00  0.00    +0.000 A 
ATOM     31  C   UNL     1      -0.078  10.034  19.717  0.00  0.00    +0.000 A 
ENDBRANCH  25  26
ENDBRANCH  22  25
ENDBRANCH  17  19
ENDBRANCH   1  17
TORSDOF 7
ENDMDL
MODEL 4
REMARK VINA RESULT:      -7.7      1.951      3.202
REMARK  Name = 
REMARK  9 active torsions:
REMARK  status: ('A' for Active; 'I' for Inactive)
REMARK    1  A    between atoms: C_1  and  O_2
REMARK    2  A    between atoms: O_2  and  C_3
REMARK    3  A    between atoms: C_6  and  S_7
REMARK    4  A    between atoms: S_7  and  N_10
REMARK    5  A    between atoms: N_10  and  C_11
REMARK    6  A    between atoms: N_14  and  C_15
REMARK    7  A    between atoms: C_15  and  C_16
REMARK    8  A    between atoms: C_25  and  N_26
REMARK    9  A    between atoms: C_27  and  C_28
REMARK                            x       y       z     vdW  Elec       q    Type
REMARK                         _______ _______ _______ _____ _____    ______ ____
ROOT
ATOM      1  S   UNL     1       4.273   2.977  18.857  0.00  0.00    +0.000 S 
ATOM      2  O   UNL     1       3.484   2.472  17.759  0.00  0.00    +0.000 OA
ATOM      3  O   UNL     1       5.012   2.108  19.745  0.00  0.00    +0.000 OA
ENDROOT
BRANCH   1   7
ATOM      4  C   UNL     1       7.079   6.196  17.264  0.00  0.00    +0.000 A 
ATOM      5  C   UNL     1       6.737   6.147  18.629  0.00  0.00    +0.000 A 
ATOM      6  C   UNL     1       5.928   5.130  19.119  0.00  0.00    +0.000 A 
ATOM      7  C   UNL     1       5.454   4.158  18.241  0.00  0.00    +0.000 A 
ATOM      8  C   UNL     1       5.887   4.122  16.911  0.00  0.00    +0.000 A 
ATOM      9  C   UNL     1       6.725   5.130  16.412  0.00  0.00    +0.000 A 
BRANCH   9  10
ATOM     10  N   UNL     1       7.233   5.107  15.079  0.00  0.00    +0.000 N 
ATOM     11  C   UNL     1       6.595   4.597  13.959  0.00  0.00    +0.000 C 
ATOM     12  C   UNL     1       7.431   4.574  12.702  0.00  0.00    +0.000 C 
ATOM     13  O   UNL     1       5.440   4.186  13.905  0.00  0.00    +0.000 OA
ATOM     14  H   UNL     1       8.186   5.446  14.986  0.00  0.00    +0.000 HD
ENDBRANCH   9  10
BRANCH   4  16
ATOM     15  C   UNL     1       7.924   8.362  17.642  0.00  0.00    +0.000 C 
ATOM     16  O   UNL     1       7.769   7.264  16.732  0.00  0.00    +0.000 OA
ENDBRANCH   4  16
ENDBRANCH   1   7
BRANCH   1  17
ATOM     17  N   UNL     1       3.282   3.955  19.838  0.00  0.00    +0.000 NA
ATOM     18  H   UNL     1       3.826   4.582  20.428  0.00  0.00    +0.000 HD
BRANCH  17  19
ATOM     19  C   UNL     1       2.037   4.537  19.268  0.00  0.00    +0.000 C 
ATOM     20  C   UNL     1       2.285   5.736  18.368  0.00  0.00    +0.000 C 
ATOM     21  C   UNL     1       2.737   6.961  19.154  0.00  0.00    +0.000 C 
ATOM     22  N   UNL     1       1.707   7.342  20.129  0.00  0.00    +0.000 NA
ATOM     23  C   UNL     1       1.460   6.251  21.087  0.00  0.00    +0.000 C 
ATOM     24  C   UNL     1       1.082   4.933  20.401  0.00  0.00    +0.000 C 
BRANCH  22  25
ATOM     25  C   UNL     1       2.072   8.577  20.851  0.00  0.00    +0.000 C 
BRANCH  25  26
ATOM     26  C   UNL     1       0.888   9.391  21.336  0.00  0.00    +0.000 A 
ATOM     27  C   UNL     1       0.469   9.324  22.673  0.00  0.00    +0.000 A 
ATOM     28  C   UNL     1      -0.613  10.087  23.116  0.00  0.00    +0.000 A 
ATOM     29  C   UNL     1      -1.285  10.926  22.230  0.00  0.00    +0.000 A 
ATOM     30  C   UNL     1      -0.883  10.998  20.898  0.00  0.00    +0.000 A 
ATOM     31  C   UNL     1       0.197  10.234  20.452  0.00  0.00    +0.000 A 
ENDBRANCH  25  26
ENDBRANCH  22  25
ENDBRANCH  17  19
ENDBRANCH   1  17
TORSDOF 7
ENDMDL
MODEL 5
REMARK VINA RESULT:      -7.4      4.052      8.592
REMARK  Name = 
REMARK  9 active torsions:
REMARK  status: ('A' for Active; 'I' for Inactive)
REMARK    1  A    between atoms: C_1  and  O_2
REMARK    2  A    between atoms: O_2  and  C_3
REMARK    3  A    between atoms: C_6  and  S_7
REMARK    4  A    between atoms: S_7  and  N_10
REMARK    5  A    between atoms: N_10  and  C_11
REMARK    6  A    between atoms: N_14  and  C_15
REMARK    7  A    between atoms: C_15  and  C_16
REMARK    8  A    between atoms: C_25  and  N_26
REMARK    9  A    between atoms: C_27  and  C_28
REMARK                            x       y       z     vdW  Elec       q    Type
REMARK                         _______ _______ _______ _____ _____    ______ ____
ROOT
ATOM      1  S   UNL     1       0.894   8.823  21.570  0.00  0.00    +0.000 S 
ATOM      2  O   UNL     1       1.516   9.297  22.784  0.00  0.00    +0.000 OA
ATOM      3  O   UNL     1      -0.333   8.058  21.576  0.00  0.00    +0.000 OA
ENDROOT
BRANCH   1   7
ATOM      4  C   UNL     1      -0.056  12.441  18.968  0.00  0.00    +0.000 A 
ATOM      5  C   UNL     1       0.807  12.554  20.074  0.00  0.00    +0.000 A 
ATOM      6  C   UNL     1       1.140  11.436  20.828  0.00  0.00    +0.000 A 
ATOM      7  C   UNL     1       0.602  10.199  20.480  0.00  0.00    +0.000 A 
ATOM      8  C   UNL     1      -0.154  10.050  19.312  0.00  0.00    +0.000 A 
ATOM      9  C   UNL     1      -0.473  11.168  18.528  0.00  0.00    +0.000 A 
BRANCH   9  10
ATOM     10  N   UNL     1      -1.196  11.058  17.303  0.00  0.00    +0.000 N 
ATOM     11  C   UNL     1      -2.573  10.988  17.159  0.00  0.00    +0.000 C 
ATOM     12  C   UNL     1      -3.056  10.729  15.753  0.00  0.00    +0.000 C 
ATOM     13  O   UNL     1      -3.405  11.126  18.051  0.00  0.00    +0.000 OA
ATOM     14  H   UNL     1      -0.613  10.958  16.477  0.00  0.00    +0.000 HD
ENDBRANCH   9  10
BRANCH   4  16
ATOM     15  C   UNL     1      -0.020  14.793  18.824  0.00  0.00    +0.000 C 
ATOM     16  O   UNL     1      -0.503  13.553  18.285  0.00  0.00    +0.000 OA
ENDBRANCH   4  16
ENDBRANCH   1   7
BRANCH   1  17
ATOM     17  N   UNL     1       2.034   7.916  20.689  0.00  0.00    +0.000 NA
ATOM     18  H   UNL     1       2.819   7.622  21.268  0.00  0.00    +0.000 HD
BRANCH  17  19
ATOM     19  C   UNL     1       1.561   6.910  19.700  0.00  0.00    +0.000 C 
ATOM     20  C   UNL     1       1.834   5.474  20.118  0.00  0.00    +0.000 C 
ATOM     21  C   UNL     1       3.317   5.131  20.059  0.00  0.00    +0.000 C 
ATOM     22  N   UNL     1       3.819   5.298  18.689  0.00  0.00    +0.000 NA
ATOM     23  C   UNL     1       3.656   6.689  18.235  0.00  0.00    +0.000 C 
ATOM     24  C   UNL     1       2.206   7.180  18.335  0.00  0.00    +0.000 C 
BRANCH  22  25
ATOM     25  C   UNL     1       5.234   4.892  18.575  0.00  0.00    +0.000 C 
BRANCH  25  26
ATOM     26  C   UNL     1       5.730   4.749  17.149  0.00  0.00    +0.000 A 
ATOM     27  C   UNL     1       4.937   4.131  16.171  0.00  0.00    +0.000 A 
ATOM     28  C   UNL     1       5.395   4.015  14.856  0.00  0.00    +0.000 A 
ATOM     29  C   UNL     1       6.646   4.517  14.506  0.00  0.00    +0.000 A 
ATOM     30  C   UNL     1       7.447   5.128  15.469  0.00  0.00    +0.000 A 
ATOM     31  C   UNL     1       6.992   5.243  16.785  0.00  0.00    +0.000 A 
ENDBRANCH  25  26
ENDBRANCH  22  25
ENDBRANCH  17  19
ENDBRANCH   1  17
TORSDOF 7
ENDMDL
MODEL 6
REMARK VINA RESULT:      -7.2      4.329      7.115
REMARK  Name = 
REMARK  9 active torsions:
REMARK  status: ('A' for Active; 'I' for Inactive)
REMARK    1  A    between atoms: C_1  and  O_2
REMARK    2  A    between atoms: O_2  and  C_3
REMARK    3  A    between atoms: C_6  and  S_7
REMARK    4  A    between atoms: S_7  and  N_10
REMARK    5  A    between atoms: N_10  and  C_11
REMARK    6  A    between atoms: N_14  and  C_15
REMARK    7  A    between atoms: C_15  and  C_16
REMARK    8  A    between atoms: C_25  and  N_26
REMARK    9  A    between atoms: C_27  and  C_28
REMARK                            x       y       z     vdW  Elec       q    Type
REMARK                         _______ _______ _______ _____ _____    ______ ____
ROOT
ATOM      1  S   UNL     1       0.476   9.967  21.013  0.00  0.00    +0.000 S 
ATOM      2  O   UNL     1      -0.887   9.527  21.199  0.00  0.00    +0.000 OA
ATOM      3  O   UNL     1       1.327  10.342  22.119  0.00  0.00    +0.000 OA
ENDROOT
BRANCH   1   7
ATOM      4  C   UNL     1       2.531   6.728  18.553  0.00  0.00    +0.000 A 
ATOM      5  C   UNL     1       2.309   8.010  18.016  0.00  0.00    +0.000 A 
ATOM      6  C   UNL     1       1.735   9.011  18.790  0.00  0.00    +0.000 A 
ATOM      7  C   UNL     1       1.376   8.728  20.106  0.00  0.00    +0.000 A 
ATOM      8  C   UNL     1       1.706   7.500  20.690  0.00  0.00    +0.000 A 
ATOM      9  C   UNL     1       2.310   6.492  19.925  0.00  0.00    +0.000 A 
BRANCH   9  10
ATOM     10  N   UNL     1       2.711   5.245  20.490  0.00  0.00    +0.000 N 
ATOM     11  C   UNL     1       1.893   4.161  20.767  0.00  0.00    +0.000 C 
ATOM     12  C   UNL     1       2.564   3.024  21.498  0.00  0.00    +0.000 C 
ATOM     13  O   UNL     1       0.709   4.049  20.465  0.00  0.00    +0.000 OA
ATOM     14  H   UNL     1       3.688   5.202  20.765  0.00  0.00    +0.000 HD
ENDBRANCH   9  10
BRANCH   4  16
ATOM     15  C   UNL     1       4.303   5.878  17.252  0.00  0.00    +0.000 C 
ATOM     16  O   UNL     1       2.977   5.686  17.768  0.00  0.00    +0.000 OA
ENDBRANCH   4  16
ENDBRANCH   1   7
BRANCH   1  17
ATOM     17  N   UNL     1       0.484  11.273  19.921  0.00  0.00    +0.000 NA
ATOM     18  H   UNL     1       1.144  11.132  19.159  0.00  0.00    +0.000 HD
BRANCH  17  19
ATOM     19  C   UNL     1      -0.804  11.912  19.536  0.00  0.00    +0.000 C 
ATOM     20  C   UNL     1      -0.695  12.809  18.314  0.00  0.00    +0.000 C 
ATOM     21  C   UNL     1       0.082  14.087  18.607  0.00  0.00    +0.000 C 
ATOM     22  N   UNL     1      -0.590  14.854  19.663  0.00  0.00    +0.000 NA
ATOM     23  C   UNL     1      -0.671  14.074  20.910  0.00  0.00    +0.000 C 
ATOM     24  C   UNL     1      -1.359  12.717  20.718  0.00  0.00    +0.000 C 
BRANCH  22  25
ATOM     25  C   UNL     1       0.087  16.141  19.916  0.00  0.00    +0.000 C 
BRANCH  25  26
ATOM     26  C   UNL     1       0.272  17.003  18.682  0.00  0.00    +0.000 A 
ATOM     27  C   UNL     1       1.537  17.155  18.095  0.00  0.00    +0.000 A 
ATOM     28  C   UNL     1       1.697  17.940  16.950  0.00  0.00    +0.000 A 
ATOM     29  C   UNL     1       0.597  18.576  16.380  0.00  0.00    +0.000 A 
ATOM     30  C   UNL     1      -0.663  18.438  16.956  0.00  0.00    +0.000 A 
ATOM     31  C   UNL     1      -0.826  17.656  18.102  0.00  0.00    +0.000 A 
ENDBRANCH  25  26
ENDBRANCH  22  25
ENDBRANCH  17  19
ENDBRANCH   1  17
TORSDOF 7
ENDMDL
MODEL 7
REMARK VINA RESULT:      -7.2      4.609      7.333
REMARK  Name = 
REMARK  9 active torsions:
REMARK  status: ('A' for Active; 'I' for Inactive)
REMARK    1  A    between atoms: C_1  and  O_2
REMARK    2  A    between atoms: O_2  and  C_3
REMARK    3  A    between atoms: C_6  and  S_7
REMARK    4  A    between atoms: S_7  and  N_10
REMARK    5  A    between atoms: N_10  and  C_11
REMARK    6  A    between atoms: N_14  and  C_15
REMARK    7  A    between atoms: C_15  and  C_16
REMARK    8  A    between atoms: C_25  and  N_26
REMARK    9  A    between atoms: C_27  and  C_28
REMARK                            x       y       z     vdW  Elec       q    Type
REMARK                         _______ _______ _______ _____ _____    ______ ____
ROOT
ATOM      1  S   UNL     1       0.314   9.979  20.772  0.00  0.00    +0.000 S 
ATOM      2  O   UNL     1      -0.123   9.622  22.101  0.00  0.00    +0.000 OA
ATOM      3  O   UNL     1       1.063  11.186  20.500  0.00  0.00    +0.000 OA
ENDROOT
BRANCH   1   7
ATOM      4  C   UNL     1       2.550   6.500  18.858  0.00  0.00    +0.000 A 
ATOM      5  C   UNL     1       2.461   7.745  18.208  0.00  0.00    +0.000 A 
ATOM      6  C   UNL     1       1.829   8.819  18.822  0.00  0.00    +0.000 A 
ATOM      7  C   UNL     1       1.278   8.647  20.090  0.00  0.00    +0.000 A 
ATOM      8  C   UNL     1       1.469   7.455  20.798  0.00  0.00    +0.000 A 
ATOM      9  C   UNL     1       2.129   6.373  20.198  0.00  0.00    +0.000 A 
BRANCH   9  10
ATOM     10  N   UNL     1       2.393   5.159  20.898  0.00  0.00    +0.000 N 
ATOM     11  C   UNL     1       1.672   3.978  20.806  0.00  0.00    +0.000 C 
ATOM     12  C   UNL     1       2.091   2.897  21.772  0.00  0.00    +0.000 C 
ATOM     13  O   UNL     1       0.759   3.743  20.021  0.00  0.00    +0.000 OA
ATOM     14  H   UNL     1       3.151   5.217  21.572  0.00  0.00    +0.000 HD
ENDBRANCH   9  10
BRANCH   4  16
ATOM     15  C   UNL     1       4.429   5.523  17.826  0.00  0.00    +0.000 C 
ATOM     16  O   UNL     1       3.056   5.387  18.218  0.00  0.00    +0.000 OA
ENDBRANCH   4  16
ENDBRANCH   1   7
BRANCH   1  17
ATOM     17  N   UNL     1      -1.038   9.996  19.738  0.00  0.00    +0.000 NA
ATOM     18  H   UNL     1      -1.898   9.754  20.227  0.00  0.00    +0.000 HD
BRANCH  17  19
ATOM     19  C   UNL     1      -1.167  11.075  18.722  0.00  0.00    +0.000 C 
ATOM     20  C   UNL     1      -1.984  12.265  19.200  0.00  0.00    +0.000 C 
ATOM     21  C   UNL     1      -3.465  11.931  19.327  0.00  0.00    +0.000 C 
ATOM     22  N   UNL     1      -4.002  11.519  18.024  0.00  0.00    +0.000 NA
ATOM     23  C   UNL     1      -3.307  10.321  17.524  0.00  0.00    +0.000 C 
ATOM     24  C   UNL     1      -1.787  10.509  17.438  0.00  0.00    +0.000 C 
BRANCH  22  25
ATOM     25  C   UNL     1      -5.456  11.269  18.089  0.00  0.00    +0.000 C 
BRANCH  25  26
ATOM     26  C   UNL     1      -6.308  12.523  18.051  0.00  0.00    +0.000 A 
ATOM     27  C   UNL     1      -6.485  13.235  16.856  0.00  0.00    +0.000 A 
ATOM     28  C   UNL     1      -7.283  14.381  16.825  0.00  0.00    +0.000 A 
ATOM     29  C   UNL     1      -7.912  14.825  17.986  0.00  0.00    +0.000 A 
ATOM     30  C   UNL     1      -7.740  14.130  19.181  0.00  0.00    +0.000 A 
ATOM     31  C   UNL     1      -6.941  12.986  19.215  0.00  0.00    +0.000 A 
ENDBRANCH  25  26
ENDBRANCH  22  25
ENDBRANCH  17  19
ENDBRANCH   1  17
TORSDOF 7
ENDMDL
MODEL 8
REMARK VINA RESULT:      -7.1      1.907      2.541
REMARK  Name = 
REMARK  9 active torsions:
REMARK  status: ('A' for Active; 'I' for Inactive)
REMARK    1  A    between atoms: C_1  and  O_2
REMARK    2  A    between atoms: O_2  and  C_3
REMARK    3  A    between atoms: C_6  and  S_7
REMARK    4  A    between atoms: S_7  and  N_10
REMARK    5  A    between atoms: N_10  and  C_11
REMARK    6  A    between atoms: N_14  and  C_15
REMARK    7  A    between atoms: C_15  and  C_16
REMARK    8  A    between atoms: C_25  and  N_26
REMARK    9  A    between atoms: C_27  and  C_28
REMARK                            x       y       z     vdW  Elec       q    Type
REMARK                         _______ _______ _______ _____ _____    ______ ____
ROOT
ATOM      1  S   UNL     1       2.511   4.749  18.273  0.00  0.00    +0.000 S 
ATOM      2  O   UNL     1       1.619   3.837  17.597  0.00  0.00    +0.000 OA
ATOM      3  O   UNL     1       3.007   4.501  19.608  0.00  0.00    +0.000 OA
ENDROOT
BRANCH   1   7
ATOM      4  C   UNL     1       6.336   5.249  15.847  0.00  0.00    +0.000 A 
ATOM      5  C   UNL     1       5.436   4.204  15.568  0.00  0.00    +0.000 A 
ATOM      6  C   UNL     1       4.243   4.091  16.272  0.00  0.00    +0.000 A 
ATOM      7  C   UNL     1       3.951   5.024  17.263  0.00  0.00    +0.000 A 
ATOM      8  C   UNL     1       4.774   6.137  17.465  0.00  0.00    +0.000 A 
ATOM      9  C   UNL     1       5.967   6.275  16.741  0.00  0.00    +0.000 A 
BRANCH   9  10
ATOM     10  N   UNL     1       6.811   7.418  16.875  0.00  0.00    +0.000 N 
ATOM     11  C   UNL     1       7.750   7.641  17.870  0.00  0.00    +0.000 C 
ATOM     12  C   UNL     1       8.397   9.004  17.844  0.00  0.00    +0.000 C 
ATOM     13  O   UNL     1       8.094   6.843  18.736  0.00  0.00    +0.000 OA
ATOM     14  H   UNL     1       6.638   8.152  16.194  0.00  0.00    +0.000 HD
ENDBRANCH   9  10
BRANCH   4  16
ATOM     15  C   UNL     1       7.556   5.079  13.839  0.00  0.00    +0.000 C 
ATOM     16  O   UNL     1       7.581   5.306  15.255  0.00  0.00    +0.000 OA
ENDBRANCH   4  16
ENDBRANCH   1   7
BRANCH   1  17
ATOM     17  N   UNL     1       1.798   6.295  18.293  0.00  0.00    +0.000 NA
ATOM     18  H   UNL     1       0.802   6.256  18.498  0.00  0.00    +0.000 HD
BRANCH  17  19
ATOM     19  C   UNL     1       2.531   7.430  18.917  0.00  0.00    +0.000 C 
ATOM     20  C   UNL     1       2.073   7.742  20.333  0.00  0.00    +0.000 C 
ATOM     21  C   UNL     1       0.681   8.363  20.361  0.00  0.00    +0.000 C 
ATOM     22  N   UNL     1       0.675   9.621  19.604  0.00  0.00    +0.000 NA
ATOM     23  C   UNL     1       1.041   9.389  18.196  0.00  0.00    +0.000 C 
ATOM     24  C   UNL     1       2.393   8.683  18.043  0.00  0.00    +0.000 C 
BRANCH  22  25
ATOM     25  C   UNL     1      -0.636  10.296  19.681  0.00  0.00    +0.000 C 
BRANCH  25  26
ATOM     26  C   UNL     1      -0.705  11.414  20.702  0.00  0.00    +0.000 A 
ATOM     27  C   UNL     1      -1.128  11.162  22.016  0.00  0.00    +0.000 A 
ATOM     28  C   UNL     1      -1.176  12.195  22.955  0.00  0.00    +0.000 A 
ATOM     29  C   UNL     1      -0.799  13.486  22.594  0.00  0.00    +0.000 A 
ATOM     30  C   UNL     1      -0.382  13.751  21.291  0.00  0.00    +0.000 A 
ATOM     31  C   UNL     1      -0.335  12.721  20.349  0.00  0.00    +0.000 A 
ENDBRANCH  25  26
ENDBRANCH  22  25
ENDBRANCH  17  19
ENDBRANCH   1  17
TORSDOF 7
ENDMDL
MODEL 9
REMARK VINA RESULT:      -7.0      1.679      3.331
REMARK  Name = 
REMARK  9 active torsions:
REMARK  status: ('A' for Active; 'I' for Inactive)
REMARK    1  A    between atoms: C_1  and  O_2
REMARK    2  A    between atoms: O_2  and  C_3
REMARK    3  A    between atoms: C_6  and  S_7
REMARK    4  A    between atoms: S_7  and  N_10
REMARK    5  A    between atoms: N_10  and  C_11
REMARK    6  A    between atoms: N_14  and  C_15
REMARK    7  A    between atoms: C_15  and  C_16
REMARK    8  A    between atoms: C_25  and  N_26
REMARK    9  A    between atoms: C_27  and  C_28
REMARK                            x       y       z     vdW  Elec       q    Type
REMARK                         _______ _______ _______ _____ _____    ______ ____
ROOT
ATOM      1  S   UNL     1       2.311   4.509  18.334  0.00  0.00    +0.000 S 
ATOM      2  O   UNL     1       1.755   3.921  17.137  0.00  0.00    +0.000 OA
ATOM      3  O   UNL     1       2.226   3.865  19.625  0.00  0.00    +0.000 OA
ENDROOT
BRANCH   1   7
ATOM      4  C   UNL     1       6.683   5.661  17.765  0.00  0.00    +0.000 A 
ATOM      5  C   UNL     1       6.191   5.299  19.033  0.00  0.00    +0.000 A 
ATOM      6  C   UNL     1       4.872   4.893  19.190  0.00  0.00    +0.000 A 
ATOM      7  C   UNL     1       4.038   4.852  18.075  0.00  0.00    +0.000 A 
ATOM      8  C   UNL     1       4.545   5.085  16.792  0.00  0.00    +0.000 A 
ATOM      9  C   UNL     1       5.883   5.471  16.619  0.00  0.00    +0.000 A 
BRANCH   9  10
ATOM     10  N   UNL     1       6.457   5.669  15.328  0.00  0.00    +0.000 N 
ATOM     11  C   UNL     1       6.703   4.694  14.374  0.00  0.00    +0.000 C 
ATOM     12  C   UNL     1       7.454   5.169  13.154  0.00  0.00    +0.000 C 
ATOM     13  O   UNL     1       6.361   3.517  14.433  0.00  0.00    +0.000 OA
ATOM     14  H   UNL     1       6.766   6.619  15.146  0.00  0.00    +0.000 HD
ENDBRANCH   9  10
BRANCH   4  16
ATOM     15  C   UNL     1       8.160   7.403  18.342  0.00  0.00    +0.000 C 
ATOM     16  O   UNL     1       7.947   6.190  17.605  0.00  0.00    +0.000 OA
ENDBRANCH   4  16
ENDBRANCH   1   7
BRANCH   1  17
ATOM     17  N   UNL     1       1.669   6.074  18.522  0.00  0.00    +0.000 NA
ATOM     18  H   UNL     1       0.714   6.058  18.876  0.00  0.00    +0.000 HD
BRANCH  17  19
ATOM     19  C   UNL     1       2.531   7.156  19.069  0.00  0.00    +0.000 C 
ATOM     20  C   UNL     1       1.976   7.794  20.333  0.00  0.00    +0.000 C 
ATOM     21  C   UNL     1       0.742   8.643  20.052  0.00  0.00    +0.000 C 
ATOM     22  N   UNL     1       1.077   9.726  19.119  0.00  0.00    +0.000 NA
ATOM     23  C   UNL     1       1.557   9.185  17.836  0.00  0.00    +0.000 C 
ATOM     24  C   UNL     1       2.751   8.236  18.002  0.00  0.00    +0.000 C 
BRANCH  22  25
ATOM     25  C   UNL     1      -0.074  10.622  18.890  0.00  0.00    +0.000 C 
BRANCH  25  26
ATOM     26  C   UNL     1       0.224  12.092  19.113  0.00  0.00    +0.000 A 
ATOM     27  C   UNL     1       1.231  12.494  20.003  0.00  0.00    +0.000 A 
ATOM     28  C   UNL     1       1.510  13.849  20.193  0.00  0.00    +0.000 A 
ATOM     29  C   UNL     1       0.788  14.815  19.496  0.00  0.00    +0.000 A 
ATOM     30  C   UNL     1      -0.220  14.430  18.614  0.00  0.00    +0.000 A 
ATOM     31  C   UNL     1      -0.502  13.076  18.424  0.00  0.00    +0.000 A 
ENDBRANCH  25  26
ENDBRANCH  22  25
ENDBRANCH  17  19
ENDBRANCH   1  17
TORSDOF 7
ENDMDL
