MODEL 1
REMARK VINA RESULT:      -6.9      0.000      0.000
REMARK  Name = 
REMARK  2 active torsions:
REMARK  status: ('A' for Active; 'I' for Inactive)
REMARK    1  A    between atoms: C_1  and  C_2
REMARK    2  A    between atoms: C_6  and  C_7
REMARK                            x       y       z     vdW  Elec       q    Type
REMARK                         _______ _______ _______ _____ _____    ______ ____
ROOT
ATOM      1  C   UNL     1       3.748   5.309  18.807  0.00  0.00    +0.000 C 
ATOM      2  O   UNL     1       3.413   6.432  19.181  0.00  0.00    +0.000 OA
ATOM      3  N   UNL     1       2.872   4.190  18.945  0.00  0.00    +0.000 N 
ATOM      4  C   UNL     1       1.472   4.310  19.392  0.00  0.00    +0.000 C 
ATOM      5  C   UNL     1       1.291   3.312  20.530  0.00  0.00    +0.000 C 
ATOM      6  C   UNL     1       2.054   2.059  20.156  0.00  0.00    +0.000 C 
ATOM      7  S   UNL     1       3.429   2.597  19.164  0.00  0.00    +0.000 S 
ATOM      8  O   UNL     1       3.346   1.866  17.919  0.00  0.00    +0.000 OA
ATOM      9  O   UNL     1       4.608   2.617  20.002  0.00  0.00    +0.000 OA
ENDROOT
BRANCH   1  15
ATOM     10  C   UNL     1       6.121   3.906  14.827  0.00  0.00    +0.000 C 
ATOM     11  C   UNL     1       6.219   4.456  16.216  0.00  0.00    +0.000 A 
ATOM     12  C   UNL     1       7.442   4.610  16.856  0.00  0.00    +0.000 A 
ATOM     13  C   UNL     1       7.457   5.040  18.182  0.00  0.00    +0.000 A 
ATOM     14  C   UNL     1       6.253   5.280  18.841  0.00  0.00    +0.000 A 
ATOM     15  C   UNL     1       5.070   5.097  18.136  0.00  0.00    +0.000 A 
ATOM     16  N   UNL     1       5.048   4.736  16.829  0.00  0.00    +0.000 NA
ENDBRANCH   1  15
TORSDOF 1
ENDMDL
MODEL 2
REMARK VINA RESULT:      -6.9      1.684      2.328
REMARK  Name = 
REMARK  2 active torsions:
REMARK  status: ('A' for Active; 'I' for Inactive)
REMARK    1  A    between atoms: C_1  and  C_2
REMARK    2  A    between atoms: C_6  and  C_7
REMARK                            x       y       z     vdW  Elec       q    Type
REMARK                         _______ _______ _______ _____ _____    ______ ____
ROOT
ATOM      1  C   UNL     1       4.537   3.968  18.773  0.00  0.00    +0.000 C 
ATOM      2  O   UNL     1       5.441   3.512  19.470  0.00  0.00    +0.000 OA
ATOM      3  N   UNL     1       3.169   3.859  19.169  0.00  0.00    +0.000 N 
ATOM      4  C   UNL     1       2.747   3.342  20.484  0.00  0.00    +0.000 C 
ATOM      5  C   UNL     1       1.709   2.260  20.213  0.00  0.00    +0.000 C 
ATOM      6  C   UNL     1       0.840   2.744  19.071  0.00  0.00    +0.000 C 
ATOM      7  S   UNL     1       1.886   3.762  18.054  0.00  0.00    +0.000 S 
ATOM      8  O   UNL     1       1.226   5.044  17.945  0.00  0.00    +0.000 OA
ATOM      9  O   UNL     1       2.306   2.979  16.914  0.00  0.00    +0.000 OA
ENDROOT
BRANCH   1  15
ATOM     10  C   UNL     1       6.243   3.770  14.246  0.00  0.00    +0.000 C 
ATOM     11  C   UNL     1       5.641   4.619  15.323  0.00  0.00    +0.000 A 
ATOM     12  C   UNL     1       5.532   5.997  15.191  0.00  0.00    +0.000 A 
ATOM     13  C   UNL     1       5.048   6.739  16.267  0.00  0.00    +0.000 A 
ATOM     14  C   UNL     1       4.711   6.091  17.454  0.00  0.00    +0.000 A 
ATOM     15  C   UNL     1       4.854   4.710  17.511  0.00  0.00    +0.000 A 
ATOM     16  N   UNL     1       5.268   3.975  16.450  0.00  0.00    +0.000 NA
ENDBRANCH   1  15
TORSDOF 1
ENDMDL
MODEL 3
REMARK VINA RESULT:      -6.9      0.947      1.871
REMARK  Name = 
REMARK  2 active torsions:
REMARK  status: ('A' for Active; 'I' for Inactive)
REMARK    1  A    between atoms: C_1  and  C_2
REMARK    2  A    between atoms: C_6  and  C_7
REMARK                            x       y       z     vdW  Elec       q    Type
REMARK                         _______ _______ _______ _____ _____    ______ ____
ROOT
ATOM      1  C   UNL     1       3.360   5.014  17.882  0.00  0.00    +0.000 C 
ATOM      2  O   UNL     1       2.820   6.118  17.865  0.00  0.00    +0.000 OA
ATOM      3  N   UNL     1       2.620   3.831  18.188  0.00  0.00    +0.000 N 
ATOM      4  C   UNL     1       1.154   3.815  18.351  0.00  0.00    +0.000 C 
ATOM      5  C   UNL     1       0.872   3.124  19.680  0.00  0.00    +0.000 C 
ATOM      6  C   UNL     1       1.844   1.969  19.803  0.00  0.00    +0.000 C 
ATOM      7  S   UNL     1       3.314   2.468  18.935  0.00  0.00    +0.000 S 
ATOM      8  O   UNL     1       3.575   1.442  17.951  0.00  0.00    +0.000 OA
ATOM      9  O   UNL     1       4.287   2.906  19.911  0.00  0.00    +0.000 OA
ENDROOT
BRANCH   1  15
ATOM     10  C   UNL     1       7.966   5.944  19.051  0.00  0.00    +0.000 C 
ATOM     11  C   UNL     1       7.024   5.284  18.091  0.00  0.00    +0.000 A 
ATOM     12  C   UNL     1       7.470   4.724  16.901  0.00  0.00    +0.000 A 
ATOM     13  C   UNL     1       6.531   4.209  16.008  0.00  0.00    +0.000 A 
ATOM     14  C   UNL     1       5.174   4.290  16.313  0.00  0.00    +0.000 A 
ATOM     15  C   UNL     1       4.807   4.871  17.520  0.00  0.00    +0.000 A 
ATOM     16  N   UNL     1       5.716   5.322  18.420  0.00  0.00    +0.000 NA
ENDBRANCH   1  15
TORSDOF 1
ENDMDL
MODEL 4
REMARK VINA RESULT:      -6.9      1.408      2.387
REMARK  Name = 
REMARK  2 active torsions:
REMARK  status: ('A' for Active; 'I' for Inactive)
REMARK    1  A    between atoms: C_1  and  C_2
REMARK    2  A    between atoms: C_6  and  C_7
REMARK                            x       y       z     vdW  Elec       q    Type
REMARK                         _______ _______ _______ _____ _____    ______ ____
ROOT
ATOM      1  C   UNL     1       4.518   3.241  19.536  0.00  0.00    +0.000 C 
ATOM      2  O   UNL     1       4.961   2.124  19.796  0.00  0.00    +0.000 OA
ATOM      3  N   UNL     1       3.340   3.737  20.172  0.00  0.00    +0.000 N 
ATOM      4  C   UNL     1       2.661   3.035  21.277  0.00  0.00    +0.000 C 
ATOM      5  C   UNL     1       1.191   2.929  20.887  0.00  0.00    +0.000 C 
ATOM      6  C   UNL     1       0.805   4.235  20.226  0.00  0.00    +0.000 C 
ATOM      7  S   UNL     1       2.276   4.836  19.426  0.00  0.00    +0.000 S 
ATOM      8  O   UNL     1       2.502   6.170  19.936  0.00  0.00    +0.000 OA
ATOM      9  O   UNL     1       2.182   4.524  18.018  0.00  0.00    +0.000 OA
ENDROOT
BRANCH   1  15
ATOM     10  C   UNL     1       5.927   4.069  14.979  0.00  0.00    +0.000 C 
ATOM     11  C   UNL     1       5.897   4.566  16.392  0.00  0.00    +0.000 A 
ATOM     12  C   UNL     1       6.611   5.690  16.786  0.00  0.00    +0.000 A 
ATOM     13  C   UNL     1       6.615   6.044  18.134  0.00  0.00    +0.000 A 
ATOM     14  C   UNL     1       5.929   5.254  19.055  0.00  0.00    +0.000 A 
ATOM     15  C   UNL     1       5.244   4.142  18.584  0.00  0.00    +0.000 A 
ATOM     16  N   UNL     1       5.187   3.823  17.267  0.00  0.00    +0.000 NA
ENDBRANCH   1  15
TORSDOF 1
ENDMDL
MODEL 5
REMARK VINA RESULT:      -6.7      1.623      2.945
REMARK  Name = 
REMARK  2 active torsions:
REMARK  status: ('A' for Active; 'I' for Inactive)
REMARK    1  A    between atoms: C_1  and  C_2
REMARK    2  A    between atoms: C_6  and  C_7
REMARK                            x       y       z     vdW  Elec       q    Type
REMARK                         _______ _______ _______ _____ _____    ______ ____
ROOT
ATOM      1  C   UNL     1       4.453   3.022  19.495  0.00  0.00    +0.000 C 
ATOM      2  O   UNL     1       4.827   1.884  19.771  0.00  0.00    +0.000 OA
ATOM      3  N   UNL     1       3.349   3.624  20.173  0.00  0.00    +0.000 N 
ATOM      4  C   UNL     1       2.683   3.010  21.336  0.00  0.00    +0.000 C 
ATOM      5  C   UNL     1       1.190   3.001  21.027  0.00  0.00    +0.000 C 
ATOM      6  C   UNL     1       0.864   4.310  20.340  0.00  0.00    +0.000 C 
ATOM      7  S   UNL     1       2.328   4.775  19.444  0.00  0.00    +0.000 S 
ATOM      8  O   UNL     1       2.678   6.104  19.893  0.00  0.00    +0.000 OA
ATOM      9  O   UNL     1       2.136   4.425  18.054  0.00  0.00    +0.000 OA
ENDROOT
BRANCH   1  15
ATOM     10  C   UNL     1       7.766   6.444  18.628  0.00  0.00    +0.000 C 
ATOM     11  C   UNL     1       6.803   5.455  18.046  0.00  0.00    +0.000 A 
ATOM     12  C   UNL     1       6.529   5.417  16.686  0.00  0.00    +0.000 A 
ATOM     13  C   UNL     1       5.554   4.535  16.222  0.00  0.00    +0.000 A 
ATOM     14  C   UNL     1       4.862   3.735  17.129  0.00  0.00    +0.000 A 
ATOM     15  C   UNL     1       5.189   3.835  18.475  0.00  0.00    +0.000 A 
ATOM     16  N   UNL     1       6.176   4.647  18.928  0.00  0.00    +0.000 NA
ENDBRANCH   1  15
TORSDOF 1
ENDMDL
MODEL 6
REMARK VINA RESULT:      -6.7      2.840      4.632
REMARK  Name = 
REMARK  2 active torsions:
REMARK  status: ('A' for Active; 'I' for Inactive)
REMARK    1  A    between atoms: C_1  and  C_2
REMARK    2  A    between atoms: C_6  and  C_7
REMARK                            x       y       z     vdW  Elec       q    Type
REMARK                         _______ _______ _______ _____ _____    ______ ____
ROOT
ATOM      1  C   UNL     1       3.878   5.331  18.931  0.00  0.00    +0.000 C 
ATOM      2  O   UNL     1       5.092   5.345  18.735  0.00  0.00    +0.000 OA
ATOM      3  N   UNL     1       3.193   4.119  19.251  0.00  0.00    +0.000 N 
ATOM      4  C   UNL     1       3.886   2.846  19.520  0.00  0.00    +0.000 C 
ATOM      5  C   UNL     1       3.232   1.798  18.627  0.00  0.00    +0.000 C 
ATOM      6  C   UNL     1       1.743   2.075  18.623  0.00  0.00    +0.000 C 
ATOM      7  S   UNL     1       1.568   3.833  18.830  0.00  0.00    +0.000 S 
ATOM      8  O   UNL     1       0.716   4.025  19.981  0.00  0.00    +0.000 OA
ATOM      9  O   UNL     1       1.305   4.415  17.533  0.00  0.00    +0.000 OA
ENDROOT
BRANCH   1  15
ATOM     10  C   UNL     1       0.859   8.318  21.256  0.00  0.00    +0.000 C 
ATOM     11  C   UNL     1       1.666   8.063  20.020  0.00  0.00    +0.000 A 
ATOM     12  C   UNL     1       1.561   8.876  18.899  0.00  0.00    +0.000 A 
ATOM     13  C   UNL     1       2.270   8.530  17.749  0.00  0.00    +0.000 A 
ATOM     14  C   UNL     1       3.041   7.370  17.740  0.00  0.00    +0.000 A 
ATOM     15  C   UNL     1       3.090   6.604  18.898  0.00  0.00    +0.000 A 
ATOM     16  N   UNL     1       2.451   6.965  20.039  0.00  0.00    +0.000 NA
ENDBRANCH   1  15
TORSDOF 1
ENDMDL
MODEL 7
REMARK VINA RESULT:      -6.6      1.691      2.141
REMARK  Name = 
REMARK  2 active torsions:
REMARK  status: ('A' for Active; 'I' for Inactive)
REMARK    1  A    between atoms: C_1  and  C_2
REMARK    2  A    between atoms: C_6  and  C_7
REMARK                            x       y       z     vdW  Elec       q    Type
REMARK                         _______ _______ _______ _____ _____    ______ ____
ROOT
ATOM      1  C   UNL     1       2.213   4.148  17.802  0.00  0.00    +0.000 C 
ATOM      2  O   UNL     1       1.108   4.296  17.284  0.00  0.00    +0.000 OA
ATOM      3  N   UNL     1       2.400   3.263  18.908  0.00  0.00    +0.000 N 
ATOM      4  C   UNL     1       1.346   2.360  19.408  0.00  0.00    +0.000 C 
ATOM      5  C   UNL     1       1.247   2.598  20.910  0.00  0.00    +0.000 C 
ATOM      6  C   UNL     1       2.657   2.777  21.433  0.00  0.00    +0.000 C 
ATOM      7  S   UNL     1       3.585   3.510  20.104  0.00  0.00    +0.000 S 
ATOM      8  O   UNL     1       4.717   2.642  19.869  0.00  0.00    +0.000 OA
ATOM      9  O   UNL     1       3.705   4.927  20.368  0.00  0.00    +0.000 OA
ENDROOT
BRANCH   1  15
ATOM     10  C   UNL     1       6.371   3.789  15.347  0.00  0.00    +0.000 C 
ATOM     11  C   UNL     1       5.396   4.693  16.037  0.00  0.00    +0.000 A 
ATOM     12  C   UNL     1       5.673   6.037  16.254  0.00  0.00    +0.000 A 
ATOM     13  C   UNL     1       4.764   6.801  16.984  0.00  0.00    +0.000 A 
ATOM     14  C   UNL     1       3.617   6.200  17.499  0.00  0.00    +0.000 A 
ATOM     15  C   UNL     1       3.413   4.850  17.244  0.00  0.00    +0.000 A 
ATOM     16  N   UNL     1       4.262   4.113  16.486  0.00  0.00    +0.000 NA
ENDBRANCH   1  15
TORSDOF 1
ENDMDL
MODEL 8
REMARK VINA RESULT:      -6.6      1.826      5.138
REMARK  Name = 
REMARK  2 active torsions:
REMARK  status: ('A' for Active; 'I' for Inactive)
REMARK    1  A    between atoms: C_1  and  C_2
REMARK    2  A    between atoms: C_6  and  C_7
REMARK                            x       y       z     vdW  Elec       q    Type
REMARK                         _______ _______ _______ _____ _____    ______ ____
ROOT
ATOM      1  C   UNL     1       3.310   4.016  17.264  0.00  0.00    +0.000 C 
ATOM      2  O   UNL     1       2.647   3.250  16.567  0.00  0.00    +0.000 OA
ATOM      3  N   UNL     1       4.552   4.551  16.803  0.00  0.00    +0.000 N 
ATOM      4  C   UNL     1       5.055   4.358  15.431  0.00  0.00    +0.000 C 
ATOM      5  C   UNL     1       6.481   3.835  15.560  0.00  0.00    +0.000 C 
ATOM      6  C   UNL     1       7.134   4.582  16.704  0.00  0.00    +0.000 C 
ATOM      7  S   UNL     1       5.829   4.966  17.850  0.00  0.00    +0.000 S 
ATOM      8  O   UNL     1       5.865   6.398  18.046  0.00  0.00    +0.000 OA
ATOM      9  O   UNL     1       5.885   4.008  18.933  0.00  0.00    +0.000 OA
ENDROOT
BRANCH   1  15
ATOM     10  C   UNL     1       1.741   2.734  21.661  0.00  0.00    +0.000 C 
ATOM     11  C   UNL     1       2.074   3.856  20.727  0.00  0.00    +0.000 A 
ATOM     12  C   UNL     1       1.786   5.178  21.041  0.00  0.00    +0.000 A 
ATOM     13  C   UNL     1       2.036   6.165  20.089  0.00  0.00    +0.000 A 
ATOM     14  C   UNL     1       2.541   5.805  18.841  0.00  0.00    +0.000 A 
ATOM     15  C   UNL     1       2.797   4.461  18.600  0.00  0.00    +0.000 A 
ATOM     16  N   UNL     1       2.612   3.502  19.540  0.00  0.00    +0.000 NA
ENDBRANCH   1  15
TORSDOF 1
ENDMDL
MODEL 9
REMARK VINA RESULT:      -6.5      1.057      1.885
REMARK  Name = 
REMARK  2 active torsions:
REMARK  status: ('A' for Active; 'I' for Inactive)
REMARK    1  A    between atoms: C_1  and  C_2
REMARK    2  A    between atoms: C_6  and  C_7
REMARK                            x       y       z     vdW  Elec       q    Type
REMARK                         _______ _______ _______ _____ _____    ______ ____
ROOT
ATOM      1  C   UNL     1       3.246   5.490  19.141  0.00  0.00    +0.000 C 
ATOM      2  O   UNL     1       2.858   6.500  19.725  0.00  0.00    +0.000 OA
ATOM      3  N   UNL     1       2.483   4.283  19.162  0.00  0.00    +0.000 N 
ATOM      4  C   UNL     1       1.129   4.193  19.739  0.00  0.00    +0.000 C 
ATOM      5  C   UNL     1       1.144   3.014  20.705  0.00  0.00    +0.000 C 
ATOM      6  C   UNL     1       1.967   1.916  20.063  0.00  0.00    +0.000 C 
ATOM      7  S   UNL     1       3.188   2.737  19.063  0.00  0.00    +0.000 S 
ATOM      8  O   UNL     1       3.043   2.209  17.725  0.00  0.00    +0.000 OA
ATOM      9  O   UNL     1       4.438   2.739  19.791  0.00  0.00    +0.000 OA
ENDROOT
BRANCH   1  15
ATOM     10  C   UNL     1       8.067   5.933  19.132  0.00  0.00    +0.000 C 
ATOM     11  C   UNL     1       6.828   5.696  18.324  0.00  0.00    +0.000 A 
ATOM     12  C   UNL     1       6.858   5.655  16.936  0.00  0.00    +0.000 A 
ATOM     13  C   UNL     1       5.657   5.523  16.242  0.00  0.00    +0.000 A 
ATOM     14  C   UNL     1       4.457   5.463  16.948  0.00  0.00    +0.000 A 
ATOM     15  C   UNL     1       4.508   5.518  18.335  0.00  0.00    +0.000 A 
ATOM     16  N   UNL     1       5.677   5.586  19.021  0.00  0.00    +0.000 NA
ENDBRANCH   1  15
TORSDOF 1
ENDMDL
