MODEL 1
REMARK VINA RESULT:      -7.4      0.000      0.000
REMARK  Name = 
REMARK  10 active torsions:
REMARK  status: ('A' for Active; 'I' for Inactive)
REMARK    1  A    between atoms: C_1  and  C_2
REMARK    2  A    between atoms: C_2  and  C_3
REMARK    3  A    between atoms: C_3  and  C_4
REMARK    4  A    between atoms: C_4  and  O_5
REMARK    5  A    between atoms: O_5  and  C_6
REMARK    6  A    between atoms: C_9  and  C_10
REMARK    7  A    between atoms: C_10  and  N_11
REMARK    8  A    between atoms: C_12  and  O_14
REMARK    9  A    between atoms: O_14  and  C_15
REMARK   10  A    between atoms: C_19  and  C_20
REMARK                            x       y       z     vdW  Elec       q    Type
REMARK                         _______ _______ _______ _____ _____    ______ ____
ROOT
ATOM      1  N   UNL     1       3.044   6.514  18.926  0.00  0.00    +0.000 N 
ATOM      2  C   UNL     1       2.184   7.200  19.737  0.00  0.00    +0.000 C 
ATOM      3  O   UNL     1       1.822   8.355  19.550  0.00  0.00    +0.000 OA
ATOM      4  H   UNL     1       3.383   5.625  19.269  0.00  0.00    +0.000 HD
ENDROOT
BRANCH   1   5
ATOM      5  C   UNL     1       3.742   7.191  17.867  0.00  0.00    +0.000 C 
BRANCH   5   9
ATOM      6  C   UNL     1       5.731   4.450  15.179  0.00  0.00    +0.000 A 
ATOM      7  C   UNL     1       5.777   5.828  14.973  0.00  0.00    +0.000 A 
ATOM      8  C   UNL     1       5.123   6.701  15.842  0.00  0.00    +0.000 A 
ATOM      9  C   UNL     1       4.418   6.213  16.946  0.00  0.00    +0.000 A 
ATOM     10  C   UNL     1       4.348   4.828  17.140  0.00  0.00    +0.000 A 
ATOM     11  C   UNL     1       5.006   3.952  16.264  0.00  0.00    +0.000 A 
BRANCH   6  12
ATOM     12  O   UNL     1       6.357   3.517  14.382  0.00  0.00    +0.000 OA
BRANCH  12  13
ATOM     13  C   UNL     1       6.130   3.697  12.981  0.00  0.00    +0.000 C 
BRANCH  13  14
ATOM     14  C   UNL     1       4.660   3.511  12.625  0.00  0.00    +0.000 C 
BRANCH  14  16
ATOM     15  C   UNL     1       3.426   3.644  10.419  0.00  0.00    +0.000 C 
ATOM     16  C   UNL     1       4.549   2.981  11.193  0.00  0.00    +0.000 C 
ENDBRANCH  14  16
ENDBRANCH  13  14
ENDBRANCH  12  13
ENDBRANCH   6  12
ENDBRANCH   5   9
ENDBRANCH   1   5
BRANCH   2  17
ATOM     17  O   UNL     1       1.868   6.418  20.834  0.00  0.00    +0.000 OA
BRANCH  17  18
ATOM     18  C   UNL     1       1.856   5.034  20.603  0.00  0.00    +0.000 A 
ATOM     19  C   UNL     1       0.637   4.436  20.296  0.00  0.00    +0.000 A 
ATOM     20  C   UNL     1       0.612   3.094  19.911  0.00  0.00    +0.000 A 
ATOM     21  C   UNL     1       1.801   2.363  19.826  0.00  0.00    +0.000 A 
ATOM     22  C   UNL     1       3.032   2.962  20.131  0.00  0.00    +0.000 A 
ATOM     23  C   UNL     1       3.050   4.311  20.513  0.00  0.00    +0.000 A 
BRANCH  22  24
ATOM     24  C   UNL     1       4.334   2.212  20.031  0.00  0.00    +0.000 C 
ATOM     25  F   UNL     1       5.384   2.986  19.641  0.00  0.00    +0.000 F 
ATOM     26  F   UNL     1       4.701   1.657  21.221  0.00  0.00    +0.000 F 
ATOM     27  F   UNL     1       4.277   1.180  19.143  0.00  0.00    +0.000 F 
ENDBRANCH  22  24
ENDBRANCH  17  18
ENDBRANCH   2  17
TORSDOF 9
ENDMDL
MODEL 2
REMARK VINA RESULT:      -7.4      5.472      7.408
REMARK  Name = 
REMARK  10 active torsions:
REMARK  status: ('A' for Active; 'I' for Inactive)
REMARK    1  A    between atoms: C_1  and  C_2
REMARK    2  A    between atoms: C_2  and  C_3
REMARK    3  A    between atoms: C_3  and  C_4
REMARK    4  A    between atoms: C_4  and  O_5
REMARK    5  A    between atoms: O_5  and  C_6
REMARK    6  A    between atoms: C_9  and  C_10
REMARK    7  A    between atoms: C_10  and  N_11
REMARK    8  A    between atoms: C_12  and  O_14
REMARK    9  A    between atoms: O_14  and  C_15
REMARK   10  A    between atoms: C_19  and  C_20
REMARK                            x       y       z     vdW  Elec       q    Type
REMARK                         _______ _______ _______ _____ _____    ______ ____
ROOT
ATOM      1  N   UNL     1       1.637   8.593  18.397  0.00  0.00    +0.000 N 
ATOM      2  C   UNL     1       1.346   9.898  18.682  0.00  0.00    +0.000 C 
ATOM      3  O   UNL     1       1.945  10.862  18.220  0.00  0.00    +0.000 OA
ATOM      4  H   UNL     1       1.175   7.890  18.956  0.00  0.00    +0.000 HD
ENDROOT
BRANCH   1   5
ATOM      5  C   UNL     1       2.823   8.258  17.654  0.00  0.00    +0.000 C 
BRANCH   5   9
ATOM      6  C   UNL     1       4.552   4.498  18.905  0.00  0.00    +0.000 A 
ATOM      7  C   UNL     1       4.875   5.070  17.676  0.00  0.00    +0.000 A 
ATOM      8  C   UNL     1       4.303   6.279  17.279  0.00  0.00    +0.000 A 
ATOM      9  C   UNL     1       3.403   6.949  18.113  0.00  0.00    +0.000 A 
ATOM     10  C   UNL     1       3.056   6.362  19.337  0.00  0.00    +0.000 A 
ATOM     11  C   UNL     1       3.633   5.146  19.733  0.00  0.00    +0.000 A 
BRANCH   6  12
ATOM     12  O   UNL     1       5.078   3.317  19.382  0.00  0.00    +0.000 OA
BRANCH  12  13
ATOM     13  C   UNL     1       4.103   2.304  19.639  0.00  0.00    +0.000 C 
BRANCH  13  14
ATOM     14  C   UNL     1       3.642   1.631  18.352  0.00  0.00    +0.000 C 
BRANCH  14  16
ATOM     15  C   UNL     1       1.403   2.443  19.207  0.00  0.00    +0.000 C 
ATOM     16  C   UNL     1       2.248   2.142  17.984  0.00  0.00    +0.000 C 
ENDBRANCH  14  16
ENDBRANCH  13  14
ENDBRANCH  12  13
ENDBRANCH   6  12
ENDBRANCH   5   9
ENDBRANCH   1   5
BRANCH   2  17
ATOM     17  O   UNL     1       0.342   9.945  19.632  0.00  0.00    +0.000 OA
BRANCH  17  18
ATOM     18  C   UNL     1      -0.868  10.511  19.200  0.00  0.00    +0.000 A 
ATOM     19  C   UNL     1      -1.416  11.537  19.964  0.00  0.00    +0.000 A 
ATOM     20  C   UNL     1      -2.533  12.225  19.485  0.00  0.00    +0.000 A 
ATOM     21  C   UNL     1      -3.088  11.890  18.246  0.00  0.00    +0.000 A 
ATOM     22  C   UNL     1      -2.537  10.859  17.470  0.00  0.00    +0.000 A 
ATOM     23  C   UNL     1      -1.414  10.176  17.957  0.00  0.00    +0.000 A 
BRANCH  22  24
ATOM     24  C   UNL     1      -3.095  10.486  16.123  0.00  0.00    +0.000 C 
ATOM     25  F   UNL     1      -4.455  10.489  16.074  0.00  0.00    +0.000 F 
ATOM     26  F   UNL     1      -2.685  11.337  15.141  0.00  0.00    +0.000 F 
ATOM     27  F   UNL     1      -2.708   9.243  15.721  0.00  0.00    +0.000 F 
ENDBRANCH  22  24
ENDBRANCH  17  18
ENDBRANCH   2  17
TORSDOF 9
ENDMDL
MODEL 3
REMARK VINA RESULT:      -7.4      0.807      1.282
REMARK  Name = 
REMARK  10 active torsions:
REMARK  status: ('A' for Active; 'I' for Inactive)
REMARK    1  A    between atoms: C_1  and  C_2
REMARK    2  A    between atoms: C_2  and  C_3
REMARK    3  A    between atoms: C_3  and  C_4
REMARK    4  A    between atoms: C_4  and  O_5
REMARK    5  A    between atoms: O_5  and  C_6
REMARK    6  A    between atoms: C_9  and  C_10
REMARK    7  A    between atoms: C_10  and  N_11
REMARK    8  A    between atoms: C_12  and  O_14
REMARK    9  A    between atoms: O_14  and  C_15
REMARK   10  A    between atoms: C_19  and  C_20
REMARK                            x       y       z     vdW  Elec       q    Type
REMARK                         _______ _______ _______ _____ _____    ______ ____
ROOT
ATOM      1  N   UNL     1       2.107   6.320  19.046  0.00  0.00    +0.000 N 
ATOM      2  C   UNL     1       1.776   6.711  20.313  0.00  0.00    +0.000 C 
ATOM      3  O   UNL     1       2.037   7.807  20.794  0.00  0.00    +0.000 OA
ATOM      4  H   UNL     1       1.973   5.344  18.820  0.00  0.00    +0.000 HD
ENDROOT
BRANCH   1   5
ATOM      5  C   UNL     1       2.971   7.135  18.235  0.00  0.00    +0.000 C 
BRANCH   5   9
ATOM      6  C   UNL     1       5.705   4.648  15.990  0.00  0.00    +0.000 A 
ATOM      7  C   UNL     1       4.497   4.146  16.471  0.00  0.00    +0.000 A 
ATOM      8  C   UNL     1       3.627   4.956  17.202  0.00  0.00    +0.000 A 
ATOM      9  C   UNL     1       3.944   6.293  17.457  0.00  0.00    +0.000 A 
ATOM     10  C   UNL     1       5.170   6.793  16.998  0.00  0.00    +0.000 A 
ATOM     11  C   UNL     1       6.042   5.976  16.263  0.00  0.00    +0.000 A 
BRANCH   6  12
ATOM     12  O   UNL     1       6.614   3.926  15.249  0.00  0.00    +0.000 OA
BRANCH  12  13
ATOM     13  C   UNL     1       6.701   4.324  13.878  0.00  0.00    +0.000 C 
BRANCH  13  14
ATOM     14  C   UNL     1       6.107   3.271  12.951  0.00  0.00    +0.000 C 
BRANCH  14  16
ATOM     15  C   UNL     1       4.342   3.015  11.155  0.00  0.00    +0.000 C 
ATOM     16  C   UNL     1       4.777   3.780  12.390  0.00  0.00    +0.000 C 
ENDBRANCH  14  16
ENDBRANCH  13  14
ENDBRANCH  12  13
ENDBRANCH   6  12
ENDBRANCH   5   9
ENDBRANCH   1   5
BRANCH   2  17
ATOM     17  O   UNL     1       1.190   5.650  20.980  0.00  0.00    +0.000 OA
BRANCH  17  18
ATOM     18  C   UNL     1       1.474   4.380  20.457  0.00  0.00    +0.000 A 
ATOM     19  C   UNL     1       0.474   3.736  19.733  0.00  0.00    +0.000 A 
ATOM     20  C   UNL     1       0.771   2.543  19.070  0.00  0.00    +0.000 A 
ATOM     21  C   UNL     1       2.061   2.007  19.127  0.00  0.00    +0.000 A 
ATOM     22  C   UNL     1       3.073   2.654  19.852  0.00  0.00    +0.000 A 
ATOM     23  C   UNL     1       2.768   3.853  20.512  0.00  0.00    +0.000 A 
BRANCH  22  24
ATOM     24  C   UNL     1       4.478   2.118  19.919  0.00  0.00    +0.000 C 
ATOM     25  F   UNL     1       5.415   2.973  19.426  0.00  0.00    +0.000 F 
ATOM     26  F   UNL     1       4.863   1.839  21.197  0.00  0.00    +0.000 F 
ATOM     27  F   UNL     1       4.628   0.955  19.225  0.00  0.00    +0.000 F 
ENDBRANCH  22  24
ENDBRANCH  17  18
ENDBRANCH   2  17
TORSDOF 9
ENDMDL
MODEL 4
REMARK VINA RESULT:      -7.4      4.995      6.403
REMARK  Name = 
REMARK  10 active torsions:
REMARK  status: ('A' for Active; 'I' for Inactive)
REMARK    1  A    between atoms: C_1  and  C_2
REMARK    2  A    between atoms: C_2  and  C_3
REMARK    3  A    between atoms: C_3  and  C_4
REMARK    4  A    between atoms: C_4  and  O_5
REMARK    5  A    between atoms: O_5  and  C_6
REMARK    6  A    between atoms: C_9  and  C_10
REMARK    7  A    between atoms: C_10  and  N_11
REMARK    8  A    between atoms: C_12  and  O_14
REMARK    9  A    between atoms: O_14  and  C_15
REMARK   10  A    between atoms: C_19  and  C_20
REMARK                            x       y       z     vdW  Elec       q    Type
REMARK                         _______ _______ _______ _____ _____    ______ ____
ROOT
ATOM      1  N   UNL     1       2.424   8.004  18.275  0.00  0.00    +0.000 N 
ATOM      2  C   UNL     1       1.809   8.814  19.188  0.00  0.00    +0.000 C 
ATOM      3  O   UNL     1       1.456   8.460  20.306  0.00  0.00    +0.000 OA
ATOM      4  H   UNL     1       2.526   8.368  17.338  0.00  0.00    +0.000 HD
ENDROOT
BRANCH   1   5
ATOM      5  C   UNL     1       2.532   6.589  18.513  0.00  0.00    +0.000 C 
BRANCH   5   9
ATOM      6  C   UNL     1       5.771   4.783  16.290  0.00  0.00    +0.000 A 
ATOM      7  C   UNL     1       4.892   4.010  17.047  0.00  0.00    +0.000 A 
ATOM      8  C   UNL     1       3.857   4.605  17.767  0.00  0.00    +0.000 A 
ATOM      9  C   UNL     1       3.671   5.990  17.735  0.00  0.00    +0.000 A 
ATOM     10  C   UNL     1       4.569   6.772  16.997  0.00  0.00    +0.000 A 
ATOM     11  C   UNL     1       5.610   6.170  16.274  0.00  0.00    +0.000 A 
BRANCH   6  12
ATOM     12  O   UNL     1       6.810   4.279  15.539  0.00  0.00    +0.000 OA
BRANCH  12  13
ATOM     13  C   UNL     1       6.762   4.640  14.157  0.00  0.00    +0.000 C 
BRANCH  13  14
ATOM     14  C   UNL     1       5.743   3.801  13.394  0.00  0.00    +0.000 C 
BRANCH  14  16
ATOM     15  C   UNL     1       5.660   2.065  11.555  0.00  0.00    +0.000 C 
ATOM     16  C   UNL     1       6.378   3.284  12.102  0.00  0.00    +0.000 C 
ENDBRANCH  14  16
ENDBRANCH  13  14
ENDBRANCH  12  13
ENDBRANCH   6  12
ENDBRANCH   5   9
ENDBRANCH   1   5
BRANCH   2  17
ATOM     17  O   UNL     1       1.574  10.052  18.616  0.00  0.00    +0.000 OA
BRANCH  17  18
ATOM     18  C   UNL     1       0.266  10.540  18.757  0.00  0.00    +0.000 A 
ATOM     19  C   UNL     1       0.071  11.653  19.569  0.00  0.00    +0.000 A 
ATOM     20  C   UNL     1      -1.188  12.256  19.611  0.00  0.00    +0.000 A 
ATOM     21  C   UNL     1      -2.238  11.750  18.838  0.00  0.00    +0.000 A 
ATOM     22  C   UNL     1      -2.045  10.631  18.015  0.00  0.00    +0.000 A 
ATOM     23  C   UNL     1      -0.777  10.033  17.976  0.00  0.00    +0.000 A 
BRANCH  22  24
ATOM     24  C   UNL     1      -3.146  10.072  17.154  0.00  0.00    +0.000 C 
ATOM     25  F   UNL     1      -3.918   9.146  17.785  0.00  0.00    +0.000 F 
ATOM     26  F   UNL     1      -4.003  11.040  16.721  0.00  0.00    +0.000 F 
ATOM     27  F   UNL     1      -2.675   9.464  16.030  0.00  0.00    +0.000 F 
ENDBRANCH  22  24
ENDBRANCH  17  18
ENDBRANCH   2  17
TORSDOF 9
ENDMDL
MODEL 5
REMARK VINA RESULT:      -7.4      5.507      7.591
REMARK  Name = 
REMARK  10 active torsions:
REMARK  status: ('A' for Active; 'I' for Inactive)
REMARK    1  A    between atoms: C_1  and  C_2
REMARK    2  A    between atoms: C_2  and  C_3
REMARK    3  A    between atoms: C_3  and  C_4
REMARK    4  A    between atoms: C_4  and  O_5
REMARK    5  A    between atoms: O_5  and  C_6
REMARK    6  A    between atoms: C_9  and  C_10
REMARK    7  A    between atoms: C_10  and  N_11
REMARK    8  A    between atoms: C_12  and  O_14
REMARK    9  A    between atoms: O_14  and  C_15
REMARK   10  A    between atoms: C_19  and  C_20
REMARK                            x       y       z     vdW  Elec       q    Type
REMARK                         _______ _______ _______ _____ _____    ______ ____
ROOT
ATOM      1  N   UNL     1       1.529   8.599  18.370  0.00  0.00    +0.000 N 
ATOM      2  C   UNL     1       1.244   9.887  18.726  0.00  0.00    +0.000 C 
ATOM      3  O   UNL     1       1.850  10.873  18.324  0.00  0.00    +0.000 OA
ATOM      4  H   UNL     1       1.059   7.868  18.885  0.00  0.00    +0.000 HD
ENDROOT
BRANCH   1   5
ATOM      5  C   UNL     1       2.717   8.300  17.615  0.00  0.00    +0.000 C 
BRANCH   5   9
ATOM      6  C   UNL     1       4.481   4.612  19.025  0.00  0.00    +0.000 A 
ATOM      7  C   UNL     1       3.505   5.278  19.765  0.00  0.00    +0.000 A 
ATOM      8  C   UNL     1       2.950   6.472  19.304  0.00  0.00    +0.000 A 
ATOM      9  C   UNL     1       3.353   7.019  18.083  0.00  0.00    +0.000 A 
ATOM     10  C   UNL     1       4.352   6.367  17.350  0.00  0.00    +0.000 A 
ATOM     11  C   UNL     1       4.908   5.166  17.817  0.00  0.00    +0.000 A 
BRANCH   6  12
ATOM     12  O   UNL     1       5.071   3.424  19.396  0.00  0.00    +0.000 OA
BRANCH  12  13
ATOM     13  C   UNL     1       4.144   2.400  19.765  0.00  0.00    +0.000 C 
BRANCH  13  14
ATOM     14  C   UNL     1       3.295   1.960  18.578  0.00  0.00    +0.000 C 
BRANCH  14  16
ATOM     15  C   UNL     1       1.600   2.513  20.375  0.00  0.00    +0.000 C 
ATOM     16  C   UNL     1       1.822   1.929  18.993  0.00  0.00    +0.000 C 
ENDBRANCH  14  16
ENDBRANCH  13  14
ENDBRANCH  12  13
ENDBRANCH   6  12
ENDBRANCH   5   9
ENDBRANCH   1   5
BRANCH   2  17
ATOM     17  O   UNL     1       0.233   9.886  19.671  0.00  0.00    +0.000 OA
BRANCH  17  18
ATOM     18  C   UNL     1      -0.972  10.478  19.262  0.00  0.00    +0.000 A 
ATOM     19  C   UNL     1      -1.498  11.498  20.051  0.00  0.00    +0.000 A 
ATOM     20  C   UNL     1      -2.609  12.210  19.596  0.00  0.00    +0.000 A 
ATOM     21  C   UNL     1      -3.182  11.905  18.357  0.00  0.00    +0.000 A 
ATOM     22  C   UNL     1      -2.654  10.881  17.557  0.00  0.00    +0.000 A 
ATOM     23  C   UNL     1      -1.536  10.173  18.019  0.00  0.00    +0.000 A 
BRANCH  22  24
ATOM     24  C   UNL     1      -3.232  10.540  16.210  0.00  0.00    +0.000 C 
ATOM     25  F   UNL     1      -4.558  10.828  16.094  0.00  0.00    +0.000 F 
ATOM     26  F   UNL     1      -2.615  11.215  15.198  0.00  0.00    +0.000 F 
ATOM     27  F   UNL     1      -3.107   9.219  15.904  0.00  0.00    +0.000 F 
ENDBRANCH  22  24
ENDBRANCH  17  18
ENDBRANCH   2  17
TORSDOF 9
ENDMDL
MODEL 6
REMARK VINA RESULT:      -7.3      5.477      7.408
REMARK  Name = 
REMARK  10 active torsions:
REMARK  status: ('A' for Active; 'I' for Inactive)
REMARK    1  A    between atoms: C_1  and  C_2
REMARK    2  A    between atoms: C_2  and  C_3
REMARK    3  A    between atoms: C_3  and  C_4
REMARK    4  A    between atoms: C_4  and  O_5
REMARK    5  A    between atoms: O_5  and  C_6
REMARK    6  A    between atoms: C_9  and  C_10
REMARK    7  A    between atoms: C_10  and  N_11
REMARK    8  A    between atoms: C_12  and  O_14
REMARK    9  A    between atoms: O_14  and  C_15
REMARK   10  A    between atoms: C_19  and  C_20
REMARK                            x       y       z     vdW  Elec       q    Type
REMARK                         _______ _______ _______ _____ _____    ______ ____
ROOT
ATOM      1  N   UNL     1       1.457   8.859  17.915  0.00  0.00    +0.000 N 
ATOM      2  C   UNL     1       1.067  10.049  18.461  0.00  0.00    +0.000 C 
ATOM      3  O   UNL     1       1.797  11.023  18.602  0.00  0.00    +0.000 OA
ATOM      4  H   UNL     1       0.809   8.087  17.994  0.00  0.00    +0.000 HD
ENDROOT
BRANCH   1   5
ATOM      5  C   UNL     1       2.844   8.609  17.629  0.00  0.00    +0.000 C 
BRANCH   5   9
ATOM      6  C   UNL     1       3.975   4.678  19.032  0.00  0.00    +0.000 A 
ATOM      7  C   UNL     1       3.154   5.510  19.791  0.00  0.00    +0.000 A 
ATOM      8  C   UNL     1       2.804   6.779  19.332  0.00  0.00    +0.000 A 
ATOM      9  C   UNL     1       3.259   7.240  18.093  0.00  0.00    +0.000 A 
ATOM     10  C   UNL     1       4.106   6.417  17.340  0.00  0.00    +0.000 A 
ATOM     11  C   UNL     1       4.457   5.140  17.805  0.00  0.00    +0.000 A 
BRANCH   6  12
ATOM     12  O   UNL     1       4.359   3.407  19.400  0.00  0.00    +0.000 OA
BRANCH  12  13
ATOM     13  C   UNL     1       3.270   2.525  19.680  0.00  0.00    +0.000 C 
BRANCH  13  14
ATOM     14  C   UNL     1       2.478   2.196  18.420  0.00  0.00    +0.000 C 
BRANCH  14  16
ATOM     15  C   UNL     1       0.735   3.042  20.049  0.00  0.00    +0.000 C 
ATOM     16  C   UNL     1       0.991   2.454  18.675  0.00  0.00    +0.000 C 
ENDBRANCH  14  16
ENDBRANCH  13  14
ENDBRANCH  12  13
ENDBRANCH   6  12
ENDBRANCH   5   9
ENDBRANCH   1   5
BRANCH   2  17
ATOM     17  O   UNL     1      -0.239   9.944  18.904  0.00  0.00    +0.000 OA
BRANCH  17  18
ATOM     18  C   UNL     1      -0.408   9.996  20.296  0.00  0.00    +0.000 A 
ATOM     19  C   UNL     1       0.264   9.052  21.069  0.00  0.00    +0.000 A 
ATOM     20  C   UNL     1       0.243   9.168  22.460  0.00  0.00    +0.000 A 
ATOM     21  C   UNL     1      -0.441  10.225  23.069  0.00  0.00    +0.000 A 
ATOM     22  C   UNL     1      -1.116  11.180  22.295  0.00  0.00    +0.000 A 
ATOM     23  C   UNL     1      -1.087  11.060  20.899  0.00  0.00    +0.000 A 
BRANCH  22  24
ATOM     24  C   UNL     1      -1.844  12.343  22.915  0.00  0.00    +0.000 C 
ATOM     25  F   UNL     1      -1.036  13.184  23.616  0.00  0.00    +0.000 F 
ATOM     26  F   UNL     1      -2.468  13.117  21.982  0.00  0.00    +0.000 F 
ATOM     27  F   UNL     1      -2.818  11.949  23.782  0.00  0.00    +0.000 F 
ENDBRANCH  22  24
ENDBRANCH  17  18
ENDBRANCH   2  17
TORSDOF 9
ENDMDL
MODEL 7
REMARK VINA RESULT:      -7.2      3.942      7.650
REMARK  Name = 
REMARK  10 active torsions:
REMARK  status: ('A' for Active; 'I' for Inactive)
REMARK    1  A    between atoms: C_1  and  C_2
REMARK    2  A    between atoms: C_2  and  C_3
REMARK    3  A    between atoms: C_3  and  C_4
REMARK    4  A    between atoms: C_4  and  O_5
REMARK    5  A    between atoms: O_5  and  C_6
REMARK    6  A    between atoms: C_9  and  C_10
REMARK    7  A    between atoms: C_10  and  N_11
REMARK    8  A    between atoms: C_12  and  O_14
REMARK    9  A    between atoms: O_14  and  C_15
REMARK   10  A    between atoms: C_19  and  C_20
REMARK                            x       y       z     vdW  Elec       q    Type
REMARK                         _______ _______ _______ _____ _____    ______ ____
ROOT
ATOM      1  N   UNL     1       3.410   4.946  18.412  0.00  0.00    +0.000 N 
ATOM      2  C   UNL     1       4.319   3.932  18.303  0.00  0.00    +0.000 C 
ATOM      3  O   UNL     1       5.087   3.586  19.192  0.00  0.00    +0.000 OA
ATOM      4  H   UNL     1       2.943   5.234  17.563  0.00  0.00    +0.000 HD
ENDROOT
BRANCH   1   5
ATOM      5  C   UNL     1       3.427   5.819  19.556  0.00  0.00    +0.000 C 
BRANCH   5   9
ATOM      6  C   UNL     1       1.217   9.437  18.707  0.00  0.00    +0.000 A 
ATOM      7  C   UNL     1       1.985   8.810  17.727  0.00  0.00    +0.000 A 
ATOM      8  C   UNL     1       2.701   7.648  18.015  0.00  0.00    +0.000 A 
ATOM      9  C   UNL     1       2.653   7.081  19.292  0.00  0.00    +0.000 A 
ATOM     10  C   UNL     1       1.904   7.724  20.286  0.00  0.00    +0.000 A 
ATOM     11  C   UNL     1       1.186   8.892  19.992  0.00  0.00    +0.000 A 
BRANCH   6  12
ATOM     12  O   UNL     1       0.469  10.577  18.507  0.00  0.00    +0.000 OA
BRANCH  12  13
ATOM     13  C   UNL     1      -0.920  10.426  18.811  0.00  0.00    +0.000 C 
BRANCH  13  14
ATOM     14  C   UNL     1      -1.720  11.653  18.392  0.00  0.00    +0.000 C 
BRANCH  14  16
ATOM     15  C   UNL     1      -3.070   9.736  17.439  0.00  0.00    +0.000 C 
ATOM     16  C   UNL     1      -3.062  11.207  17.807  0.00  0.00    +0.000 C 
ENDBRANCH  14  16
ENDBRANCH  13  14
ENDBRANCH  12  13
ENDBRANCH   6  12
ENDBRANCH   5   9
ENDBRANCH   1   5
BRANCH   2  17
ATOM     17  O   UNL     1       4.290   3.429  17.014  0.00  0.00    +0.000 OA
BRANCH  17  18
ATOM     18  C   UNL     1       5.217   3.998  16.127  0.00  0.00    +0.000 A 
ATOM     19  C   UNL     1       6.217   4.807  16.660  0.00  0.00    +0.000 A 
ATOM     20  C   UNL     1       7.242   5.263  15.830  0.00  0.00    +0.000 A 
ATOM     21  C   UNL     1       7.266   4.905  14.478  0.00  0.00    +0.000 A 
ATOM     22  C   UNL     1       6.263   4.087  13.937  0.00  0.00    +0.000 A 
ATOM     23  C   UNL     1       5.239   3.630  14.778  0.00  0.00    +0.000 A 
BRANCH  22  24
ATOM     24  C   UNL     1       6.269   3.664  12.492  0.00  0.00    +0.000 C 
ATOM     25  F   UNL     1       6.709   2.392  12.295  0.00  0.00    +0.000 F 
ATOM     26  F   UNL     1       5.026   3.719  11.934  0.00  0.00    +0.000 F 
ATOM     27  F   UNL     1       7.058   4.459  11.716  0.00  0.00    +0.000 F 
ENDBRANCH  22  24
ENDBRANCH  17  18
ENDBRANCH   2  17
TORSDOF 9
ENDMDL
MODEL 8
REMARK VINA RESULT:      -7.2      3.691      7.780
REMARK  Name = 
REMARK  10 active torsions:
REMARK  status: ('A' for Active; 'I' for Inactive)
REMARK    1  A    between atoms: C_1  and  C_2
REMARK    2  A    between atoms: C_2  and  C_3
REMARK    3  A    between atoms: C_3  and  C_4
REMARK    4  A    between atoms: C_4  and  O_5
REMARK    5  A    between atoms: O_5  and  C_6
REMARK    6  A    between atoms: C_9  and  C_10
REMARK    7  A    between atoms: C_10  and  N_11
REMARK    8  A    between atoms: C_12  and  O_14
REMARK    9  A    between atoms: O_14  and  C_15
REMARK   10  A    between atoms: C_19  and  C_20
REMARK                            x       y       z     vdW  Elec       q    Type
REMARK                         _______ _______ _______ _____ _____    ______ ____
ROOT
ATOM      1  N   UNL     1       3.677   6.896  18.062  0.00  0.00    +0.000 N 
ATOM      2  C   UNL     1       4.534   6.257  17.212  0.00  0.00    +0.000 C 
ATOM      3  O   UNL     1       4.804   6.637  16.079  0.00  0.00    +0.000 OA
ATOM      4  H   UNL     1       3.421   6.404  18.907  0.00  0.00    +0.000 HD
ENDROOT
BRANCH   1   5
ATOM      5  C   UNL     1       2.871   7.992  17.595  0.00  0.00    +0.000 C 
BRANCH   5   9
ATOM      6  C   UNL     1       0.356   9.640  20.703  0.00  0.00    +0.000 A 
ATOM      7  C   UNL     1       0.557  10.314  19.500  0.00  0.00    +0.000 A 
ATOM      8  C   UNL     1       1.378   9.777  18.508  0.00  0.00    +0.000 A 
ATOM      9  C   UNL     1       2.007   8.543  18.696  0.00  0.00    +0.000 A 
ATOM     10  C   UNL     1       1.828   7.875  19.915  0.00  0.00    +0.000 A 
ATOM     11  C   UNL     1       1.002   8.419  20.909  0.00  0.00    +0.000 A 
BRANCH   6  12
ATOM     12  O   UNL     1      -0.447  10.088  21.728  0.00  0.00    +0.000 OA
BRANCH  12  13
ATOM     13  C   UNL     1      -0.863  11.449  21.594  0.00  0.00    +0.000 C 
BRANCH  13  14
ATOM     14  C   UNL     1      -1.217  12.062  22.943  0.00  0.00    +0.000 C 
BRANCH  14  16
ATOM     15  C   UNL     1      -3.203  13.307  23.899  0.00  0.00    +0.000 C 
ATOM     16  C   UNL     1      -2.739  12.107  23.096  0.00  0.00    +0.000 C 
ENDBRANCH  14  16
ENDBRANCH  13  14
ENDBRANCH  12  13
ENDBRANCH   6  12
ENDBRANCH   5   9
ENDBRANCH   1   5
BRANCH   2  17
ATOM     17  O   UNL     1       4.969   5.082  17.798  0.00  0.00    +0.000 OA
BRANCH  17  18
ATOM     18  C   UNL     1       3.955   4.191  18.184  0.00  0.00    +0.000 A 
ATOM     19  C   UNL     1       3.521   3.255  17.250  0.00  0.00    +0.000 A 
ATOM     20  C   UNL     1       2.626   2.259  17.645  0.00  0.00    +0.000 A 
ATOM     21  C   UNL     1       2.178   2.200  18.969  0.00  0.00    +0.000 A 
ATOM     22  C   UNL     1       2.616   3.139  19.915  0.00  0.00    +0.000 A 
ATOM     23  C   UNL     1       3.517   4.133  19.511  0.00  0.00    +0.000 A 
BRANCH  22  24
ATOM     24  C   UNL     1       2.171   3.093  21.352  0.00  0.00    +0.000 C 
ATOM     25  F   UNL     1       2.807   2.144  22.093  0.00  0.00    +0.000 F 
ATOM     26  F   UNL     1       2.386   4.275  21.996  0.00  0.00    +0.000 F 
ATOM     27  F   UNL     1       0.839   2.838  21.481  0.00  0.00    +0.000 F 
ENDBRANCH  22  24
ENDBRANCH  17  18
ENDBRANCH   2  17
TORSDOF 9
ENDMDL
MODEL 9
REMARK VINA RESULT:      -7.2      3.998      5.410
REMARK  Name = 
REMARK  10 active torsions:
REMARK  status: ('A' for Active; 'I' for Inactive)
REMARK    1  A    between atoms: C_1  and  C_2
REMARK    2  A    between atoms: C_2  and  C_3
REMARK    3  A    between atoms: C_3  and  C_4
REMARK    4  A    between atoms: C_4  and  O_5
REMARK    5  A    between atoms: O_5  and  C_6
REMARK    6  A    between atoms: C_9  and  C_10
REMARK    7  A    between atoms: C_10  and  N_11
REMARK    8  A    between atoms: C_12  and  O_14
REMARK    9  A    between atoms: O_14  and  C_15
REMARK   10  A    between atoms: C_19  and  C_20
REMARK                            x       y       z     vdW  Elec       q    Type
REMARK                         _______ _______ _______ _____ _____    ______ ____
ROOT
ATOM      1  N   UNL     1       3.281   5.393  20.255  0.00  0.00    +0.000 N 
ATOM      2  C   UNL     1       1.971   5.680  20.514  0.00  0.00    +0.000 C 
ATOM      3  O   UNL     1       1.032   4.932  20.268  0.00  0.00    +0.000 OA
ATOM      4  H   UNL     1       3.943   6.149  20.362  0.00  0.00    +0.000 HD
ENDROOT
BRANCH   1   5
ATOM      5  C   UNL     1       3.633   4.231  19.483  0.00  0.00    +0.000 C 
BRANCH   5   9
ATOM      6  C   UNL     1       5.559   5.263  15.752  0.00  0.00    +0.000 A 
ATOM      7  C   UNL     1       4.870   4.061  15.903  0.00  0.00    +0.000 A 
ATOM      8  C   UNL     1       4.261   3.735  17.115  0.00  0.00    +0.000 A 
ATOM      9  C   UNL     1       4.318   4.614  18.200  0.00  0.00    +0.000 A 
ATOM     10  C   UNL     1       5.032   5.811  18.059  0.00  0.00    +0.000 A 
ATOM     11  C   UNL     1       5.644   6.135  16.839  0.00  0.00    +0.000 A 
BRANCH   6  12
ATOM     12  O   UNL     1       6.178   5.671  14.591  0.00  0.00    +0.000 OA
BRANCH  12  13
ATOM     13  C   UNL     1       7.104   4.723  14.056  0.00  0.00    +0.000 C 
BRANCH  13  14
ATOM     14  C   UNL     1       6.861   4.479  12.571  0.00  0.00    +0.000 C 
BRANCH  14  16
ATOM     15  C   UNL     1       4.698   3.431  11.779  0.00  0.00    +0.000 C 
ATOM     16  C   UNL     1       6.061   3.186  12.395  0.00  0.00    +0.000 C 
ENDBRANCH  14  16
ENDBRANCH  13  14
ENDBRANCH  12  13
ENDBRANCH   6  12
ENDBRANCH   5   9
ENDBRANCH   1   5
BRANCH   2  17
ATOM     17  O   UNL     1       1.874   6.969  21.008  0.00  0.00    +0.000 OA
BRANCH  17  18
ATOM     18  C   UNL     1       1.699   7.971  20.042  0.00  0.00    +0.000 A 
ATOM     19  C   UNL     1       2.293   7.785  18.797  0.00  0.00    +0.000 A 
ATOM     20  C   UNL     1       2.014   8.684  17.765  0.00  0.00    +0.000 A 
ATOM     21  C   UNL     1       1.141   9.755  17.981  0.00  0.00    +0.000 A 
ATOM     22  C   UNL     1       0.537   9.944  19.233  0.00  0.00    +0.000 A 
ATOM     23  C   UNL     1       0.819   9.035  20.262  0.00  0.00    +0.000 A 
BRANCH  22  24
ATOM     24  C   UNL     1      -0.424  11.073  19.494  0.00  0.00    +0.000 C 
ATOM     25  F   UNL     1      -1.721  10.764  19.219  0.00  0.00    +0.000 F 
ATOM     26  F   UNL     1      -0.406  11.474  20.798  0.00  0.00    +0.000 F 
ATOM     27  F   UNL     1      -0.139  12.185  18.761  0.00  0.00    +0.000 F 
ENDBRANCH  22  24
ENDBRANCH  17  18
ENDBRANCH   2  17
TORSDOF 9
ENDMDL
