MODEL 1
REMARK VINA RESULT:      -7.1      0.000      0.000
REMARK  Name = 
REMARK  5 active torsions:
REMARK  status: ('A' for Active; 'I' for Inactive)
REMARK    1  A    between atoms: C_1  and  C_2
REMARK    2  A    between atoms: C_2  and  O_3
REMARK    3  A    between atoms: O_3  and  C_4
REMARK    4  A    between atoms: C_12  and  C_13
REMARK    5  A    between atoms: N_20  and  C_21
REMARK                            x       y       z     vdW  Elec       q    Type
REMARK                         _______ _______ _______ _____ _____    ______ ____
ROOT
ATOM      1  C   UNL     1       3.442   4.701  19.460  0.00  0.00    +0.000 A 
ATOM      2  C   UNL     1       2.829   5.719  20.200  0.00  0.00    +0.000 A 
ATOM      3  C   UNL     1       2.431   6.890  19.542  0.00  0.00    +0.000 A 
ATOM      4  C   UNL     1       2.688   7.095  18.199  0.00  0.00    +0.000 A 
ATOM      5  C   UNL     1       3.330   6.095  17.451  0.00  0.00    +0.000 A 
ATOM      6  C   UNL     1       3.688   4.899  18.091  0.00  0.00    +0.000 A 
ATOM      7 CL   UNL     1       4.435   3.667  17.131  0.00  0.00    +0.000 Cl
ATOM      8  N   UNL     1       2.230   8.319  17.809  0.00  0.00    +0.000 NA
ATOM      9  C   UNL     1       1.685   8.887  18.878  0.00  0.00    +0.000 A 
ATOM     10  N   UNL     1       1.739   8.012  19.957  0.00  0.00    +0.000 N 
ENDROOT
BRANCH   9  11
ATOM     11  C   UNL     1       1.058  10.218  18.826  0.00  0.00    +0.000 A 
ATOM     12  C   UNL     1      -0.297  10.301  18.461  0.00  0.00    +0.000 A 
ATOM     13  C   UNL     1      -0.954  11.531  18.411  0.00  0.00    +0.000 A 
ATOM     14  C   UNL     1      -0.257  12.688  18.729  0.00  0.00    +0.000 A 
ATOM     15  F   UNL     1      -0.887  13.869  18.708  0.00  0.00    +0.000 F 
ATOM     16  C   UNL     1       1.092  12.638  19.058  0.00  0.00    +0.000 A 
ATOM     17  C   UNL     1       1.755  11.408  19.077  0.00  0.00    +0.000 A 
ENDBRANCH   9  11
BRANCH  10  18
ATOM     18  C   UNL     1       1.120   8.171  21.265  0.00  0.00    +0.000 C 
ATOM     19  C   UNL     1       1.604   9.367  22.095  0.00  0.00    +0.000 C 
ATOM     20  C   UNL     1       0.503   9.579  23.126  0.00  0.00    +0.000 C 
ATOM     21  C   UNL     1      -0.786   9.048  22.506  0.00  0.00    +0.000 C 
ATOM     22  C   UNL     1      -0.402   8.331  21.216  0.00  0.00    +0.000 C 
ENDBRANCH  10  18
BRANCH   1  23
ATOM     23  O   UNL     1       3.804   3.495  20.022  0.00  0.00    +0.000 OA
BRANCH  23  25
ATOM     24  C   UNL     1       2.192   2.608  21.593  0.00  0.00    +0.000 C 
ATOM     25  C   UNL     1       2.751   2.542  20.187  0.00  0.00    +0.000 C 
ENDBRANCH  23  25
ENDBRANCH   1  23
TORSDOF 4
ENDMDL
MODEL 2
REMARK VINA RESULT:      -6.7      3.886      6.187
REMARK  Name = 
REMARK  5 active torsions:
REMARK  status: ('A' for Active; 'I' for Inactive)
REMARK    1  A    between atoms: C_1  and  C_2
REMARK    2  A    between atoms: C_2  and  O_3
REMARK    3  A    between atoms: O_3  and  C_4
REMARK    4  A    between atoms: C_12  and  C_13
REMARK    5  A    between atoms: N_20  and  C_21
REMARK                            x       y       z     vdW  Elec       q    Type
REMARK                         _______ _______ _______ _____ _____    ______ ____
ROOT
ATOM      1  C   UNL     1       6.196   3.883  14.207  0.00  0.00    +0.000 A 
ATOM      2  C   UNL     1       5.224   3.594  15.172  0.00  0.00    +0.000 A 
ATOM      3  C   UNL     1       4.820   4.607  16.052  0.00  0.00    +0.000 A 
ATOM      4  C   UNL     1       5.403   5.861  16.038  0.00  0.00    +0.000 A 
ATOM      5  C   UNL     1       6.402   6.155  15.096  0.00  0.00    +0.000 A 
ATOM      6  C   UNL     1       6.777   5.162  14.179  0.00  0.00    +0.000 A 
ATOM      7 CL   UNL     1       7.977   5.571  13.000  0.00  0.00    +0.000 Cl
ATOM      8  N   UNL     1       4.857   6.649  17.007  0.00  0.00    +0.000 NA
ATOM      9  C   UNL     1       3.939   5.919  17.629  0.00  0.00    +0.000 A 
ATOM     10  N   UNL     1       3.845   4.668  17.030  0.00  0.00    +0.000 N 
ENDROOT
BRANCH   9  11
ATOM     11  C   UNL     1       3.119   6.458  18.727  0.00  0.00    +0.000 A 
ATOM     12  C   UNL     1       2.496   7.705  18.543  0.00  0.00    +0.000 A 
ATOM     13  C   UNL     1       1.691   8.260  19.537  0.00  0.00    +0.000 A 
ATOM     14  C   UNL     1       1.503   7.568  20.725  0.00  0.00    +0.000 A 
ATOM     15  F   UNL     1       0.712   8.084  21.675  0.00  0.00    +0.000 F 
ATOM     16  C   UNL     1       2.135   6.352  20.948  0.00  0.00    +0.000 A 
ATOM     17  C   UNL     1       2.965   5.812  19.962  0.00  0.00    +0.000 A 
ENDBRANCH   9  11
BRANCH  10  18
ATOM     18  C   UNL     1       2.865   3.625  17.294  0.00  0.00    +0.000 C 
ATOM     19  C   UNL     1       3.228   2.627  18.400  0.00  0.00    +0.000 C 
ATOM     20  C   UNL     1       1.896   1.999  18.792  0.00  0.00    +0.000 C 
ATOM     21  C   UNL     1       0.816   3.028  18.473  0.00  0.00    +0.000 C 
ATOM     22  C   UNL     1       1.487   4.157  17.696  0.00  0.00    +0.000 C 
ENDBRANCH  10  18
BRANCH   1  23
ATOM     23  O   UNL     1       6.599   2.960  13.266  0.00  0.00    +0.000 OA
BRANCH  23  25
ATOM     24  C   UNL     1       6.016   1.609  11.346  0.00  0.00    +0.000 C 
ATOM     25  C   UNL     1       5.847   2.938  12.050  0.00  0.00    +0.000 C 
ENDBRANCH  23  25
ENDBRANCH   1  23
TORSDOF 4
ENDMDL
MODEL 3
REMARK VINA RESULT:      -6.7      0.770      1.240
REMARK  Name = 
REMARK  5 active torsions:
REMARK  status: ('A' for Active; 'I' for Inactive)
REMARK    1  A    between atoms: C_1  and  C_2
REMARK    2  A    between atoms: C_2  and  O_3
REMARK    3  A    between atoms: O_3  and  C_4
REMARK    4  A    between atoms: C_12  and  C_13
REMARK    5  A    between atoms: N_20  and  C_21
REMARK                            x       y       z     vdW  Elec       q    Type
REMARK                         _______ _______ _______ _____ _____    ______ ____
ROOT
ATOM      1  C   UNL     1       3.128   5.336  19.346  0.00  0.00    +0.000 A 
ATOM      2  C   UNL     1       2.433   6.314  20.068  0.00  0.00    +0.000 A 
ATOM      3  C   UNL     1       2.136   7.533  19.446  0.00  0.00    +0.000 A 
ATOM      4  C   UNL     1       2.570   7.823  18.165  0.00  0.00    +0.000 A 
ATOM      5  C   UNL     1       3.295   6.864  17.440  0.00  0.00    +0.000 A 
ATOM      6  C   UNL     1       3.554   5.621  18.038  0.00  0.00    +0.000 A 
ATOM      7 CL   UNL     1       4.409   4.443  17.102  0.00  0.00    +0.000 Cl
ATOM      8  N   UNL     1       2.178   9.078  17.804  0.00  0.00    +0.000 NA
ATOM      9  C   UNL     1       1.503   9.584  18.829  0.00  0.00    +0.000 A 
ATOM     10  N   UNL     1       1.406   8.637  19.842  0.00  0.00    +0.000 N 
ENDROOT
BRANCH   9  11
ATOM     11  C   UNL     1       0.901  10.927  18.787  0.00  0.00    +0.000 A 
ATOM     12  C   UNL     1       1.672  12.016  19.232  0.00  0.00    +0.000 A 
ATOM     13  C   UNL     1       1.167  13.316  19.200  0.00  0.00    +0.000 A 
ATOM     14  C   UNL     1      -0.116  13.534  18.719  0.00  0.00    +0.000 A 
ATOM     15  F   UNL     1      -0.599  14.782  18.662  0.00  0.00    +0.000 F 
ATOM     16  C   UNL     1      -0.913  12.473  18.308  0.00  0.00    +0.000 A 
ATOM     17  C   UNL     1      -0.414  11.168  18.369  0.00  0.00    +0.000 A 
ENDBRANCH   9  11
BRANCH  10  18
ATOM     18  C   UNL     1       0.622   8.720  21.066  0.00  0.00    +0.000 C 
ATOM     19  C   UNL     1       1.389   9.133  22.329  0.00  0.00    +0.000 C 
ATOM     20  C   UNL     1       0.306   9.607  23.290  0.00  0.00    +0.000 C 
ATOM     21  C   UNL     1      -0.856  10.098  22.431  0.00  0.00    +0.000 C 
ATOM     22  C   UNL     1      -0.546   9.708  20.989  0.00  0.00    +0.000 C 
ENDBRANCH  10  18
BRANCH   1  23
ATOM     23  O   UNL     1       3.401   4.090  19.867  0.00  0.00    +0.000 OA
BRANCH  23  25
ATOM     24  C   UNL     1       2.115   2.846  21.496  0.00  0.00    +0.000 C 
ATOM     25  C   UNL     1       2.275   3.224  20.039  0.00  0.00    +0.000 C 
ENDBRANCH  23  25
ENDBRANCH   1  23
TORSDOF 4
ENDMDL
MODEL 4
REMARK VINA RESULT:      -6.6      3.928      7.041
REMARK  Name = 
REMARK  5 active torsions:
REMARK  status: ('A' for Active; 'I' for Inactive)
REMARK    1  A    between atoms: C_1  and  C_2
REMARK    2  A    between atoms: C_2  and  O_3
REMARK    3  A    between atoms: O_3  and  C_4
REMARK    4  A    between atoms: C_12  and  C_13
REMARK    5  A    between atoms: N_20  and  C_21
REMARK                            x       y       z     vdW  Elec       q    Type
REMARK                         _______ _______ _______ _____ _____    ______ ____
ROOT
ATOM      1  C   UNL     1       0.435   8.586  20.735  0.00  0.00    +0.000 A 
ATOM      2  C   UNL     1       1.138   7.390  20.544  0.00  0.00    +0.000 A 
ATOM      3  C   UNL     1       2.056   7.304  19.490  0.00  0.00    +0.000 A 
ATOM      4  C   UNL     1       2.236   8.341  18.592  0.00  0.00    +0.000 A 
ATOM      5  C   UNL     1       1.515   9.535  18.752  0.00  0.00    +0.000 A 
ATOM      6  C   UNL     1       0.629   9.648  19.836  0.00  0.00    +0.000 A 
ATOM      7 CL   UNL     1      -0.209  11.149  20.033  0.00  0.00    +0.000 Cl
ATOM      8  N   UNL     1       3.157   7.997  17.648  0.00  0.00    +0.000 NA
ATOM      9  C   UNL     1       3.564   6.766  17.934  0.00  0.00    +0.000 A 
ATOM     10  N   UNL     1       2.949   6.324  19.099  0.00  0.00    +0.000 N 
ENDROOT
BRANCH   9  11
ATOM     11  C   UNL     1       4.588   6.072  17.133  0.00  0.00    +0.000 A 
ATOM     12  C   UNL     1       5.872   6.639  17.060  0.00  0.00    +0.000 A 
ATOM     13  C   UNL     1       6.891   6.021  16.335  0.00  0.00    +0.000 A 
ATOM     14  C   UNL     1       6.629   4.827  15.677  0.00  0.00    +0.000 A 
ATOM     15  F   UNL     1       7.608   4.215  14.999  0.00  0.00    +0.000 F 
ATOM     16  C   UNL     1       5.359   4.264  15.703  0.00  0.00    +0.000 A 
ATOM     17  C   UNL     1       4.333   4.901  16.406  0.00  0.00    +0.000 A 
ENDBRANCH   9  11
BRANCH  10  18
ATOM     18  C   UNL     1       3.227   5.106  19.846  0.00  0.00    +0.000 C 
ATOM     19  C   UNL     1       2.298   3.919  19.564  0.00  0.00    +0.000 C 
ATOM     20  C   UNL     1       3.075   2.706  20.061  0.00  0.00    +0.000 C 
ATOM     21  C   UNL     1       4.555   3.065  19.963  0.00  0.00    +0.000 C 
ATOM     22  C   UNL     1       4.636   4.550  19.624  0.00  0.00    +0.000 C 
ENDBRANCH  10  18
BRANCH   1  23
ATOM     23  O   UNL     1      -0.437   8.770  21.786  0.00  0.00    +0.000 OA
BRANCH  23  25
ATOM     24  C   UNL     1      -0.941  10.597  23.290  0.00  0.00    +0.000 C 
ATOM     25  C   UNL     1       0.063   9.538  22.884  0.00  0.00    +0.000 C 
ENDBRANCH  23  25
ENDBRANCH   1  23
TORSDOF 4
ENDMDL
MODEL 5
REMARK VINA RESULT:      -6.6      0.981      1.080
REMARK  Name = 
REMARK  5 active torsions:
REMARK  status: ('A' for Active; 'I' for Inactive)
REMARK    1  A    between atoms: C_1  and  C_2
REMARK    2  A    between atoms: C_2  and  O_3
REMARK    3  A    between atoms: O_3  and  C_4
REMARK    4  A    between atoms: C_12  and  C_13
REMARK    5  A    between atoms: N_20  and  C_21
REMARK                            x       y       z     vdW  Elec       q    Type
REMARK                         _______ _______ _______ _____ _____    ______ ____
ROOT
ATOM      1  C   UNL     1       2.802   5.499  19.389  0.00  0.00    +0.000 A 
ATOM      2  C   UNL     1       2.133   6.496  20.109  0.00  0.00    +0.000 A 
ATOM      3  C   UNL     1       1.944   7.750  19.514  0.00  0.00    +0.000 A 
ATOM      4  C   UNL     1       2.459   8.050  18.266  0.00  0.00    +0.000 A 
ATOM      5  C   UNL     1       3.159   7.070  17.545  0.00  0.00    +0.000 A 
ATOM      6  C   UNL     1       3.310   5.795  18.113  0.00  0.00    +0.000 A 
ATOM      7 CL   UNL     1       4.137   4.594  17.180  0.00  0.00    +0.000 Cl
ATOM      8  N   UNL     1       2.164   9.338  17.929  0.00  0.00    +0.000 NA
ATOM      9  C   UNL     1       1.471   9.854  18.936  0.00  0.00    +0.000 A 
ATOM     10  N   UNL     1       1.265   8.886  19.912  0.00  0.00    +0.000 N 
ENDROOT
BRANCH   9  11
ATOM     11  C   UNL     1       0.956  11.234  18.910  0.00  0.00    +0.000 A 
ATOM     12  C   UNL     1      -0.316  11.458  18.356  0.00  0.00    +0.000 A 
ATOM     13  C   UNL     1      -0.869  12.739  18.319  0.00  0.00    +0.000 A 
ATOM     14  C   UNL     1      -0.149  13.805  18.839  0.00  0.00    +0.000 A 
ATOM     15  F   UNL     1      -0.682  15.033  18.830  0.00  0.00    +0.000 F 
ATOM     16  C   UNL     1       1.126  13.617  19.359  0.00  0.00    +0.000 A 
ATOM     17  C   UNL     1       1.688  12.338  19.368  0.00  0.00    +0.000 A 
ENDBRANCH   9  11
BRANCH  10  18
ATOM     18  C   UNL     1       0.427   8.981  21.098  0.00  0.00    +0.000 C 
ATOM     19  C   UNL     1       1.168   9.079  22.437  0.00  0.00    +0.000 C 
ATOM     20  C   UNL     1       0.134   9.646  23.401  0.00  0.00    +0.000 C 
ATOM     21  C   UNL     1      -0.847  10.459  22.560  0.00  0.00    +0.000 C 
ATOM     22  C   UNL     1      -0.517  10.186  21.096  0.00  0.00    +0.000 C 
ENDBRANCH  10  18
BRANCH   1  23
ATOM     23  O   UNL     1       2.971   4.222  19.880  0.00  0.00    +0.000 OA
BRANCH  23  25
ATOM     24  C   UNL     1       1.871   2.901  21.583  0.00  0.00    +0.000 C 
ATOM     25  C   UNL     1       1.772   3.512  20.201  0.00  0.00    +0.000 C 
ENDBRANCH  23  25
ENDBRANCH   1  23
TORSDOF 4
ENDMDL
MODEL 6
REMARK VINA RESULT:      -6.5      1.429      1.961
REMARK  Name = 
REMARK  5 active torsions:
REMARK  status: ('A' for Active; 'I' for Inactive)
REMARK    1  A    between atoms: C_1  and  C_2
REMARK    2  A    between atoms: C_2  and  O_3
REMARK    3  A    between atoms: O_3  and  C_4
REMARK    4  A    between atoms: C_12  and  C_13
REMARK    5  A    between atoms: N_20  and  C_21
REMARK                            x       y       z     vdW  Elec       q    Type
REMARK                         _______ _______ _______ _____ _____    ______ ____
ROOT
ATOM      1  C   UNL     1       2.266   6.240  19.760  0.00  0.00    +0.000 A 
ATOM      2  C   UNL     1       1.931   7.413  20.447  0.00  0.00    +0.000 A 
ATOM      3  C   UNL     1       1.759   8.599  19.721  0.00  0.00    +0.000 A 
ATOM      4  C   UNL     1       1.980   8.657  18.357  0.00  0.00    +0.000 A 
ATOM      5  C   UNL     1       2.348   7.496  17.659  0.00  0.00    +0.000 A 
ATOM      6  C   UNL     1       2.473   6.293  18.371  0.00  0.00    +0.000 A 
ATOM      7 CL   UNL     1       2.881   4.869  17.475  0.00  0.00    +0.000 Cl
ATOM      8  N   UNL     1       1.776   9.925  17.897  0.00  0.00    +0.000 NA
ATOM      9  C   UNL     1       1.428  10.665  18.942  0.00  0.00    +0.000 A 
ATOM     10  N   UNL     1       1.350   9.869  20.079  0.00  0.00    +0.000 N 
ENDROOT
BRANCH   9  11
ATOM     11  C   UNL     1       1.102  12.096  18.818  0.00  0.00    +0.000 A 
ATOM     12  C   UNL     1      -0.233  12.454  18.561  0.00  0.00    +0.000 A 
ATOM     13  C   UNL     1      -0.610  13.792  18.450  0.00  0.00    +0.000 A 
ATOM     14  C   UNL     1       0.349  14.783  18.599  0.00  0.00    +0.000 A 
ATOM     15  F   UNL     1      -0.009  16.071  18.519  0.00  0.00    +0.000 F 
ATOM     16  C   UNL     1       1.682  14.457  18.817  0.00  0.00    +0.000 A 
ATOM     17  C   UNL     1       2.062  13.114  18.897  0.00  0.00    +0.000 A 
ENDBRANCH   9  11
BRANCH  10  18
ATOM     18  C   UNL     1       0.855  10.243  21.396  0.00  0.00    +0.000 C 
ATOM     19  C   UNL     1      -0.643  10.562  21.484  0.00  0.00    +0.000 C 
ATOM     20  C   UNL     1      -0.970  10.430  22.966  0.00  0.00    +0.000 C 
ATOM     21  C   UNL     1       0.038   9.444  23.550  0.00  0.00    +0.000 C 
ATOM     22  C   UNL     1       1.082   9.176  22.470  0.00  0.00    +0.000 C 
ENDBRANCH  10  18
BRANCH   1  23
ATOM     23  O   UNL     1       2.390   5.023  20.394  0.00  0.00    +0.000 OA
BRANCH  23  25
ATOM     24  C   UNL     1       1.447   2.990  21.307  0.00  0.00    +0.000 C 
ATOM     25  C   UNL     1       1.177   4.285  20.570  0.00  0.00    +0.000 C 
ENDBRANCH  23  25
ENDBRANCH   1  23
TORSDOF 4
ENDMDL
MODEL 7
REMARK VINA RESULT:      -6.4      1.151      1.875
REMARK  Name = 
REMARK  5 active torsions:
REMARK  status: ('A' for Active; 'I' for Inactive)
REMARK    1  A    between atoms: C_1  and  C_2
REMARK    2  A    between atoms: C_2  and  O_3
REMARK    3  A    between atoms: O_3  and  C_4
REMARK    4  A    between atoms: C_12  and  C_13
REMARK    5  A    between atoms: N_20  and  C_21
REMARK                            x       y       z     vdW  Elec       q    Type
REMARK                         _______ _______ _______ _____ _____    ______ ____
ROOT
ATOM      1  C   UNL     1       2.548   5.857  19.539  0.00  0.00    +0.000 A 
ATOM      2  C   UNL     1       2.026   6.965  20.217  0.00  0.00    +0.000 A 
ATOM      3  C   UNL     1       1.874   8.173  19.526  0.00  0.00    +0.000 A 
ATOM      4  C   UNL     1       2.288   8.321  18.215  0.00  0.00    +0.000 A 
ATOM      5  C   UNL     1       2.842   7.227  17.531  0.00  0.00    +0.000 A 
ATOM      6  C   UNL     1       2.952   5.999  18.201  0.00  0.00    +0.000 A 
ATOM      7 CL   UNL     1       3.596   4.657  17.315  0.00  0.00    +0.000 Cl
ATOM      8  N   UNL     1       2.059   9.595  17.785  0.00  0.00    +0.000 NA
ATOM      9  C   UNL     1       1.505  10.251  18.797  0.00  0.00    +0.000 A 
ATOM     10  N   UNL     1       1.321   9.391  19.874  0.00  0.00    +0.000 N 
ENDROOT
BRANCH   9  11
ATOM     11  C   UNL     1       1.093  11.661  18.687  0.00  0.00    +0.000 A 
ATOM     12  C   UNL     1       2.090  12.651  18.739  0.00  0.00    +0.000 A 
ATOM     13  C   UNL     1       1.767  14.003  18.621  0.00  0.00    +0.000 A 
ATOM     14  C   UNL     1       0.441  14.373  18.448  0.00  0.00    +0.000 A 
ATOM     15  F   UNL     1       0.126  15.667  18.310  0.00  0.00    +0.000 F 
ATOM     16  C   UNL     1      -0.568  13.418  18.430  0.00  0.00    +0.000 A 
ATOM     17  C   UNL     1      -0.244  12.066  18.579  0.00  0.00    +0.000 A 
ENDBRANCH   9  11
BRANCH  10  18
ATOM     18  C   UNL     1       0.610   9.658  21.115  0.00  0.00    +0.000 C 
ATOM     19  C   UNL     1      -0.586   8.745  21.413  0.00  0.00    +0.000 C 
ATOM     20  C   UNL     1      -0.815   8.899  22.911  0.00  0.00    +0.000 C 
ATOM     21  C   UNL     1       0.532   9.277  23.522  0.00  0.00    +0.000 C 
ATOM     22  C   UNL     1       1.487   9.558  22.366  0.00  0.00    +0.000 C 
ENDBRANCH  10  18
BRANCH   1  23
ATOM     23  O   UNL     1       2.668   4.618  20.130  0.00  0.00    +0.000 OA
BRANCH  23  25
ATOM     24  C   UNL     1       1.495   2.928  21.404  0.00  0.00    +0.000 C 
ATOM     25  C   UNL     1       1.472   3.837  20.194  0.00  0.00    +0.000 C 
ENDBRANCH  23  25
ENDBRANCH   1  23
TORSDOF 4
ENDMDL
MODEL 8
REMARK VINA RESULT:      -6.4      3.970      6.944
REMARK  Name = 
REMARK  5 active torsions:
REMARK  status: ('A' for Active; 'I' for Inactive)
REMARK    1  A    between atoms: C_1  and  C_2
REMARK    2  A    between atoms: C_2  and  O_3
REMARK    3  A    between atoms: O_3  and  C_4
REMARK    4  A    between atoms: C_12  and  C_13
REMARK    5  A    between atoms: N_20  and  C_21
REMARK                            x       y       z     vdW  Elec       q    Type
REMARK                         _______ _______ _______ _____ _____    ______ ____
ROOT
ATOM      1  C   UNL     1       0.533  10.211  20.195  0.00  0.00    +0.000 A 
ATOM      2  C   UNL     1       0.876   8.856  20.279  0.00  0.00    +0.000 A 
ATOM      3  C   UNL     1       1.724   8.310  19.308  0.00  0.00    +0.000 A 
ATOM      4  C   UNL     1       2.176   9.053  18.232  0.00  0.00    +0.000 A 
ATOM      5  C   UNL     1       1.814  10.404  18.117  0.00  0.00    +0.000 A 
ATOM      6  C   UNL     1       1.005  10.973  19.113  0.00  0.00    +0.000 A 
ATOM      7 CL   UNL     1       0.616  12.653  18.967  0.00  0.00    +0.000 Cl
ATOM      8  N   UNL     1       2.957   8.285  17.420  0.00  0.00    +0.000 NA
ATOM      9  C   UNL     1       3.011   7.075  17.964  0.00  0.00    +0.000 A 
ATOM     10  N   UNL     1       2.308   7.065  19.163  0.00  0.00    +0.000 N 
ENDROOT
BRANCH   9  11
ATOM     11  C   UNL     1       3.795   5.981  17.368  0.00  0.00    +0.000 A 
ATOM     12  C   UNL     1       5.095   6.264  16.913  0.00  0.00    +0.000 A 
ATOM     13  C   UNL     1       5.896   5.267  16.357  0.00  0.00    +0.000 A 
ATOM     14  C   UNL     1       5.400   3.976  16.253  0.00  0.00    +0.000 A 
ATOM     15  F   UNL     1       6.171   3.008  15.742  0.00  0.00    +0.000 F 
ATOM     16  C   UNL     1       4.106   3.675  16.660  0.00  0.00    +0.000 A 
ATOM     17  C   UNL     1       3.295   4.683  17.190  0.00  0.00    +0.000 A 
ENDBRANCH   9  11
BRANCH  10  18
ATOM     18  C   UNL     1       2.245   5.997  20.150  0.00  0.00    +0.000 C 
ATOM     19  C   UNL     1       1.074   5.018  20.005  0.00  0.00    +0.000 C 
ATOM     20  C   UNL     1       1.509   3.790  20.796  0.00  0.00    +0.000 C 
ATOM     21  C   UNL     1       3.035   3.778  20.780  0.00  0.00    +0.000 C 
ATOM     22  C   UNL     1       3.489   5.105  20.178  0.00  0.00    +0.000 C 
ENDBRANCH  10  18
BRANCH   1  23
ATOM     23  O   UNL     1      -0.245  10.836  21.145  0.00  0.00    +0.000 OA
BRANCH  23  25
ATOM     24  C   UNL     1      -1.340  10.726  23.300  0.00  0.00    +0.000 C 
ATOM     25  C   UNL     1      -0.135  10.325  22.476  0.00  0.00    +0.000 C 
ENDBRANCH  23  25
ENDBRANCH   1  23
TORSDOF 4
ENDMDL
MODEL 9
REMARK VINA RESULT:      -6.3      4.026      6.854
REMARK  Name = 
REMARK  5 active torsions:
REMARK  status: ('A' for Active; 'I' for Inactive)
REMARK    1  A    between atoms: C_1  and  C_2
REMARK    2  A    between atoms: C_2  and  O_3
REMARK    3  A    between atoms: O_3  and  C_4
REMARK    4  A    between atoms: C_12  and  C_13
REMARK    5  A    between atoms: N_20  and  C_21
REMARK                            x       y       z     vdW  Elec       q    Type
REMARK                         _______ _______ _______ _____ _____    ______ ____
ROOT
ATOM      1  C   UNL     1       0.366   9.285  20.133  0.00  0.00    +0.000 A 
ATOM      2  C   UNL     1       0.927   8.010  19.995  0.00  0.00    +0.000 A 
ATOM      3  C   UNL     1       1.965   7.822  19.073  0.00  0.00    +0.000 A 
ATOM      4  C   UNL     1       2.402   8.844  18.249  0.00  0.00    +0.000 A 
ATOM      5  C   UNL     1       1.827  10.120  18.354  0.00  0.00    +0.000 A 
ATOM      6  C   UNL     1       0.820  10.329  19.310  0.00  0.00    +0.000 A 
ATOM      7 CL   UNL     1       0.164  11.925  19.448  0.00  0.00    +0.000 Cl
ATOM      8  N   UNL     1       3.394   8.398  17.427  0.00  0.00    +0.000 NA
ATOM      9  C   UNL     1       3.594   7.118  17.718  0.00  0.00    +0.000 A 
ATOM     10  N   UNL     1       2.769   6.740  18.771  0.00  0.00    +0.000 N 
ENDROOT
BRANCH   9  11
ATOM     11  C   UNL     1       4.621   6.309  17.039  0.00  0.00    +0.000 A 
ATOM     12  C   UNL     1       5.947   6.777  17.044  0.00  0.00    +0.000 A 
ATOM     13  C   UNL     1       6.968   6.048  16.435  0.00  0.00    +0.000 A 
ATOM     14  C   UNL     1       6.668   4.842  15.818  0.00  0.00    +0.000 A 
ATOM     15  F   UNL     1       7.647   4.124  15.253  0.00  0.00    +0.000 F 
ATOM     16  C   UNL     1       5.361   4.374  15.768  0.00  0.00    +0.000 A 
ATOM     17  C   UNL     1       4.335   5.122  16.353  0.00  0.00    +0.000 A 
ENDBRANCH   9  11
BRANCH  10  18
ATOM     18  C   UNL     1       2.779   5.481  19.502  0.00  0.00    +0.000 C 
ATOM     19  C   UNL     1       2.320   5.551  20.964  0.00  0.00    +0.000 C 
ATOM     20  C   UNL     1       1.962   4.112  21.315  0.00  0.00    +0.000 C 
ATOM     21  C   UNL     1       1.565   3.429  20.010  0.00  0.00    +0.000 C 
ATOM     22  C   UNL     1       1.902   4.394  18.877  0.00  0.00    +0.000 C 
ENDBRANCH  10  18
BRANCH   1  23
ATOM     23  O   UNL     1      -0.614   9.564  21.062  0.00  0.00    +0.000 OA
BRANCH  23  25
ATOM     24  C   UNL     1      -0.990  10.790  23.113  0.00  0.00    +0.000 C 
ATOM     25  C   UNL     1      -0.166   9.733  22.410  0.00  0.00    +0.000 C 
ENDBRANCH  23  25
ENDBRANCH   1  23
TORSDOF 4
ENDMDL
