MODEL 1
REMARK VINA RESULT:      -8.5      0.000      0.000
REMARK  Name = 
REMARK  6 active torsions:
REMARK  status: ('A' for Active; 'I' for Inactive)
REMARK    1  A    between atoms: C_5  and  C_6
REMARK    2  A    between atoms: C_6  and  N_7
REMARK    3  A    between atoms: N_7  and  C_8
REMARK    4  A    between atoms: N_16  and  C_17
REMARK    5  A    between atoms: C_17  and  C_18
REMARK    6  A    between atoms: C_18  and  C_20
REMARK                            x       y       z     vdW  Elec       q    Type
REMARK                         _______ _______ _______ _____ _____    ______ ____
ROOT
ATOM      1  C   UNL     1       0.181  10.161  19.725  0.00  0.00    +0.000 A 
ATOM      2  N   UNL     1      -0.064   9.704  20.975  0.00  0.00    +0.000 NA
ATOM      3  C   UNL     1       0.652   8.663  21.447  0.00  0.00    +0.000 A 
ATOM      4  N   UNL     1       1.575   7.928  20.800  0.00  0.00    +0.000 NA
ATOM      5  C   UNL     1       1.748   8.376  19.544  0.00  0.00    +0.000 A 
ATOM      6  C   UNL     1       1.115   9.453  18.956  0.00  0.00    +0.000 A 
ATOM      7  C   UNL     1       1.641   9.490  17.641  0.00  0.00    +0.000 A 
ATOM      8  N   UNL     1       2.548   8.540  17.416  0.00  0.00    +0.000 NA
ATOM      9  N   UNL     1       2.567   7.854  18.579  0.00  0.00    +0.000 N 
ENDROOT
BRANCH   1  10
ATOM     10  N   UNL     1      -0.509  11.300  19.336  0.00  0.00    +0.000 N 
ATOM     11  H   UNL     1      -0.038  12.137  19.665  0.00  0.00    +0.000 HD
BRANCH  10  12
ATOM     12  C   UNL     1      -1.951  11.313  19.396  0.00  0.00    +0.000 C 
BRANCH  12  17
ATOM     13  F   UNL     1      -4.308  10.122  14.428  0.00  0.00    +0.000 F 
ATOM     14  C   UNL     1      -3.732  10.420  15.601  0.00  0.00    +0.000 A 
ATOM     15  C   UNL     1      -2.508   9.851  15.928  0.00  0.00    +0.000 A 
ATOM     16  C   UNL     1      -1.917  10.161  17.151  0.00  0.00    +0.000 A 
ATOM     17  C   UNL     1      -2.549  11.045  18.042  0.00  0.00    +0.000 A 
ATOM     18  C   UNL     1      -3.788  11.603  17.694  0.00  0.00    +0.000 A 
ATOM     19  C   UNL     1      -4.377  11.292  16.470  0.00  0.00    +0.000 A 
ENDBRANCH  12  17
ENDBRANCH  10  12
ENDBRANCH   1  10
BRANCH   9  20
ATOM     20  C   UNL     1       3.423   6.696  18.687  0.00  0.00    +0.000 C 
BRANCH  20  21
ATOM     21  C   UNL     1       2.866   5.435  18.023  0.00  0.00    +0.000 C 
ATOM     22 CL   UNL     1       4.102   4.559  17.056  0.00  0.00    +0.000 Cl
BRANCH  21  23
ATOM     23  C   UNL     1       2.301   4.496  19.070  0.00  0.00    +0.000 A 
ATOM     24  C   UNL     1       1.344   3.536  18.714  0.00  0.00    +0.000 A 
ATOM     25  C   UNL     1       0.782   2.706  19.685  0.00  0.00    +0.000 A 
ATOM     26  C   UNL     1       1.167   2.824  21.020  0.00  0.00    +0.000 A 
ATOM     27  C   UNL     1       2.125   3.764  21.387  0.00  0.00    +0.000 A 
ATOM     28  C   UNL     1       2.694   4.590  20.418  0.00  0.00    +0.000 A 
ENDBRANCH  21  23
ENDBRANCH  20  21
ENDBRANCH   9  20
TORSDOF 6
ENDMDL
MODEL 2
REMARK VINA RESULT:      -8.4      6.035      8.811
REMARK  Name = 
REMARK  6 active torsions:
REMARK  status: ('A' for Active; 'I' for Inactive)
REMARK    1  A    between atoms: C_5  and  C_6
REMARK    2  A    between atoms: C_6  and  N_7
REMARK    3  A    between atoms: N_7  and  C_8
REMARK    4  A    between atoms: N_16  and  C_17
REMARK    5  A    between atoms: C_17  and  C_18
REMARK    6  A    between atoms: C_18  and  C_20
REMARK                            x       y       z     vdW  Elec       q    Type
REMARK                         _______ _______ _______ _____ _____    ______ ____
ROOT
ATOM      1  C   UNL     1       7.716   7.319  17.834  0.00  0.00    +0.000 A 
ATOM      2  N   UNL     1       8.260   6.867  18.987  0.00  0.00    +0.000 NA
ATOM      3  C   UNL     1       7.863   5.676  19.480  0.00  0.00    +0.000 A 
ATOM      4  N   UNL     1       6.905   4.858  19.006  0.00  0.00    +0.000 NA
ATOM      5  C   UNL     1       6.347   5.370  17.894  0.00  0.00    +0.000 A 
ATOM      6  C   UNL     1       6.691   6.551  17.265  0.00  0.00    +0.000 A 
ATOM      7  C   UNL     1       5.807   6.626  16.161  0.00  0.00    +0.000 A 
ATOM      8  N   UNL     1       4.991   5.576  16.074  0.00  0.00    +0.000 NA
ATOM      9  N   UNL     1       5.316   4.845  17.162  0.00  0.00    +0.000 N 
ENDROOT
BRANCH   1  10
ATOM     10  N   UNL     1       8.241   8.496  17.322  0.00  0.00    +0.000 N 
ATOM     11  H   UNL     1       9.216   8.374  17.066  0.00  0.00    +0.000 HD
BRANCH  10  12
ATOM     12  C   UNL     1       7.894   9.756  17.934  0.00  0.00    +0.000 C 
BRANCH  12  17
ATOM     13  F   UNL     1      12.316  12.476  20.104  0.00  0.00    +0.000 F 
ATOM     14  C   UNL     1      11.277  11.809  19.582  0.00  0.00    +0.000 A 
ATOM     15  C   UNL     1      11.138  11.725  18.203  0.00  0.00    +0.000 A 
ATOM     16  C   UNL     1      10.053  11.036  17.667  0.00  0.00    +0.000 A 
ATOM     17  C   UNL     1       9.110  10.427  18.513  0.00  0.00    +0.000 A 
ATOM     18  C   UNL     1       9.265  10.531  19.903  0.00  0.00    +0.000 A 
ATOM     19  C   UNL     1      10.352  11.220  20.437  0.00  0.00    +0.000 A 
ENDBRANCH  12  17
ENDBRANCH  10  12
ENDBRANCH   1  10
BRANCH   9  20
ATOM     20  C   UNL     1       4.584   3.629  17.425  0.00  0.00    +0.000 C 
BRANCH  20  21
ATOM     21  C   UNL     1       3.062   3.791  17.402  0.00  0.00    +0.000 C 
ATOM     22 CL   UNL     1       2.197   2.224  17.560  0.00  0.00    +0.000 Cl
BRANCH  21  23
ATOM     23  C   UNL     1       2.616   4.716  18.518  0.00  0.00    +0.000 A 
ATOM     24  C   UNL     1       2.581   6.102  18.313  0.00  0.00    +0.000 A 
ATOM     25  C   UNL     1       2.223   6.960  19.354  0.00  0.00    +0.000 A 
ATOM     26  C   UNL     1       1.898   6.447  20.608  0.00  0.00    +0.000 A 
ATOM     27  C   UNL     1       1.916   5.072  20.823  0.00  0.00    +0.000 A 
ATOM     28  C   UNL     1       2.266   4.211  19.783  0.00  0.00    +0.000 A 
ENDBRANCH  21  23
ENDBRANCH  20  21
ENDBRANCH   9  20
TORSDOF 6
ENDMDL
MODEL 3
REMARK VINA RESULT:      -8.2      4.247      8.453
REMARK  Name = 
REMARK  6 active torsions:
REMARK  status: ('A' for Active; 'I' for Inactive)
REMARK    1  A    between atoms: C_5  and  C_6
REMARK    2  A    between atoms: C_6  and  N_7
REMARK    3  A    between atoms: N_7  and  C_8
REMARK    4  A    between atoms: N_16  and  C_17
REMARK    5  A    between atoms: C_17  and  C_18
REMARK    6  A    between atoms: C_18  and  C_20
REMARK                            x       y       z     vdW  Elec       q    Type
REMARK                         _______ _______ _______ _____ _____    ______ ____
ROOT
ATOM      1  C   UNL     1       1.356   8.595  20.497  0.00  0.00    +0.000 A 
ATOM      2  N   UNL     1       1.460   9.042  19.224  0.00  0.00    +0.000 NA
ATOM      3  C   UNL     1       1.022  10.281  18.924  0.00  0.00    +0.000 A 
ATOM      4  N   UNL     1       0.402  11.162  19.731  0.00  0.00    +0.000 NA
ATOM      5  C   UNL     1       0.265  10.659  20.971  0.00  0.00    +0.000 A 
ATOM      6  C   UNL     1       0.706   9.429  21.417  0.00  0.00    +0.000 A 
ATOM      7  C   UNL     1       0.308   9.390  22.776  0.00  0.00    +0.000 A 
ATOM      8  N   UNL     1      -0.307  10.503  23.171  0.00  0.00    +0.000 NA
ATOM      9  N   UNL     1      -0.353  11.245  22.043  0.00  0.00    +0.000 N 
ENDROOT
BRANCH   1  10
ATOM     10  N   UNL     1       1.920   7.357  20.766  0.00  0.00    +0.000 N 
ATOM     11  H   UNL     1       2.341   7.346  21.690  0.00  0.00    +0.000 HD
BRANCH  10  12
ATOM     12  C   UNL     1       2.642   6.662  19.727  0.00  0.00    +0.000 C 
BRANCH  12  17
ATOM     13  F   UNL     1       0.462   1.591  18.634  0.00  0.00    +0.000 F 
ATOM     14  C   UNL     1       0.963   2.810  18.885  0.00  0.00    +0.000 A 
ATOM     15  C   UNL     1       1.555   3.532  17.858  0.00  0.00    +0.000 A 
ATOM     16  C   UNL     1       2.078   4.795  18.125  0.00  0.00    +0.000 A 
ATOM     17  C   UNL     1       2.003   5.336  19.421  0.00  0.00    +0.000 A 
ATOM     18  C   UNL     1       1.406   4.585  20.445  0.00  0.00    +0.000 A 
ATOM     19  C   UNL     1       0.883   3.322  20.174  0.00  0.00    +0.000 A 
ENDBRANCH  12  17
ENDBRANCH  10  12
ENDBRANCH   1  10
BRANCH   9  20
ATOM     20  C   UNL     1      -1.008  12.530  22.084  0.00  0.00    +0.000 C 
BRANCH  20  21
ATOM     21  C   UNL     1      -1.763  12.812  23.384  0.00  0.00    +0.000 C 
ATOM     22 CL   UNL     1      -1.315  14.392  24.116  0.00  0.00    +0.000 Cl
BRANCH  21  23
ATOM     23  C   UNL     1      -3.260  12.789  23.138  0.00  0.00    +0.000 A 
ATOM     24  C   UNL     1      -3.758  12.688  21.831  0.00  0.00    +0.000 A 
ATOM     25  C   UNL     1      -5.133  12.721  21.596  0.00  0.00    +0.000 A 
ATOM     26  C   UNL     1      -6.025  12.857  22.658  0.00  0.00    +0.000 A 
ATOM     27  C   UNL     1      -5.546  12.946  23.962  0.00  0.00    +0.000 A 
ATOM     28  C   UNL     1      -4.173  12.906  24.201  0.00  0.00    +0.000 A 
ENDBRANCH  21  23
ENDBRANCH  20  21
ENDBRANCH   9  20
TORSDOF 6
ENDMDL
MODEL 4
REMARK VINA RESULT:      -8.2      0.701      1.302
REMARK  Name = 
REMARK  6 active torsions:
REMARK  status: ('A' for Active; 'I' for Inactive)
REMARK    1  A    between atoms: C_5  and  C_6
REMARK    2  A    between atoms: C_6  and  N_7
REMARK    3  A    between atoms: N_7  and  C_8
REMARK    4  A    between atoms: N_16  and  C_17
REMARK    5  A    between atoms: C_17  and  C_18
REMARK    6  A    between atoms: C_18  and  C_20
REMARK                            x       y       z     vdW  Elec       q    Type
REMARK                         _______ _______ _______ _____ _____    ______ ____
ROOT
ATOM      1  C   UNL     1       0.022  10.352  19.817  0.00  0.00    +0.000 A 
ATOM      2  N   UNL     1      -0.299   9.932  21.063  0.00  0.00    +0.000 NA
ATOM      3  C   UNL     1       0.359   8.881  21.592  0.00  0.00    +0.000 A 
ATOM      4  N   UNL     1       1.290   8.103  21.009  0.00  0.00    +0.000 NA
ATOM      5  C   UNL     1       1.538   8.515  19.753  0.00  0.00    +0.000 A 
ATOM      6  C   UNL     1       0.969   9.598  19.111  0.00  0.00    +0.000 A 
ATOM      7  C   UNL     1       1.560   9.587  17.823  0.00  0.00    +0.000 A 
ATOM      8  N   UNL     1       2.446   8.605  17.665  0.00  0.00    +0.000 NA
ATOM      9  N   UNL     1       2.386   7.946  18.842  0.00  0.00    +0.000 N 
ENDROOT
BRANCH   1  10
ATOM     10  N   UNL     1      -0.612  11.502  19.369  0.00  0.00    +0.000 N 
ATOM     11  H   UNL     1      -0.097  12.330  19.651  0.00  0.00    +0.000 HD
BRANCH  10  12
ATOM     12  C   UNL     1      -2.051  11.592  19.432  0.00  0.00    +0.000 C 
BRANCH  12  17
ATOM     13  F   UNL     1      -4.275  10.142  14.471  0.00  0.00    +0.000 F 
ATOM     14  C   UNL     1      -3.760  10.472  15.664  0.00  0.00    +0.000 A 
ATOM     15  C   UNL     1      -4.453  11.344  16.493  0.00  0.00    +0.000 A 
ATOM     16  C   UNL     1      -3.911  11.688  17.729  0.00  0.00    +0.000 A 
ATOM     17  C   UNL     1      -2.675  11.154  18.136  0.00  0.00    +0.000 A 
ATOM     18  C   UNL     1      -1.989  10.281  17.279  0.00  0.00    +0.000 A 
ATOM     19  C   UNL     1      -2.534   9.938  16.044  0.00  0.00    +0.000 A 
ENDBRANCH  12  17
ENDBRANCH  10  12
ENDBRANCH   1  10
BRANCH   9  20
ATOM     20  C   UNL     1       3.199   6.766  19.018  0.00  0.00    +0.000 C 
BRANCH  20  21
ATOM     21  C   UNL     1       3.130   5.773  17.855  0.00  0.00    +0.000 C 
ATOM     22 CL   UNL     1       4.747   5.412  17.157  0.00  0.00    +0.000 Cl
BRANCH  21  23
ATOM     23  C   UNL     1       2.487   4.477  18.308  0.00  0.00    +0.000 A 
ATOM     24  C   UNL     1       2.742   3.284  17.618  0.00  0.00    +0.000 A 
ATOM     25  C   UNL     1       2.110   2.100  17.998  0.00  0.00    +0.000 A 
ATOM     26  C   UNL     1       1.217   2.091  19.069  0.00  0.00    +0.000 A 
ATOM     27  C   UNL     1       0.963   3.265  19.772  0.00  0.00    +0.000 A 
ATOM     28  C   UNL     1       1.599   4.449  19.399  0.00  0.00    +0.000 A 
ENDBRANCH  21  23
ENDBRANCH  20  21
ENDBRANCH   9  20
TORSDOF 6
ENDMDL
MODEL 5
REMARK VINA RESULT:      -8.1      4.059      6.119
REMARK  Name = 
REMARK  6 active torsions:
REMARK  status: ('A' for Active; 'I' for Inactive)
REMARK    1  A    between atoms: C_5  and  C_6
REMARK    2  A    between atoms: C_6  and  N_7
REMARK    3  A    between atoms: N_7  and  C_8
REMARK    4  A    between atoms: N_16  and  C_17
REMARK    5  A    between atoms: C_17  and  C_18
REMARK    6  A    between atoms: C_18  and  C_20
REMARK                            x       y       z     vdW  Elec       q    Type
REMARK                         _______ _______ _______ _____ _____    ______ ____
ROOT
ATOM      1  C   UNL     1       2.318   6.544  20.112  0.00  0.00    +0.000 A 
ATOM      2  N   UNL     1       2.062   5.327  20.646  0.00  0.00    +0.000 NA
ATOM      3  C   UNL     1       2.603   4.231  20.076  0.00  0.00    +0.000 A 
ATOM      4  N   UNL     1       3.343   4.157  18.954  0.00  0.00    +0.000 NA
ATOM      5  C   UNL     1       3.526   5.378  18.421  0.00  0.00    +0.000 A 
ATOM      6  C   UNL     1       3.066   6.578  18.927  0.00  0.00    +0.000 A 
ATOM      7  C   UNL     1       3.519   7.544  17.995  0.00  0.00    +0.000 A 
ATOM      8  N   UNL     1       4.227   7.015  16.998  0.00  0.00    +0.000 NA
ATOM      9  N   UNL     1       4.184   5.691  17.262  0.00  0.00    +0.000 N 
ENDROOT
BRANCH   1  10
ATOM     10  N   UNL     1       1.824   7.640  20.804  0.00  0.00    +0.000 N 
ATOM     11  H   UNL     1       1.386   7.350  21.673  0.00  0.00    +0.000 HD
BRANCH  10  12
ATOM     12  C   UNL     1       1.167   8.701  20.080  0.00  0.00    +0.000 C 
BRANCH  12  17
ATOM     13  F   UNL     1      -1.921  11.915  23.514  0.00  0.00    +0.000 F 
ATOM     14  C   UNL     1      -1.167  11.164  22.698  0.00  0.00    +0.000 A 
ATOM     15  C   UNL     1      -0.989  11.554  21.378  0.00  0.00    +0.000 A 
ATOM     16  C   UNL     1      -0.210  10.768  20.533  0.00  0.00    +0.000 A 
ATOM     17  C   UNL     1       0.396   9.593  21.014  0.00  0.00    +0.000 A 
ATOM     18  C   UNL     1       0.196   9.214  22.350  0.00  0.00    +0.000 A 
ATOM     19  C   UNL     1      -0.584  10.004  23.193  0.00  0.00    +0.000 A 
ENDBRANCH  12  17
ENDBRANCH  10  12
ENDBRANCH   1  10
BRANCH   9  20
ATOM     20  C   UNL     1       4.823   4.780  16.342  0.00  0.00    +0.000 C 
BRANCH  20  21
ATOM     21  C   UNL     1       6.248   5.175  15.950  0.00  0.00    +0.000 C 
ATOM     22 CL   UNL     1       7.489   4.465  17.039  0.00  0.00    +0.000 Cl
BRANCH  21  23
ATOM     23  C   UNL     1       6.538   4.745  14.525  0.00  0.00    +0.000 A 
ATOM     24  C   UNL     1       7.571   5.356  13.800  0.00  0.00    +0.000 A 
ATOM     25  C   UNL     1       7.806   5.001  12.471  0.00  0.00    +0.000 A 
ATOM     26  C   UNL     1       7.015   4.036  11.850  0.00  0.00    +0.000 A 
ATOM     27  C   UNL     1       5.993   3.413  12.560  0.00  0.00    +0.000 A 
ATOM     28  C   UNL     1       5.760   3.759  13.890  0.00  0.00    +0.000 A 
ENDBRANCH  21  23
ENDBRANCH  20  21
ENDBRANCH   9  20
TORSDOF 6
ENDMDL
MODEL 6
REMARK VINA RESULT:      -8.0      4.057      8.465
REMARK  Name = 
REMARK  6 active torsions:
REMARK  status: ('A' for Active; 'I' for Inactive)
REMARK    1  A    between atoms: C_5  and  C_6
REMARK    2  A    between atoms: C_6  and  N_7
REMARK    3  A    between atoms: N_7  and  C_8
REMARK    4  A    between atoms: N_16  and  C_17
REMARK    5  A    between atoms: C_17  and  C_18
REMARK    6  A    between atoms: C_18  and  C_20
REMARK                            x       y       z     vdW  Elec       q    Type
REMARK                         _______ _______ _______ _____ _____    ______ ____
ROOT
ATOM      1  C   UNL     1       1.196   8.771  20.564  0.00  0.00    +0.000 A 
ATOM      2  N   UNL     1       1.324   9.255  19.306  0.00  0.00    +0.000 NA
ATOM      3  C   UNL     1       0.897  10.505  19.036  0.00  0.00    +0.000 A 
ATOM      4  N   UNL     1       0.267  11.365  19.857  0.00  0.00    +0.000 NA
ATOM      5  C   UNL     1       0.105  10.826  21.079  0.00  0.00    +0.000 A 
ATOM      6  C   UNL     1       0.533   9.581  21.497  0.00  0.00    +0.000 A 
ATOM      7  C   UNL     1       0.110   9.503  22.846  0.00  0.00    +0.000 A 
ATOM      8  N   UNL     1      -0.507  10.608  23.264  0.00  0.00    +0.000 NA
ATOM      9  N   UNL     1      -0.529  11.382  22.157  0.00  0.00    +0.000 N 
ENDROOT
BRANCH   1  10
ATOM     10  N   UNL     1       1.749   7.523  20.806  0.00  0.00    +0.000 N 
ATOM     11  H   UNL     1       2.098   7.461  21.757  0.00  0.00    +0.000 HD
BRANCH  10  12
ATOM     12  C   UNL     1       2.555   6.892  19.788  0.00  0.00    +0.000 C 
BRANCH  12  17
ATOM     13  F   UNL     1       0.507   1.776  18.654  0.00  0.00    +0.000 F 
ATOM     14  C   UNL     1       1.014   2.984  18.934  0.00  0.00    +0.000 A 
ATOM     15  C   UNL     1       0.927   3.482  20.227  0.00  0.00    +0.000 A 
ATOM     16  C   UNL     1       1.450   4.741  20.511  0.00  0.00    +0.000 A 
ATOM     17  C   UNL     1       2.066   5.499  19.500  0.00  0.00    +0.000 A 
ATOM     18  C   UNL     1       2.136   4.980  18.198  0.00  0.00    +0.000 A 
ATOM     19  C   UNL     1       1.612   3.720  17.917  0.00  0.00    +0.000 A 
ENDBRANCH  12  17
ENDBRANCH  10  12
ENDBRANCH   1  10
BRANCH   9  20
ATOM     20  C   UNL     1      -1.179  12.670  22.225  0.00  0.00    +0.000 C 
BRANCH  20  21
ATOM     21  C   UNL     1      -2.439  12.695  23.092  0.00  0.00    +0.000 C 
ATOM     22 CL   UNL     1      -2.456  14.072  24.248  0.00  0.00    +0.000 Cl
BRANCH  21  23
ATOM     23  C   UNL     1      -3.676  12.769  22.218  0.00  0.00    +0.000 A 
ATOM     24  C   UNL     1      -4.947  12.868  22.801  0.00  0.00    +0.000 A 
ATOM     25  C   UNL     1      -6.091  12.882  22.002  0.00  0.00    +0.000 A 
ATOM     26  C   UNL     1      -5.981  12.796  20.615  0.00  0.00    +0.000 A 
ATOM     27  C   UNL     1      -4.726  12.709  20.021  0.00  0.00    +0.000 A 
ATOM     28  C   UNL     1      -3.580  12.703  20.816  0.00  0.00    +0.000 A 
ENDBRANCH  21  23
ENDBRANCH  20  21
ENDBRANCH   9  20
TORSDOF 6
ENDMDL
MODEL 7
REMARK VINA RESULT:      -8.0      4.139      8.276
REMARK  Name = 
REMARK  6 active torsions:
REMARK  status: ('A' for Active; 'I' for Inactive)
REMARK    1  A    between atoms: C_5  and  C_6
REMARK    2  A    between atoms: C_6  and  N_7
REMARK    3  A    between atoms: N_7  and  C_8
REMARK    4  A    between atoms: N_16  and  C_17
REMARK    5  A    between atoms: C_17  and  C_18
REMARK    6  A    between atoms: C_18  and  C_20
REMARK                            x       y       z     vdW  Elec       q    Type
REMARK                         _______ _______ _______ _____ _____    ______ ____
ROOT
ATOM      1  C   UNL     1       3.922   4.768  17.673  0.00  0.00    +0.000 A 
ATOM      2  N   UNL     1       3.631   3.755  18.522  0.00  0.00    +0.000 NA
ATOM      3  C   UNL     1       2.807   3.987  19.564  0.00  0.00    +0.000 A 
ATOM      4  N   UNL     1       2.255   5.154  19.944  0.00  0.00    +0.000 NA
ATOM      5  C   UNL     1       2.614   6.146  19.111  0.00  0.00    +0.000 A 
ATOM      6  C   UNL     1       3.412   6.035  17.988  0.00  0.00    +0.000 A 
ATOM      7  C   UNL     1       3.483   7.356  17.482  0.00  0.00    +0.000 A 
ATOM      8  N   UNL     1       2.775   8.228  18.197  0.00  0.00    +0.000 NA
ATOM      9  N   UNL     1       2.286   7.472  19.204  0.00  0.00    +0.000 N 
ENDROOT
BRANCH   1  10
ATOM     10  N   UNL     1       4.686   4.444  16.562  0.00  0.00    +0.000 N 
ATOM     11  H   UNL     1       4.158   3.865  15.917  0.00  0.00    +0.000 HD
BRANCH  10  12
ATOM     12  C   UNL     1       6.079   4.103  16.731  0.00  0.00    +0.000 C 
BRANCH  12  17
ATOM     13  F   UNL     1       8.767   8.519  18.952  0.00  0.00    +0.000 F 
ATOM     14  C   UNL     1       8.145   7.463  18.409  0.00  0.00    +0.000 A 
ATOM     15  C   UNL     1       7.557   7.583  17.157  0.00  0.00    +0.000 A 
ATOM     16  C   UNL     1       6.907   6.484  16.600  0.00  0.00    +0.000 A 
ATOM     17  C   UNL     1       6.852   5.263  17.295  0.00  0.00    +0.000 A 
ATOM     18  C   UNL     1       7.447   5.167  18.562  0.00  0.00    +0.000 A 
ATOM     19  C   UNL     1       8.097   6.268  19.117  0.00  0.00    +0.000 A 
ENDBRANCH  12  17
ENDBRANCH  10  12
ENDBRANCH   1  10
BRANCH   9  20
ATOM     20  C   UNL     1       1.489   8.109  20.225  0.00  0.00    +0.000 C 
BRANCH  20  21
ATOM     21  C   UNL     1       1.085   9.549  19.904  0.00  0.00    +0.000 C 
ATOM     22 CL   UNL     1       0.228   9.693  18.330  0.00  0.00    +0.000 Cl
BRANCH  21  23
ATOM     23  C   UNL     1       0.198  10.103  21.002  0.00  0.00    +0.000 A 
ATOM     24  C   UNL     1      -0.506  11.299  20.804  0.00  0.00    +0.000 A 
ATOM     25  C   UNL     1      -1.280  11.841  21.830  0.00  0.00    +0.000 A 
ATOM     26  C   UNL     1      -1.361  11.198  23.064  0.00  0.00    +0.000 A 
ATOM     27  C   UNL     1      -0.678  10.003  23.272  0.00  0.00    +0.000 A 
ATOM     28  C   UNL     1       0.091   9.455  22.246  0.00  0.00    +0.000 A 
ENDBRANCH  21  23
ENDBRANCH  20  21
ENDBRANCH   9  20
TORSDOF 6
ENDMDL
MODEL 8
REMARK VINA RESULT:      -7.9      3.903      8.166
REMARK  Name = 
REMARK  6 active torsions:
REMARK  status: ('A' for Active; 'I' for Inactive)
REMARK    1  A    between atoms: C_5  and  C_6
REMARK    2  A    between atoms: C_6  and  N_7
REMARK    3  A    between atoms: N_7  and  C_8
REMARK    4  A    between atoms: N_16  and  C_17
REMARK    5  A    between atoms: C_17  and  C_18
REMARK    6  A    between atoms: C_18  and  C_20
REMARK                            x       y       z     vdW  Elec       q    Type
REMARK                         _______ _______ _______ _____ _____    ______ ____
ROOT
ATOM      1  C   UNL     1       2.890   4.819  18.382  0.00  0.00    +0.000 A 
ATOM      2  N   UNL     1       2.741   3.887  19.351  0.00  0.00    +0.000 NA
ATOM      3  C   UNL     1       2.232   4.255  20.544  0.00  0.00    +0.000 A 
ATOM      4  N   UNL     1       1.894   5.490  20.960  0.00  0.00    +0.000 NA
ATOM      5  C   UNL     1       2.112   6.396  19.990  0.00  0.00    +0.000 A 
ATOM      6  C   UNL     1       2.585   6.146  18.717  0.00  0.00    +0.000 A 
ATOM      7  C   UNL     1       2.636   7.424  18.109  0.00  0.00    +0.000 A 
ATOM      8  N   UNL     1       2.209   8.400  18.909  0.00  0.00    +0.000 NA
ATOM      9  N   UNL     1       1.930   7.751  20.060  0.00  0.00    +0.000 N 
ENDROOT
BRANCH   1  10
ATOM     10  N   UNL     1       3.317   4.362  17.144  0.00  0.00    +0.000 N 
ATOM     11  H   UNL     1       2.573   3.862  16.668  0.00  0.00    +0.000 HD
BRANCH  10  12
ATOM     12  C   UNL     1       4.645   3.813  17.007  0.00  0.00    +0.000 C 
BRANCH  12  17
ATOM     13  F   UNL     1       8.398   7.765  18.404  0.00  0.00    +0.000 F 
ATOM     14  C   UNL     1       7.517   6.817  18.053  0.00  0.00    +0.000 A 
ATOM     15  C   UNL     1       6.659   7.040  16.984  0.00  0.00    +0.000 A 
ATOM     16  C   UNL     1       5.743   6.053  16.628  0.00  0.00    +0.000 A 
ATOM     17  C   UNL     1       5.690   4.841  17.339  0.00  0.00    +0.000 A 
ATOM     18  C   UNL     1       6.562   4.641  18.420  0.00  0.00    +0.000 A 
ATOM     19  C   UNL     1       7.478   5.629  18.774  0.00  0.00    +0.000 A 
ENDBRANCH  12  17
ENDBRANCH  10  12
ENDBRANCH   1  10
BRANCH   9  20
ATOM     20  C   UNL     1       1.475   8.517  21.196  0.00  0.00    +0.000 C 
BRANCH  20  21
ATOM     21  C   UNL     1       0.013   8.959  21.113  0.00  0.00    +0.000 C 
ATOM     22 CL   UNL     1      -0.706   9.278  22.730  0.00  0.00    +0.000 Cl
BRANCH  21  23
ATOM     23  C   UNL     1      -0.110  10.209  20.263  0.00  0.00    +0.000 A 
ATOM     24  C   UNL     1       0.631  11.355  20.583  0.00  0.00    +0.000 A 
ATOM     25  C   UNL     1       0.480  12.524  19.836  0.00  0.00    +0.000 A 
ATOM     26  C   UNL     1      -0.411  12.564  18.765  0.00  0.00    +0.000 A 
ATOM     27  C   UNL     1      -1.145  11.431  18.428  0.00  0.00    +0.000 A 
ATOM     28  C   UNL     1      -0.991  10.259  19.167  0.00  0.00    +0.000 A 
ENDBRANCH  21  23
ENDBRANCH  20  21
ENDBRANCH   9  20
TORSDOF 6
ENDMDL
MODEL 9
REMARK VINA RESULT:      -7.9      1.805      2.823
REMARK  Name = 
REMARK  6 active torsions:
REMARK  status: ('A' for Active; 'I' for Inactive)
REMARK    1  A    between atoms: C_5  and  C_6
REMARK    2  A    between atoms: C_6  and  N_7
REMARK    3  A    between atoms: N_7  and  C_8
REMARK    4  A    between atoms: N_16  and  C_17
REMARK    5  A    between atoms: C_17  and  C_18
REMARK    6  A    between atoms: C_18  and  C_20
REMARK                            x       y       z     vdW  Elec       q    Type
REMARK                         _______ _______ _______ _____ _____    ______ ____
ROOT
ATOM      1  C   UNL     1       0.491   9.757  19.333  0.00  0.00    +0.000 A 
ATOM      2  N   UNL     1      -0.035   9.566  20.565  0.00  0.00    +0.000 NA
ATOM      3  C   UNL     1       0.467   8.592  21.351  0.00  0.00    +0.000 A 
ATOM      4  N   UNL     1       1.419   7.689  21.050  0.00  0.00    +0.000 NA
ATOM      5  C   UNL     1       1.875   7.874  19.798  0.00  0.00    +0.000 A 
ATOM      6  C   UNL     1       1.478   8.856  18.911  0.00  0.00    +0.000 A 
ATOM      7  C   UNL     1       2.248   8.605  17.749  0.00  0.00    +0.000 A 
ATOM      8  N   UNL     1       3.081   7.574  17.888  0.00  0.00    +0.000 NA
ATOM      9  N   UNL     1       2.806   7.125  19.131  0.00  0.00    +0.000 N 
ENDROOT
BRANCH   1  10
ATOM     10  N   UNL     1       0.007  10.841  18.615  0.00  0.00    +0.000 N 
ATOM     11  H   UNL     1       0.708  11.573  18.551  0.00  0.00    +0.000 HD
BRANCH  10  12
ATOM     12  C   UNL     1      -1.355  11.276  18.815  0.00  0.00    +0.000 C 
BRANCH  12  17
ATOM     13  F   UNL     1      -4.482  10.000  14.315  0.00  0.00    +0.000 F 
ATOM     14  C   UNL     1      -3.751  10.291  15.401  0.00  0.00    +0.000 A 
ATOM     15  C   UNL     1      -4.206  11.250  16.297  0.00  0.00    +0.000 A 
ATOM     16  C   UNL     1      -3.440  11.552  17.420  0.00  0.00    +0.000 A 
ATOM     17  C   UNL     1      -2.221  10.889  17.648  0.00  0.00    +0.000 A 
ATOM     18  C   UNL     1      -1.777   9.930  16.726  0.00  0.00    +0.000 A 
ATOM     19  C   UNL     1      -2.546   9.629  15.603  0.00  0.00    +0.000 A 
ENDBRANCH  12  17
ENDBRANCH  10  12
ENDBRANCH   1  10
BRANCH   9  20
ATOM     20  C   UNL     1       3.504   5.958  19.617  0.00  0.00    +0.000 C 
BRANCH  20  21
ATOM     21  C   UNL     1       3.382   4.729  18.713  0.00  0.00    +0.000 C 
ATOM     22 CL   UNL     1       1.894   4.756  17.705  0.00  0.00    +0.000 Cl
BRANCH  21  23
ATOM     23  C   UNL     1       4.592   4.624  17.804  0.00  0.00    +0.000 A 
ATOM     24  C   UNL     1       4.441   4.210  16.474  0.00  0.00    +0.000 A 
ATOM     25  C   UNL     1       5.557   4.060  15.650  0.00  0.00    +0.000 A 
ATOM     26  C   UNL     1       6.835   4.318  16.144  0.00  0.00    +0.000 A 
ATOM     27  C   UNL     1       7.000   4.742  17.459  0.00  0.00    +0.000 A 
ATOM     28  C   UNL     1       5.886   4.901  18.282  0.00  0.00    +0.000 A 
ENDBRANCH  21  23
ENDBRANCH  20  21
ENDBRANCH   9  20
TORSDOF 6
ENDMDL
