MODEL 1
REMARK VINA RESULT:      -6.2      0.000      0.000
REMARK  Name = 
REMARK  2 active torsions:
REMARK  status: ('A' for Active; 'I' for Inactive)
REMARK    1  A    between atoms: N_1  and  C_2
REMARK    2  A    between atoms: N_7  and  C_8
REMARK                            x       y       z     vdW  Elec       q    Type
REMARK                         _______ _______ _______ _____ _____    ______ ____
ROOT
ATOM      1  C   UNL     1       5.896   4.330  16.146  0.00  0.00    +0.000 A 
ATOM      2  C   UNL     1       7.095   4.833  16.485  0.00  0.00    +0.000 A 
ATOM      3  C   UNL     1       7.245   4.575  17.927  0.00  0.00    +0.000 A 
ATOM      4  O   UNL     1       8.268   4.745  18.570  0.00  0.00    +0.000 OA
ATOM      5  N   UNL     1       6.039   4.067  18.377  0.00  0.00    +0.000 N 
ATOM      6  N   UNL     1       5.274   3.767  17.251  0.00  0.00    +0.000 N 
ATOM      7  H   UNL     1       6.056   3.439  19.171  0.00  0.00    +0.000 HD
ENDROOT
BRANCH   6   8
ATOM      8  C   UNL     1       3.846   3.509  17.381  0.00  0.00    +0.000 C 
ATOM      9  C   UNL     1       3.056   4.759  17.786  0.00  0.00    +0.000 C 
ATOM     10  C   UNL     1       1.559   4.468  17.689  0.00  0.00    +0.000 C 
ATOM     11  C   UNL     1       1.149   3.231  18.494  0.00  0.00    +0.000 C 
ATOM     12  C   UNL     1       2.050   2.018  18.249  0.00  0.00    +0.000 C 
ATOM     13  C   UNL     1       3.535   2.370  18.355  0.00  0.00    +0.000 C 
ENDBRANCH   6   8
BRANCH   1  14
ATOM     14  N   UNL     1       5.370   4.387  14.884  0.00  0.00    +0.000 N 
ATOM     15  H   UNL     1       5.438   3.512  14.372  0.00  0.00    +0.000 HD
ATOM     16  H   UNL     1       5.714   5.174  14.348  0.00  0.00    +0.000 HD
ENDBRANCH   1  14
TORSDOF 2
ENDMDL
MODEL 2
REMARK VINA RESULT:      -6.2      1.274      2.001
REMARK  Name = 
REMARK  2 active torsions:
REMARK  status: ('A' for Active; 'I' for Inactive)
REMARK    1  A    between atoms: N_1  and  C_2
REMARK    2  A    between atoms: N_7  and  C_8
REMARK                            x       y       z     vdW  Elec       q    Type
REMARK                         _______ _______ _______ _____ _____    ______ ____
ROOT
ATOM      1  C   UNL     1       6.147   4.589  17.752  0.00  0.00    +0.000 A 
ATOM      2  C   UNL     1       7.312   4.785  17.110  0.00  0.00    +0.000 A 
ATOM      3  C   UNL     1       6.966   4.918  15.685  0.00  0.00    +0.000 A 
ATOM      4  O   UNL     1       7.736   5.261  14.803  0.00  0.00    +0.000 OA
ATOM      5  N   UNL     1       5.617   4.633  15.565  0.00  0.00    +0.000 N 
ATOM      6  N   UNL     1       5.090   4.594  16.855  0.00  0.00    +0.000 N 
ATOM      7  H   UNL     1       5.105   5.075  14.812  0.00  0.00    +0.000 HD
ENDROOT
BRANCH   6   8
ATOM      8  C   UNL     1       3.773   4.017  17.092  0.00  0.00    +0.000 C 
ATOM      9  C   UNL     1       2.840   4.972  17.845  0.00  0.00    +0.000 C 
ATOM     10  C   UNL     1       1.426   4.391  17.864  0.00  0.00    +0.000 C 
ATOM     11  C   UNL     1       1.385   2.968  18.429  0.00  0.00    +0.000 C 
ATOM     12  C   UNL     1       2.445   2.042  17.828  0.00  0.00    +0.000 C 
ATOM     13  C   UNL     1       3.836   2.677  17.831  0.00  0.00    +0.000 C 
ENDBRANCH   6   8
BRANCH   1  14
ATOM     14  N   UNL     1       6.040   4.398  19.103  0.00  0.00    +0.000 N 
ATOM     15  H   UNL     1       6.543   5.087  19.655  0.00  0.00    +0.000 HD
ATOM     16  H   UNL     1       6.252   3.449  19.386  0.00  0.00    +0.000 HD
ENDBRANCH   1  14
TORSDOF 2
ENDMDL
MODEL 3
REMARK VINA RESULT:      -6.2      1.089      1.117
REMARK  Name = 
REMARK  2 active torsions:
REMARK  status: ('A' for Active; 'I' for Inactive)
REMARK    1  A    between atoms: N_1  and  C_2
REMARK    2  A    between atoms: N_7  and  C_8
REMARK                            x       y       z     vdW  Elec       q    Type
REMARK                         _______ _______ _______ _____ _____    ______ ____
ROOT
ATOM      1  C   UNL     1       6.084   5.716  16.920  0.00  0.00    +0.000 A 
ATOM      2  C   UNL     1       7.182   6.174  17.546  0.00  0.00    +0.000 A 
ATOM      3  C   UNL     1       7.309   5.370  18.773  0.00  0.00    +0.000 A 
ATOM      4  O   UNL     1       8.268   5.381  19.526  0.00  0.00    +0.000 OA
ATOM      5  N   UNL     1       6.172   4.586  18.865  0.00  0.00    +0.000 N 
ATOM      6  N   UNL     1       5.506   4.684  17.644  0.00  0.00    +0.000 N 
ATOM      7  H   UNL     1       6.248   3.695  19.341  0.00  0.00    +0.000 HD
ENDROOT
BRANCH   6   8
ATOM      8  C   UNL     1       4.127   4.230  17.521  0.00  0.00    +0.000 C 
ATOM      9  C   UNL     1       3.131   5.190  18.180  0.00  0.00    +0.000 C 
ATOM     10  C   UNL     1       1.706   4.768  17.825  0.00  0.00    +0.000 C 
ATOM     11  C   UNL     1       1.424   3.303  18.175  0.00  0.00    +0.000 C 
ATOM     12  C   UNL     1       2.513   2.341  17.692  0.00  0.00    +0.000 C 
ATOM     13  C   UNL     1       3.916   2.817  18.072  0.00  0.00    +0.000 C 
ENDBRANCH   6   8
BRANCH   1  14
ATOM     14  N   UNL     1       5.608   6.221  15.740  0.00  0.00    +0.000 N 
ATOM     15  H   UNL     1       4.807   6.835  15.851  0.00  0.00    +0.000 HD
ATOM     16  H   UNL     1       5.453   5.507  15.039  0.00  0.00    +0.000 HD
ENDBRANCH   1  14
TORSDOF 2
ENDMDL
MODEL 4
REMARK VINA RESULT:      -6.2      1.725      2.202
REMARK  Name = 
REMARK  2 active torsions:
REMARK  status: ('A' for Active; 'I' for Inactive)
REMARK    1  A    between atoms: N_1  and  C_2
REMARK    2  A    between atoms: N_7  and  C_8
REMARK                            x       y       z     vdW  Elec       q    Type
REMARK                         _______ _______ _______ _____ _____    ______ ____
ROOT
ATOM      1  C   UNL     1       5.127   5.808  17.666  0.00  0.00    +0.000 A 
ATOM      2  C   UNL     1       6.424   5.908  17.326  0.00  0.00    +0.000 A 
ATOM      3  C   UNL     1       7.021   4.597  17.632  0.00  0.00    +0.000 A 
ATOM      4  O   UNL     1       8.145   4.245  17.317  0.00  0.00    +0.000 OA
ATOM      5  N   UNL     1       6.054   3.853  18.285  0.00  0.00    +0.000 N 
ATOM      6  N   UNL     1       4.849   4.541  18.155  0.00  0.00    +0.000 N 
ATOM      7  H   UNL     1       6.086   2.845  18.187  0.00  0.00    +0.000 HD
ENDROOT
BRANCH   6   8
ATOM      8  C   UNL     1       3.707   4.185  18.987  0.00  0.00    +0.000 C 
ATOM      9  C   UNL     1       3.978   2.959  19.866  0.00  0.00    +0.000 C 
ATOM     10  C   UNL     1       2.829   2.780  20.858  0.00  0.00    +0.000 C 
ATOM     11  C   UNL     1       1.463   2.714  20.168  0.00  0.00    +0.000 C 
ATOM     12  C   UNL     1       1.247   3.825  19.137  0.00  0.00    +0.000 C 
ATOM     13  C   UNL     1       2.428   3.959  18.175  0.00  0.00    +0.000 C 
ENDBRANCH   6   8
BRANCH   1  14
ATOM     14  N   UNL     1       4.224   6.831  17.551  0.00  0.00    +0.000 N 
ATOM     15  H   UNL     1       4.508   7.556  16.899  0.00  0.00    +0.000 HD
ATOM     16  H   UNL     1       3.938   7.208  18.446  0.00  0.00    +0.000 HD
ENDBRANCH   1  14
TORSDOF 2
ENDMDL
MODEL 5
REMARK VINA RESULT:      -6.1      1.376      2.488
REMARK  Name = 
REMARK  2 active torsions:
REMARK  status: ('A' for Active; 'I' for Inactive)
REMARK    1  A    between atoms: N_1  and  C_2
REMARK    2  A    between atoms: N_7  and  C_8
REMARK                            x       y       z     vdW  Elec       q    Type
REMARK                         _______ _______ _______ _____ _____    ______ ____
ROOT
ATOM      1  C   UNL     1       6.267   4.649  18.060  0.00  0.00    +0.000 A 
ATOM      2  C   UNL     1       7.252   4.684  17.146  0.00  0.00    +0.000 A 
ATOM      3  C   UNL     1       6.608   4.401  15.852  0.00  0.00    +0.000 A 
ATOM      4  O   UNL     1       7.146   4.499  14.762  0.00  0.00    +0.000 OA
ATOM      5  N   UNL     1       5.293   4.062  16.118  0.00  0.00    +0.000 N 
ATOM      6  N   UNL     1       5.050   4.375  17.455  0.00  0.00    +0.000 N 
ATOM      7  H   UNL     1       4.599   4.260  15.408  0.00  0.00    +0.000 HD
ENDROOT
BRANCH   6   8
ATOM      8  C   UNL     1       3.866   3.858  18.127  0.00  0.00    +0.000 C 
ATOM      9  C   UNL     1       3.646   2.364  17.864  0.00  0.00    +0.000 C 
ATOM     10  C   UNL     1       2.525   1.848  18.767  0.00  0.00    +0.000 C 
ATOM     11  C   UNL     1       1.236   2.663  18.624  0.00  0.00    +0.000 C 
ATOM     12  C   UNL     1       1.460   4.176  18.689  0.00  0.00    +0.000 C 
ATOM     13  C   UNL     1       2.594   4.632  17.770  0.00  0.00    +0.000 C 
ENDBRANCH   6   8
BRANCH   1  14
ATOM     14  N   UNL     1       6.460   4.845  19.401  0.00  0.00    +0.000 N 
ATOM     15  H   UNL     1       5.639   5.196  19.886  0.00  0.00    +0.000 HD
ATOM     16  H   UNL     1       7.290   5.389  19.606  0.00  0.00    +0.000 HD
ENDBRANCH   1  14
TORSDOF 2
ENDMDL
MODEL 6
REMARK VINA RESULT:      -6.1      1.716      1.910
REMARK  Name = 
REMARK  2 active torsions:
REMARK  status: ('A' for Active; 'I' for Inactive)
REMARK    1  A    between atoms: N_1  and  C_2
REMARK    2  A    between atoms: N_7  and  C_8
REMARK                            x       y       z     vdW  Elec       q    Type
REMARK                         _______ _______ _______ _____ _____    ______ ____
ROOT
ATOM      1  C   UNL     1       4.885   5.911  17.754  0.00  0.00    +0.000 A 
ATOM      2  C   UNL     1       6.224   6.031  17.772  0.00  0.00    +0.000 A 
ATOM      3  C   UNL     1       6.739   4.719  18.199  0.00  0.00    +0.000 A 
ATOM      4  O   UNL     1       7.911   4.385  18.187  0.00  0.00    +0.000 OA
ATOM      5  N   UNL     1       5.645   3.950  18.558  0.00  0.00    +0.000 N 
ATOM      6  N   UNL     1       4.506   4.629  18.128  0.00  0.00    +0.000 N 
ATOM      7  H   UNL     1       5.717   2.946  18.453  0.00  0.00    +0.000 HD
ENDROOT
BRANCH   6   8
ATOM      8  C   UNL     1       3.190   4.244  18.620  0.00  0.00    +0.000 C 
ATOM      9  C   UNL     1       2.959   4.668  20.075  0.00  0.00    +0.000 C 
ATOM     10  C   UNL     1       1.497   4.429  20.448  0.00  0.00    +0.000 C 
ATOM     11  C   UNL     1       1.053   2.987  20.182  0.00  0.00    +0.000 C 
ATOM     12  C   UNL     1       1.448   2.473  18.796  0.00  0.00    +0.000 C 
ATOM     13  C   UNL     1       2.919   2.744  18.476  0.00  0.00    +0.000 C 
ENDBRANCH   6   8
BRANCH   1  14
ATOM     14  N   UNL     1       4.029   6.927  17.425  0.00  0.00    +0.000 N 
ATOM     15  H   UNL     1       3.729   6.911  16.455  0.00  0.00    +0.000 HD
ATOM     16  H   UNL     1       4.369   7.838  17.709  0.00  0.00    +0.000 HD
ENDBRANCH   1  14
TORSDOF 2
ENDMDL
MODEL 7
REMARK VINA RESULT:      -6.1      2.639      5.046
REMARK  Name = 
REMARK  2 active torsions:
REMARK  status: ('A' for Active; 'I' for Inactive)
REMARK    1  A    between atoms: N_1  and  C_2
REMARK    2  A    between atoms: N_7  and  C_8
REMARK                            x       y       z     vdW  Elec       q    Type
REMARK                         _______ _______ _______ _____ _____    ______ ____
ROOT
ATOM      1  C   UNL     1       4.048   2.608  19.085  0.00  0.00    +0.000 A 
ATOM      2  C   UNL     1       2.722   2.421  19.199  0.00  0.00    +0.000 A 
ATOM      3  C   UNL     1       2.103   3.333  18.222  0.00  0.00    +0.000 A 
ATOM      4  O   UNL     1       0.923   3.342  17.917  0.00  0.00    +0.000 OA
ATOM      5  N   UNL     1       3.117   4.118  17.700  0.00  0.00    +0.000 N 
ATOM      6  N   UNL     1       4.325   3.557  18.112  0.00  0.00    +0.000 N 
ATOM      7  H   UNL     1       3.007   4.469  16.757  0.00  0.00    +0.000 HD
ENDROOT
BRANCH   6   8
ATOM      8  C   UNL     1       5.565   4.313  17.994  0.00  0.00    +0.000 C 
ATOM      9  C   UNL     1       5.849   5.174  19.229  0.00  0.00    +0.000 C 
ATOM     10  C   UNL     1       7.257   5.761  19.127  0.00  0.00    +0.000 C 
ATOM     11  C   UNL     1       7.479   6.526  17.818  0.00  0.00    +0.000 C 
ATOM     12  C   UNL     1       7.018   5.757  16.577  0.00  0.00    +0.000 C 
ATOM     13  C   UNL     1       5.607   5.190  16.739  0.00  0.00    +0.000 C 
ENDBRANCH   6   8
BRANCH   1  14
ATOM     14  N   UNL     1       4.982   1.954  19.843  0.00  0.00    +0.000 N 
ATOM     15  H   UNL     1       5.931   2.046  19.494  0.00  0.00    +0.000 HD
ATOM     16  H   UNL     1       4.733   0.990  20.032  0.00  0.00    +0.000 HD
ENDBRANCH   1  14
TORSDOF 2
ENDMDL
MODEL 8
REMARK VINA RESULT:      -6.0      2.973      4.880
REMARK  Name = 
REMARK  2 active torsions:
REMARK  status: ('A' for Active; 'I' for Inactive)
REMARK    1  A    between atoms: N_1  and  C_2
REMARK    2  A    between atoms: N_7  and  C_8
REMARK                            x       y       z     vdW  Elec       q    Type
REMARK                         _______ _______ _______ _____ _____    ______ ____
ROOT
ATOM      1  C   UNL     1       3.602   2.545  19.083  0.00  0.00    +0.000 A 
ATOM      2  C   UNL     1       2.443   2.006  19.501  0.00  0.00    +0.000 A 
ATOM      3  C   UNL     1       1.413   2.501  18.571  0.00  0.00    +0.000 A 
ATOM      4  O   UNL     1       0.259   2.110  18.526  0.00  0.00    +0.000 OA
ATOM      5  N   UNL     1       2.022   3.434  17.749  0.00  0.00    +0.000 N 
ATOM      6  N   UNL     1       3.396   3.335  17.962  0.00  0.00    +0.000 N 
ATOM      7  H   UNL     1       1.652   3.556  16.815  0.00  0.00    +0.000 HD
ENDROOT
BRANCH   6   8
ATOM      8  C   UNL     1       4.291   4.382  17.486  0.00  0.00    +0.000 C 
ATOM      9  C   UNL     1       3.661   5.777  17.569  0.00  0.00    +0.000 C 
ATOM     10  C   UNL     1       4.722   6.833  17.264  0.00  0.00    +0.000 C 
ATOM     11  C   UNL     1       5.425   6.588  15.925  0.00  0.00    +0.000 C 
ATOM     12  C   UNL     1       5.893   5.143  15.737  0.00  0.00    +0.000 C 
ATOM     13  C   UNL     1       4.791   4.132  16.061  0.00  0.00    +0.000 C 
ENDBRANCH   6   8
BRANCH   1  14
ATOM     14  N   UNL     1       4.806   2.343  19.701  0.00  0.00    +0.000 N 
ATOM     15  H   UNL     1       5.578   2.200  19.057  0.00  0.00    +0.000 HD
ATOM     16  H   UNL     1       4.768   1.630  20.419  0.00  0.00    +0.000 HD
ENDBRANCH   1  14
TORSDOF 2
ENDMDL
MODEL 9
REMARK VINA RESULT:      -6.0      1.758      2.085
REMARK  Name = 
REMARK  2 active torsions:
REMARK  status: ('A' for Active; 'I' for Inactive)
REMARK    1  A    between atoms: N_1  and  C_2
REMARK    2  A    between atoms: N_7  and  C_8
REMARK                            x       y       z     vdW  Elec       q    Type
REMARK                         _______ _______ _______ _____ _____    ______ ____
ROOT
ATOM      1  C   UNL     1       5.033   5.745  17.565  0.00  0.00    +0.000 A 
ATOM      2  C   UNL     1       6.338   5.889  17.274  0.00  0.00    +0.000 A 
ATOM      3  C   UNL     1       6.966   4.597  17.597  0.00  0.00    +0.000 A 
ATOM      4  O   UNL     1       8.112   4.284  17.323  0.00  0.00    +0.000 OA
ATOM      5  N   UNL     1       6.001   3.818  18.211  0.00  0.00    +0.000 N 
ATOM      6  N   UNL     1       4.779   4.466  18.039  0.00  0.00    +0.000 N 
ATOM      7  H   UNL     1       6.070   2.813  18.112  0.00  0.00    +0.000 HD
ENDROOT
BRANCH   6   8
ATOM      8  C   UNL     1       3.619   4.069  18.827  0.00  0.00    +0.000 C 
ATOM      9  C   UNL     1       2.366   3.866  17.968  0.00  0.00    +0.000 C 
ATOM     10  C   UNL     1       1.260   3.245  18.821  0.00  0.00    +0.000 C 
ATOM     11  C   UNL     1       0.974   4.055  20.090  0.00  0.00    +0.000 C 
ATOM     12  C   UNL     1       2.237   4.439  20.865  0.00  0.00    +0.000 C 
ATOM     13  C   UNL     1       3.308   5.050  19.961  0.00  0.00    +0.000 C 
ENDBRANCH   6   8
BRANCH   1  14
ATOM     14  N   UNL     1       4.102   6.737  17.420  0.00  0.00    +0.000 N 
ATOM     15  H   UNL     1       4.291   7.367  16.646  0.00  0.00    +0.000 HD
ATOM     16  H   UNL     1       3.915   7.233  18.283  0.00  0.00    +0.000 HD
ENDBRANCH   1  14
TORSDOF 2
ENDMDL
