MODEL 1
REMARK VINA RESULT:      -9.4      0.000      0.000
REMARK  Name = 
REMARK  4 active torsions:
REMARK  status: ('A' for Active; 'I' for Inactive)
REMARK    1  A    between atoms: C_4  and  C_5
REMARK    2  A    between atoms: C_5  and  C_6
REMARK    3  A    between atoms: N_15  and  C_16
REMARK    4  A    between atoms: C_21  and  O_22
REMARK                            x       y       z     vdW  Elec       q    Type
REMARK                         _______ _______ _______ _____ _____    ______ ____
ROOT
ATOM      1  N   UNL     1       7.589   6.730  17.702  0.00  0.00    +0.000 N 
ATOM      2  C   UNL     1       6.880   5.886  16.856  0.00  0.00    +0.000 A 
ATOM      3  N   UNL     1       7.251   5.784  15.549  0.00  0.00    +0.000 NA
ATOM      4  C   UNL     1       6.576   4.936  14.695  0.00  0.00    +0.000 A 
ATOM      5  N   UNL     1       5.505   4.139  14.975  0.00  0.00    +0.000 NA
ATOM      6  C   UNL     1       5.141   4.270  16.265  0.00  0.00    +0.000 A 
ATOM      7  C   UNL     1       4.123   3.614  16.879  0.00  0.00    +0.000 A 
ATOM      8  N   UNL     1       4.107   4.073  18.176  0.00  0.00    +0.000 N 
ATOM      9  N   UNL     1       5.140   4.945  18.423  0.00  0.00    +0.000 NA
ATOM     10  C   UNL     1       5.768   5.096  17.237  0.00  0.00    +0.000 A 
ATOM     11  H   UNL     1       8.085   7.450  17.196  0.00  0.00    +0.000 HD
ATOM     12  H   UNL     1       7.061   7.009  18.523  0.00  0.00    +0.000 HD
ENDROOT
BRANCH   8  13
ATOM     13  C   UNL     1       3.197   3.723  19.220  0.00  0.00    +0.000 A 
ATOM     14  C   UNL     1       1.885   4.232  19.166  0.00  0.00    +0.000 A 
ATOM     15  C   UNL     1       0.972   3.954  20.186  0.00  0.00    +0.000 A 
ATOM     16  C   UNL     1       1.347   3.148  21.258  0.00  0.00    +0.000 A 
ATOM     17  C   UNL     1       2.634   2.616  21.309  0.00  0.00    +0.000 A 
ATOM     18  C   UNL     1       3.556   2.901  20.297  0.00  0.00    +0.000 A 
BRANCH  18  19
ATOM     19  O   UNL     1       4.784   2.308  20.367  0.00  0.00    +0.000 OA
ATOM     20  H   UNL     1       4.678   1.345  20.455  0.00  0.00    +0.000 HD
ENDBRANCH  18  19
ENDBRANCH   8  13
BRANCH   4  21
ATOM     21  C   UNL     1       7.128   4.823  13.290  0.00  0.00    +0.000 C 
BRANCH  21  22
ATOM     22  C   UNL     1       6.485   3.747  12.444  0.00  0.00    +0.000 A 
ATOM     23  C   UNL     1       7.261   2.715  11.900  0.00  0.00    +0.000 A 
ATOM     24  C   UNL     1       6.664   1.694  11.160  0.00  0.00    +0.000 A 
ATOM     25  C   UNL     1       5.287   1.700  10.947  0.00  0.00    +0.000 A 
ATOM     26  C   UNL     1       4.508   2.736  11.460  0.00  0.00    +0.000 A 
ATOM     27  C   UNL     1       5.104   3.758  12.201  0.00  0.00    +0.000 A 
ENDBRANCH  21  22
ENDBRANCH   4  21
TORSDOF 4
ENDMDL
MODEL 2
REMARK VINA RESULT:      -9.3      0.268      1.014
REMARK  Name = 
REMARK  4 active torsions:
REMARK  status: ('A' for Active; 'I' for Inactive)
REMARK    1  A    between atoms: C_4  and  C_5
REMARK    2  A    between atoms: C_5  and  C_6
REMARK    3  A    between atoms: N_15  and  C_16
REMARK    4  A    between atoms: C_21  and  O_22
REMARK                            x       y       z     vdW  Elec       q    Type
REMARK                         _______ _______ _______ _____ _____    ______ ____
ROOT
ATOM      1  N   UNL     1       7.436   6.821  17.681  0.00  0.00    +0.000 N 
ATOM      2  C   UNL     1       6.794   5.868  16.899  0.00  0.00    +0.000 A 
ATOM      3  N   UNL     1       7.184   5.693  15.605  0.00  0.00    +0.000 NA
ATOM      4  C   UNL     1       6.577   4.738  14.816  0.00  0.00    +0.000 A 
ATOM      5  N   UNL     1       5.561   3.891  15.153  0.00  0.00    +0.000 NA
ATOM      6  C   UNL     1       5.177   4.094  16.427  0.00  0.00    +0.000 A 
ATOM      7  C   UNL     1       4.201   3.418  17.086  0.00  0.00    +0.000 A 
ATOM      8  N   UNL     1       4.142   3.972  18.343  0.00  0.00    +0.000 N 
ATOM      9  N   UNL     1       5.109   4.930  18.526  0.00  0.00    +0.000 NA
ATOM     10  C   UNL     1       5.736   5.034  17.335  0.00  0.00    +0.000 A 
ATOM     11  H   UNL     1       7.886   7.534  17.122  0.00  0.00    +0.000 HD
ATOM     12  H   UNL     1       6.882   7.124  18.475  0.00  0.00    +0.000 HD
ENDROOT
BRANCH   8  13
ATOM     13  C   UNL     1       3.249   3.640  19.407  0.00  0.00    +0.000 A 
ATOM     14  C   UNL     1       1.968   4.224  19.416  0.00  0.00    +0.000 A 
ATOM     15  C   UNL     1       1.075   3.964  20.458  0.00  0.00    +0.000 A 
ATOM     16  C   UNL     1       1.438   3.104  21.491  0.00  0.00    +0.000 A 
ATOM     17  C   UNL     1       2.693   2.498  21.480  0.00  0.00    +0.000 A 
ATOM     18  C   UNL     1       3.596   2.764  20.445  0.00  0.00    +0.000 A 
BRANCH  18  19
ATOM     19  O   UNL     1       4.789   2.101  20.453  0.00  0.00    +0.000 OA
ATOM     20  H   UNL     1       5.518   2.739  20.539  0.00  0.00    +0.000 HD
ENDBRANCH  18  19
ENDBRANCH   8  13
BRANCH   4  21
ATOM     21  C   UNL     1       7.148   4.556  13.426  0.00  0.00    +0.000 C 
BRANCH  21  22
ATOM     22  C   UNL     1       6.356   3.629  12.533  0.00  0.00    +0.000 A 
ATOM     23  C   UNL     1       5.014   3.903  12.239  0.00  0.00    +0.000 A 
ATOM     24  C   UNL     1       4.294   3.077  11.376  0.00  0.00    +0.000 A 
ATOM     25  C   UNL     1       4.905   1.962  10.804  0.00  0.00    +0.000 A 
ATOM     26  C   UNL     1       6.232   1.664  11.109  0.00  0.00    +0.000 A 
ATOM     27  C   UNL     1       6.953   2.490  11.973  0.00  0.00    +0.000 A 
ENDBRANCH  21  22
ENDBRANCH   4  21
TORSDOF 4
ENDMDL
MODEL 3
REMARK VINA RESULT:      -9.1      1.129      1.144
REMARK  Name = 
REMARK  4 active torsions:
REMARK  status: ('A' for Active; 'I' for Inactive)
REMARK    1  A    between atoms: C_4  and  C_5
REMARK    2  A    between atoms: C_5  and  C_6
REMARK    3  A    between atoms: N_15  and  C_16
REMARK    4  A    between atoms: C_21  and  O_22
REMARK                            x       y       z     vdW  Elec       q    Type
REMARK                         _______ _______ _______ _____ _____    ______ ____
ROOT
ATOM      1  N   UNL     1       8.391   4.467  17.882  0.00  0.00    +0.000 N 
ATOM      2  C   UNL     1       7.336   4.467  16.978  0.00  0.00    +0.000 A 
ATOM      3  N   UNL     1       7.587   4.695  15.658  0.00  0.00    +0.000 NA
ATOM      4  C   UNL     1       6.559   4.677  14.738  0.00  0.00    +0.000 A 
ATOM      5  N   UNL     1       5.230   4.468  14.967  0.00  0.00    +0.000 NA
ATOM      6  C   UNL     1       5.000   4.266  16.278  0.00  0.00    +0.000 A 
ATOM      7  C   UNL     1       3.794   4.018  16.850  0.00  0.00    +0.000 A 
ATOM      8  N   UNL     1       4.034   3.901  18.199  0.00  0.00    +0.000 N 
ATOM      9  N   UNL     1       5.373   3.990  18.491  0.00  0.00    +0.000 NA
ATOM     10  C   UNL     1       5.977   4.246  17.310  0.00  0.00    +0.000 A 
ATOM     11  H   UNL     1       9.190   4.982  17.538  0.00  0.00    +0.000 HD
ATOM     12  H   UNL     1       8.097   4.638  18.838  0.00  0.00    +0.000 HD
ENDROOT
BRANCH   8  13
ATOM     13  C   UNL     1       3.084   3.680  19.243  0.00  0.00    +0.000 A 
ATOM     14  C   UNL     1       2.818   4.729  20.143  0.00  0.00    +0.000 A 
ATOM     15  C   UNL     1       1.930   4.547  21.206  0.00  0.00    +0.000 A 
ATOM     16  C   UNL     1       1.281   3.326  21.372  0.00  0.00    +0.000 A 
ATOM     17  C   UNL     1       1.515   2.288  20.473  0.00  0.00    +0.000 A 
ATOM     18  C   UNL     1       2.412   2.462  19.413  0.00  0.00    +0.000 A 
BRANCH  18  19
ATOM     19  O   UNL     1       2.561   1.432  18.528  0.00  0.00    +0.000 OA
ATOM     20  H   UNL     1       1.731   1.297  18.041  0.00  0.00    +0.000 HD
ENDBRANCH  18  19
ENDBRANCH   8  13
BRANCH   4  21
ATOM     21  C   UNL     1       6.956   4.844  13.287  0.00  0.00    +0.000 C 
BRANCH  21  22
ATOM     22  C   UNL     1       6.607   3.672  12.397  0.00  0.00    +0.000 A 
ATOM     23  C   UNL     1       7.619   2.891  11.825  0.00  0.00    +0.000 A 
ATOM     24  C   UNL     1       7.300   1.780  11.043  0.00  0.00    +0.000 A 
ATOM     25  C   UNL     1       5.967   1.443  10.819  0.00  0.00    +0.000 A 
ATOM     26  C   UNL     1       4.951   2.228  11.362  0.00  0.00    +0.000 A 
ATOM     27  C   UNL     1       5.268   3.340  12.143  0.00  0.00    +0.000 A 
ENDBRANCH  21  22
ENDBRANCH   4  21
TORSDOF 4
ENDMDL
MODEL 4
REMARK VINA RESULT:      -9.0      4.517      7.757
REMARK  Name = 
REMARK  4 active torsions:
REMARK  status: ('A' for Active; 'I' for Inactive)
REMARK    1  A    between atoms: C_4  and  C_5
REMARK    2  A    between atoms: C_5  and  C_6
REMARK    3  A    between atoms: N_15  and  C_16
REMARK    4  A    between atoms: C_21  and  O_22
REMARK                            x       y       z     vdW  Elec       q    Type
REMARK                         _______ _______ _______ _____ _____    ______ ____
ROOT
ATOM      1  N   UNL     1       8.426   5.369  20.069  0.00  0.00    +0.000 N 
ATOM      2  C   UNL     1       7.901   6.070  18.990  0.00  0.00    +0.000 A 
ATOM      3  N   UNL     1       7.063   5.435  18.124  0.00  0.00    +0.000 NA
ATOM      4  C   UNL     1       6.512   6.116  17.059  0.00  0.00    +0.000 A 
ATOM      5  N   UNL     1       6.705   7.420  16.705  0.00  0.00    +0.000 NA
ATOM      6  C   UNL     1       7.551   8.023  17.560  0.00  0.00    +0.000 A 
ATOM      7  C   UNL     1       7.952   9.320  17.507  0.00  0.00    +0.000 A 
ATOM      8  N   UNL     1       8.825   9.487  18.558  0.00  0.00    +0.000 N 
ATOM      9  N   UNL     1       8.928   8.351  19.323  0.00  0.00    +0.000 NA
ATOM     10  C   UNL     1       8.166   7.430  18.696  0.00  0.00    +0.000 A 
ATOM     11  H   UNL     1       8.422   4.369  19.914  0.00  0.00    +0.000 HD
ATOM     12  H   UNL     1       9.274   5.784  20.441  0.00  0.00    +0.000 HD
ENDROOT
BRANCH   8  13
ATOM     13  C   UNL     1       9.555  10.662  18.913  0.00  0.00    +0.000 A 
ATOM     14  C   UNL     1      10.100  11.452  17.883  0.00  0.00    +0.000 A 
ATOM     15  C   UNL     1      10.859  12.586  18.183  0.00  0.00    +0.000 A 
ATOM     16  C   UNL     1      11.065  12.959  19.508  0.00  0.00    +0.000 A 
ATOM     17  C   UNL     1      10.507  12.201  20.536  0.00  0.00    +0.000 A 
ATOM     18  C   UNL     1       9.757  11.057  20.243  0.00  0.00    +0.000 A 
BRANCH  18  19
ATOM     19  O   UNL     1       9.186  10.385  21.284  0.00  0.00    +0.000 OA
ATOM     20  H   UNL     1       8.272  10.141  21.056  0.00  0.00    +0.000 HD
ENDBRANCH  18  19
ENDBRANCH   8  13
BRANCH   4  21
ATOM     21  C   UNL     1       5.518   5.348  16.214  0.00  0.00    +0.000 C 
BRANCH  21  22
ATOM     22  C   UNL     1       4.241   4.969  16.928  0.00  0.00    +0.000 A 
ATOM     23  C   UNL     1       3.489   5.941  17.601  0.00  0.00    +0.000 A 
ATOM     24  C   UNL     1       2.285   5.603  18.219  0.00  0.00    +0.000 A 
ATOM     25  C   UNL     1       1.823   4.289  18.178  0.00  0.00    +0.000 A 
ATOM     26  C   UNL     1       2.575   3.307  17.534  0.00  0.00    +0.000 A 
ATOM     27  C   UNL     1       3.780   3.644  16.916  0.00  0.00    +0.000 A 
ENDBRANCH  21  22
ENDBRANCH   4  21
TORSDOF 4
ENDMDL
MODEL 5
REMARK VINA RESULT:      -9.0      1.034      1.211
REMARK  Name = 
REMARK  4 active torsions:
REMARK  status: ('A' for Active; 'I' for Inactive)
REMARK    1  A    between atoms: C_4  and  C_5
REMARK    2  A    between atoms: C_5  and  C_6
REMARK    3  A    between atoms: N_15  and  C_16
REMARK    4  A    between atoms: C_21  and  O_22
REMARK                            x       y       z     vdW  Elec       q    Type
REMARK                         _______ _______ _______ _____ _____    ______ ____
ROOT
ATOM      1  N   UNL     1       7.817   6.649  17.655  0.00  0.00    +0.000 N 
ATOM      2  C   UNL     1       7.059   5.833  16.825  0.00  0.00    +0.000 A 
ATOM      3  N   UNL     1       7.425   5.678  15.522  0.00  0.00    +0.000 NA
ATOM      4  C   UNL     1       6.701   4.855  14.685  0.00  0.00    +0.000 A 
ATOM      5  N   UNL     1       5.581   4.132  14.980  0.00  0.00    +0.000 NA
ATOM      6  C   UNL     1       5.224   4.314  16.265  0.00  0.00    +0.000 A 
ATOM      7  C   UNL     1       4.166   3.737  16.890  0.00  0.00    +0.000 A 
ATOM      8  N   UNL     1       4.177   4.225  18.177  0.00  0.00    +0.000 N 
ATOM      9  N   UNL     1       5.261   5.037  18.407  0.00  0.00    +0.000 NA
ATOM     10  C   UNL     1       5.899   5.121  17.220  0.00  0.00    +0.000 A 
ATOM     11  H   UNL     1       8.358   7.326  17.134  0.00  0.00    +0.000 HD
ATOM     12  H   UNL     1       7.306   6.979  18.467  0.00  0.00    +0.000 HD
ENDROOT
BRANCH   8  13
ATOM     13  C   UNL     1       3.244   3.956  19.225  0.00  0.00    +0.000 A 
ATOM     14  C   UNL     1       2.792   2.635  19.399  0.00  0.00    +0.000 A 
ATOM     15  C   UNL     1       1.847   2.330  20.383  0.00  0.00    +0.000 A 
ATOM     16  C   UNL     1       1.360   3.333  21.217  0.00  0.00    +0.000 A 
ATOM     17  C   UNL     1       1.820   4.640  21.072  0.00  0.00    +0.000 A 
ATOM     18  C   UNL     1       2.757   4.953  20.082  0.00  0.00    +0.000 A 
BRANCH  18  19
ATOM     19  O   UNL     1       3.216   6.237  20.021  0.00  0.00    +0.000 OA
ATOM     20  H   UNL     1       2.769   6.777  20.694  0.00  0.00    +0.000 HD
ENDBRANCH  18  19
ENDBRANCH   8  13
BRANCH   4  21
ATOM     21  C   UNL     1       7.246   4.675  13.285  0.00  0.00    +0.000 C 
BRANCH  21  22
ATOM     22  C   UNL     1       6.483   3.690  12.430  0.00  0.00    +0.000 A 
ATOM     23  C   UNL     1       7.135   2.585  11.867  0.00  0.00    +0.000 A 
ATOM     24  C   UNL     1       6.422   1.647  11.118  0.00  0.00    +0.000 A 
ATOM     25  C   UNL     1       5.053   1.809  10.916  0.00  0.00    +0.000 A 
ATOM     26  C   UNL     1       4.398   2.919  11.449  0.00  0.00    +0.000 A 
ATOM     27  C   UNL     1       5.109   3.857  12.198  0.00  0.00    +0.000 A 
ENDBRANCH  21  22
ENDBRANCH   4  21
TORSDOF 4
ENDMDL
MODEL 6
REMARK VINA RESULT:      -8.8      3.981      6.419
REMARK  Name = 
REMARK  4 active torsions:
REMARK  status: ('A' for Active; 'I' for Inactive)
REMARK    1  A    between atoms: C_4  and  C_5
REMARK    2  A    between atoms: C_5  and  C_6
REMARK    3  A    between atoms: N_15  and  C_16
REMARK    4  A    between atoms: C_21  and  O_22
REMARK                            x       y       z     vdW  Elec       q    Type
REMARK                         _______ _______ _______ _____ _____    ______ ____
ROOT
ATOM      1  N   UNL     1       8.534   5.242  20.348  0.00  0.00    +0.000 N 
ATOM      2  C   UNL     1       7.843   5.955  19.376  0.00  0.00    +0.000 A 
ATOM      3  N   UNL     1       8.409   7.070  18.836  0.00  0.00    +0.000 NA
ATOM      4  C   UNL     1       7.751   7.781  17.853  0.00  0.00    +0.000 A 
ATOM      5  N   UNL     1       6.524   7.529  17.312  0.00  0.00    +0.000 NA
ATOM      6  C   UNL     1       5.974   6.437  17.873  0.00  0.00    +0.000 A 
ATOM      7  C   UNL     1       4.766   5.900  17.562  0.00  0.00    +0.000 A 
ATOM      8  N   UNL     1       4.610   4.816  18.394  0.00  0.00    +0.000 N 
ATOM      9  N   UNL     1       5.722   4.603  19.171  0.00  0.00    +0.000 NA
ATOM     10  C   UNL     1       6.560   5.619  18.877  0.00  0.00    +0.000 A 
ATOM     11  H   UNL     1       9.229   5.808  20.815  0.00  0.00    +0.000 HD
ATOM     12  H   UNL     1       7.931   4.664  20.924  0.00  0.00    +0.000 HD
ENDROOT
BRANCH   8  13
ATOM     13  C   UNL     1       3.487   3.938  18.490  0.00  0.00    +0.000 A 
ATOM     14  C   UNL     1       2.227   4.410  18.074  0.00  0.00    +0.000 A 
ATOM     15  C   UNL     1       1.092   3.604  18.190  0.00  0.00    +0.000 A 
ATOM     16  C   UNL     1       1.201   2.313  18.700  0.00  0.00    +0.000 A 
ATOM     17  C   UNL     1       2.446   1.824  19.089  0.00  0.00    +0.000 A 
ATOM     18  C   UNL     1       3.585   2.631  18.987  0.00  0.00    +0.000 A 
BRANCH  18  19
ATOM     19  O   UNL     1       4.788   2.083  19.329  0.00  0.00    +0.000 OA
ATOM     20  H   UNL     1       4.988   2.288  20.258  0.00  0.00    +0.000 HD
ENDBRANCH  18  19
ENDBRANCH   8  13
BRANCH   4  21
ATOM     21  C   UNL     1       8.507   8.946  17.251  0.00  0.00    +0.000 C 
BRANCH  21  22
ATOM     22  C   UNL     1       8.758  10.096  18.200  0.00  0.00    +0.000 A 
ATOM     23  C   UNL     1       9.184   9.851  19.512  0.00  0.00    +0.000 A 
ATOM     24  C   UNL     1       9.464  10.911  20.375  0.00  0.00    +0.000 A 
ATOM     25  C   UNL     1       9.314  12.226  19.939  0.00  0.00    +0.000 A 
ATOM     26  C   UNL     1       8.866  12.482  18.643  0.00  0.00    +0.000 A 
ATOM     27  C   UNL     1       8.585  11.423  17.779  0.00  0.00    +0.000 A 
ENDBRANCH  21  22
ENDBRANCH   4  21
TORSDOF 4
ENDMDL
MODEL 7
REMARK VINA RESULT:      -8.5      4.023      6.520
REMARK  Name = 
REMARK  4 active torsions:
REMARK  status: ('A' for Active; 'I' for Inactive)
REMARK    1  A    between atoms: C_4  and  C_5
REMARK    2  A    between atoms: C_5  and  C_6
REMARK    3  A    between atoms: N_15  and  C_16
REMARK    4  A    between atoms: C_21  and  O_22
REMARK                            x       y       z     vdW  Elec       q    Type
REMARK                         _______ _______ _______ _____ _____    ______ ____
ROOT
ATOM      1  N   UNL     1       8.584   5.234  20.199  0.00  0.00    +0.000 N 
ATOM      2  C   UNL     1       7.852   5.997  19.299  0.00  0.00    +0.000 A 
ATOM      3  N   UNL     1       8.406   7.124  18.771  0.00  0.00    +0.000 NA
ATOM      4  C   UNL     1       7.707   7.886  17.857  0.00  0.00    +0.000 A 
ATOM      5  N   UNL     1       6.446   7.677  17.379  0.00  0.00    +0.000 NA
ATOM      6  C   UNL     1       5.908   6.572  17.928  0.00  0.00    +0.000 A 
ATOM      7  C   UNL     1       4.674   6.069  17.667  0.00  0.00    +0.000 A 
ATOM      8  N   UNL     1       4.546   4.954  18.463  0.00  0.00    +0.000 N 
ATOM      9  N   UNL     1       5.697   4.691  19.165  0.00  0.00    +0.000 NA
ATOM     10  C   UNL     1       6.536   5.704  18.863  0.00  0.00    +0.000 A 
ATOM     11  H   UNL     1       9.316   5.769  20.648  0.00  0.00    +0.000 HD
ATOM     12  H   UNL     1       8.004   4.644  20.787  0.00  0.00    +0.000 HD
ENDROOT
BRANCH   8  13
ATOM     13  C   UNL     1       3.413   4.092  18.590  0.00  0.00    +0.000 A 
ATOM     14  C   UNL     1       2.248   4.599  19.196  0.00  0.00    +0.000 A 
ATOM     15  C   UNL     1       1.130   3.781  19.382  0.00  0.00    +0.000 A 
ATOM     16  C   UNL     1       1.152   2.459  18.947  0.00  0.00    +0.000 A 
ATOM     17  C   UNL     1       2.290   1.953  18.321  0.00  0.00    +0.000 A 
ATOM     18  C   UNL     1       3.417   2.764  18.143  0.00  0.00    +0.000 A 
BRANCH  18  19
ATOM     19  O   UNL     1       4.483   2.236  17.473  0.00  0.00    +0.000 OA
ATOM     20  H   UNL     1       4.258   2.126  16.534  0.00  0.00    +0.000 HD
ENDBRANCH  18  19
ENDBRANCH   8  13
BRANCH   4  21
ATOM     21  C   UNL     1       8.449   9.061  17.259  0.00  0.00    +0.000 C 
BRANCH  21  22
ATOM     22  C   UNL     1       8.780  10.165  18.237  0.00  0.00    +0.000 A 
ATOM     23  C   UNL     1       8.711  11.507  17.841  0.00  0.00    +0.000 A 
ATOM     24  C   UNL     1       8.968  12.530  18.755  0.00  0.00    +0.000 A 
ATOM     25  C   UNL     1       9.305  12.222  20.072  0.00  0.00    +0.000 A 
ATOM     26  C   UNL     1       9.402  10.889  20.471  0.00  0.00    +0.000 A 
ATOM     27  C   UNL     1       9.146   9.866  19.557  0.00  0.00    +0.000 A 
ENDBRANCH  21  22
ENDBRANCH   4  21
TORSDOF 4
ENDMDL
MODEL 8
REMARK VINA RESULT:      -8.4      4.001      6.516
REMARK  Name = 
REMARK  4 active torsions:
REMARK  status: ('A' for Active; 'I' for Inactive)
REMARK    1  A    between atoms: C_4  and  C_5
REMARK    2  A    between atoms: C_5  and  C_6
REMARK    3  A    between atoms: N_15  and  C_16
REMARK    4  A    between atoms: C_21  and  O_22
REMARK                            x       y       z     vdW  Elec       q    Type
REMARK                         _______ _______ _______ _____ _____    ______ ____
ROOT
ATOM      1  N   UNL     1       8.577   5.194  20.273  0.00  0.00    +0.000 N 
ATOM      2  C   UNL     1       7.834   5.945  19.371  0.00  0.00    +0.000 A 
ATOM      3  N   UNL     1       8.387   7.056  18.811  0.00  0.00    +0.000 NA
ATOM      4  C   UNL     1       7.676   7.805  17.895  0.00  0.00    +0.000 A 
ATOM      5  N   UNL     1       6.405   7.597  17.445  0.00  0.00    +0.000 NA
ATOM      6  C   UNL     1       5.869   6.507  18.027  0.00  0.00    +0.000 A 
ATOM      7  C   UNL     1       4.626   6.009  17.799  0.00  0.00    +0.000 A 
ATOM      8  N   UNL     1       4.504   4.912  18.620  0.00  0.00    +0.000 N 
ATOM      9  N   UNL     1       5.666   4.654  19.305  0.00  0.00    +0.000 NA
ATOM     10  C   UNL     1       6.508   5.654  18.966  0.00  0.00    +0.000 A 
ATOM     11  H   UNL     1       9.321   5.732  20.697  0.00  0.00    +0.000 HD
ATOM     12  H   UNL     1       8.004   4.621  20.884  0.00  0.00    +0.000 HD
ENDROOT
BRANCH   8  13
ATOM     13  C   UNL     1       3.368   4.062  18.786  0.00  0.00    +0.000 A 
ATOM     14  C   UNL     1       3.145   3.045  17.838  0.00  0.00    +0.000 A 
ATOM     15  C   UNL     1       2.024   2.217  17.934  0.00  0.00    +0.000 A 
ATOM     16  C   UNL     1       1.125   2.378  18.984  0.00  0.00    +0.000 A 
ATOM     17  C   UNL     1       1.348   3.363  19.944  0.00  0.00    +0.000 A 
ATOM     18  C   UNL     1       2.463   4.203  19.847  0.00  0.00    +0.000 A 
BRANCH  18  19
ATOM     19  O   UNL     1       2.665   5.113  20.844  0.00  0.00    +0.000 OA
ATOM     20  H   UNL     1       2.103   5.893  20.695  0.00  0.00    +0.000 HD
ENDBRANCH  18  19
ENDBRANCH   8  13
BRANCH   4  21
ATOM     21  C   UNL     1       8.415   8.963  17.259  0.00  0.00    +0.000 C 
BRANCH  21  22
ATOM     22  C   UNL     1       8.772  10.084  18.208  0.00  0.00    +0.000 A 
ATOM     23  C   UNL     1       8.710  11.418  17.784  0.00  0.00    +0.000 A 
ATOM     24  C   UNL     1       8.991  12.457  18.672  0.00  0.00    +0.000 A 
ATOM     25  C   UNL     1       9.346  12.174  19.989  0.00  0.00    +0.000 A 
ATOM     26  C   UNL     1       9.437  10.849  20.416  0.00  0.00    +0.000 A 
ATOM     27  C   UNL     1       9.156   9.809  19.529  0.00  0.00    +0.000 A 
ENDBRANCH  21  22
ENDBRANCH   4  21
TORSDOF 4
ENDMDL
MODEL 9
REMARK VINA RESULT:      -8.4      4.412      6.998
REMARK  Name = 
REMARK  4 active torsions:
REMARK  status: ('A' for Active; 'I' for Inactive)
REMARK    1  A    between atoms: C_4  and  C_5
REMARK    2  A    between atoms: C_5  and  C_6
REMARK    3  A    between atoms: N_15  and  C_16
REMARK    4  A    between atoms: C_21  and  O_22
REMARK                            x       y       z     vdW  Elec       q    Type
REMARK                         _______ _______ _______ _____ _____    ______ ____
ROOT
ATOM      1  N   UNL     1       8.417   5.272  20.004  0.00  0.00    +0.000 N 
ATOM      2  C   UNL     1       7.887   5.976  18.930  0.00  0.00    +0.000 A 
ATOM      3  N   UNL     1       7.065   5.338  18.052  0.00  0.00    +0.000 NA
ATOM      4  C   UNL     1       6.508   6.023  16.991  0.00  0.00    +0.000 A 
ATOM      5  N   UNL     1       6.681   7.334  16.654  0.00  0.00    +0.000 NA
ATOM      6  C   UNL     1       7.512   7.941  17.521  0.00  0.00    +0.000 A 
ATOM      7  C   UNL     1       7.890   9.245  17.487  0.00  0.00    +0.000 A 
ATOM      8  N   UNL     1       8.754   9.414  18.545  0.00  0.00    +0.000 N 
ATOM      9  N   UNL     1       8.872   8.271  19.297  0.00  0.00    +0.000 NA
ATOM     10  C   UNL     1       8.129   7.345  18.654  0.00  0.00    +0.000 A 
ATOM     11  H   UNL     1       8.431   4.274  19.836  0.00  0.00    +0.000 HD
ATOM     12  H   UNL     1       9.256   5.697  20.386  0.00  0.00    +0.000 HD
ENDROOT
BRANCH   8  13
ATOM     13  C   UNL     1       9.462  10.597  18.919  0.00  0.00    +0.000 A 
ATOM     14  C   UNL     1       9.980  11.420  17.901  0.00  0.00    +0.000 A 
ATOM     15  C   UNL     1      10.717  12.564  18.218  0.00  0.00    +0.000 A 
ATOM     16  C   UNL     1      10.927  12.913  19.550  0.00  0.00    +0.000 A 
ATOM     17  C   UNL     1      10.395  12.122  20.566  0.00  0.00    +0.000 A 
ATOM     18  C   UNL     1       9.667  10.969  20.255  0.00  0.00    +0.000 A 
BRANCH  18  19
ATOM     19  O   UNL     1       9.121  10.261  21.287  0.00  0.00    +0.000 OA
ATOM     20  H   UNL     1       9.827   9.831  21.799  0.00  0.00    +0.000 HD
ENDBRANCH  18  19
ENDBRANCH   8  13
BRANCH   4  21
ATOM     21  C   UNL     1       5.533   5.248  16.131  0.00  0.00    +0.000 C 
BRANCH  21  22
ATOM     22  C   UNL     1       6.081   4.810  14.792  0.00  0.00    +0.000 A 
ATOM     23  C   UNL     1       5.361   3.916  13.989  0.00  0.00    +0.000 A 
ATOM     24  C   UNL     1       5.840   3.548  12.731  0.00  0.00    +0.000 A 
ATOM     25  C   UNL     1       7.048   4.064  12.266  0.00  0.00    +0.000 A 
ATOM     26  C   UNL     1       7.786   4.935  13.066  0.00  0.00    +0.000 A 
ATOM     27  C   UNL     1       7.309   5.303  14.325  0.00  0.00    +0.000 A 
ENDBRANCH  21  22
ENDBRANCH   4  21
TORSDOF 4
ENDMDL
