MODEL 1
REMARK VINA RESULT:      -9.1      0.000      0.000
REMARK  Name = 
REMARK  4 active torsions:
REMARK  status: ('A' for Active; 'I' for Inactive)
REMARK    1  A    between atoms: C_1  and  N_2
REMARK    2  A    between atoms: C_9  and  N_10
REMARK    3  A    between atoms: C_11  and  C_13
REMARK    4  A    between atoms: C_18  and  N_19
REMARK                            x       y       z     vdW  Elec       q    Type
REMARK                         _______ _______ _______ _____ _____    ______ ____
ROOT
ATOM      1  N   UNL     1       0.791   7.636  21.277  0.00  0.00    +0.000 N 
ATOM      2  C   UNL     1       1.699   7.391  20.258  0.00  0.00    +0.000 C 
ATOM      3  O   UNL     1       2.106   8.212  19.441  0.00  0.00    +0.000 OA
ATOM      4  H   UNL     1       0.575   6.893  21.928  0.00  0.00    +0.000 HD
ENDROOT
BRANCH   1  13
ATOM      5  C   UNL     1      -4.316  15.457  23.699  0.00  0.00    +0.000 C 
ATOM      6  N   UNL     1      -3.201  14.892  22.941  0.00  0.00    +0.000 NA
ATOM      7  C   UNL     1      -3.690  13.927  21.919  0.00  0.00    +0.000 C 
ATOM      8  C   UNL     1      -2.547  13.199  21.150  0.00  0.00    +0.000 C 
ATOM      9  N   UNL     1      -1.668  12.583  22.140  0.00  0.00    +0.000 N 
ATOM     10  C   UNL     1      -1.030  11.388  21.896  0.00  0.00    +0.000 A 
ATOM     11  C   UNL     1      -0.676  10.603  22.988  0.00  0.00    +0.000 A 
ATOM     12  C   UNL     1      -0.074   9.364  22.811  0.00  0.00    +0.000 A 
ATOM     13  C   UNL     1       0.184   8.895  21.533  0.00  0.00    +0.000 A 
ATOM     14  C   UNL     1      -0.205   9.731  20.489  0.00  0.00    +0.000 A 
ATOM     15  N   UNL     1      -0.816  10.944  20.640  0.00  0.00    +0.000 NA
ATOM     16  C   UNL     1      -1.099  13.532  23.102  0.00  0.00    +0.000 C 
ATOM     17  C   UNL     1      -2.257  14.214  23.859  0.00  0.00    +0.000 C 
ENDBRANCH   1  13
BRANCH   2  18
ATOM     18  C   UNL     1       2.264   6.020  20.134  0.00  0.00    +0.000 A 
ATOM     19  C   UNL     1       1.666   4.875  20.651  0.00  0.00    +0.000 A 
ATOM     20  C   UNL     1       2.262   3.630  20.415  0.00  0.00    +0.000 A 
ATOM     21  C   UNL     1       3.445   3.517  19.661  0.00  0.00    +0.000 A 
ATOM     22 CL   UNL     1       3.975   1.914  19.288  0.00  0.00    +0.000 Cl
ATOM     23  C   UNL     1       4.047   4.664  19.122  0.00  0.00    +0.000 A 
ATOM     24  C   UNL     1       3.439   5.902  19.370  0.00  0.00    +0.000 A 
BRANCH  23  25
ATOM     25  N   UNL     1       5.205   4.639  18.300  0.00  0.00    +0.000 N 
ATOM     26  C   UNL     1       5.130   4.654  16.857  0.00  0.00    +0.000 C 
ATOM     27  C   UNL     1       6.567   4.467  16.423  0.00  0.00    +0.000 C 
ATOM     28  C   UNL     1       7.349   5.186  17.512  0.00  0.00    +0.000 C 
ATOM     29  C   UNL     1       6.477   5.035  18.737  0.00  0.00    +0.000 C 
ATOM     30  O   UNL     1       6.829   5.340  19.866  0.00  0.00    +0.000 OA
ENDBRANCH  23  25
ENDBRANCH   2  18
TORSDOF 3
ENDMDL
MODEL 2
REMARK VINA RESULT:      -9.1      0.927      1.493
REMARK  Name = 
REMARK  4 active torsions:
REMARK  status: ('A' for Active; 'I' for Inactive)
REMARK    1  A    between atoms: C_1  and  N_2
REMARK    2  A    between atoms: C_9  and  N_10
REMARK    3  A    between atoms: C_11  and  C_13
REMARK    4  A    between atoms: C_18  and  N_19
REMARK                            x       y       z     vdW  Elec       q    Type
REMARK                         _______ _______ _______ _____ _____    ______ ____
ROOT
ATOM      1  N   UNL     1       0.854   7.795  21.172  0.00  0.00    +0.000 N 
ATOM      2  C   UNL     1       1.744   7.499  20.149  0.00  0.00    +0.000 C 
ATOM      3  O   UNL     1       2.141   8.280  19.290  0.00  0.00    +0.000 OA
ATOM      4  H   UNL     1       0.646   7.083  21.859  0.00  0.00    +0.000 HD
ENDROOT
BRANCH   1  13
ATOM      5  C   UNL     1      -2.225  16.924  21.702  0.00  0.00    +0.000 C 
ATOM      6  N   UNL     1      -2.323  15.554  22.200  0.00  0.00    +0.000 NA
ATOM      7  C   UNL     1      -1.043  15.124  22.827  0.00  0.00    +0.000 C 
ATOM      8  C   UNL     1      -1.039  13.633  23.278  0.00  0.00    +0.000 C 
ATOM      9  N   UNL     1      -1.408  12.819  22.124  0.00  0.00    +0.000 N 
ATOM     10  C   UNL     1      -0.881  11.563  21.926  0.00  0.00    +0.000 A 
ATOM     11  C   UNL     1      -0.821  11.078  20.624  0.00  0.00    +0.000 A 
ATOM     12  C   UNL     1      -0.255   9.839  20.350  0.00  0.00    +0.000 A 
ATOM     13  C   UNL     1       0.257   9.067  21.380  0.00  0.00    +0.000 A 
ATOM     14  C   UNL     1       0.170   9.620  22.655  0.00  0.00    +0.000 A 
ATOM     15  N   UNL     1      -0.364  10.844  22.945  0.00  0.00    +0.000 NA
ATOM     16  C   UNL     1      -2.712  13.163  21.546  0.00  0.00    +0.000 C 
ATOM     17  C   UNL     1      -2.670  14.635  21.090  0.00  0.00    +0.000 C 
ENDBRANCH   1  13
BRANCH   2  18
ATOM     18  C   UNL     1       2.301   6.122  20.079  0.00  0.00    +0.000 A 
ATOM     19  C   UNL     1       1.695   5.000  20.637  0.00  0.00    +0.000 A 
ATOM     20  C   UNL     1       2.284   3.743  20.449  0.00  0.00    +0.000 A 
ATOM     21  C   UNL     1       3.469   3.596  19.703  0.00  0.00    +0.000 A 
ATOM     22 CL   UNL     1       3.990   1.976  19.392  0.00  0.00    +0.000 Cl
ATOM     23  C   UNL     1       4.079   4.718  19.124  0.00  0.00    +0.000 A 
ATOM     24  C   UNL     1       3.478   5.967  19.324  0.00  0.00    +0.000 A 
BRANCH  23  25
ATOM     25  N   UNL     1       5.239   4.656  18.306  0.00  0.00    +0.000 N 
ATOM     26  C   UNL     1       5.170   4.661  16.864  0.00  0.00    +0.000 C 
ATOM     27  C   UNL     1       6.604   4.431  16.437  0.00  0.00    +0.000 C 
ATOM     28  C   UNL     1       7.400   5.138  17.523  0.00  0.00    +0.000 C 
ATOM     29  C   UNL     1       6.520   5.020  18.746  0.00  0.00    +0.000 C 
ATOM     30  O   UNL     1       6.875   5.325  19.873  0.00  0.00    +0.000 OA
ENDBRANCH  23  25
ENDBRANCH   2  18
TORSDOF 3
ENDMDL
MODEL 3
REMARK VINA RESULT:      -8.7      2.302      3.429
REMARK  Name = 
REMARK  4 active torsions:
REMARK  status: ('A' for Active; 'I' for Inactive)
REMARK    1  A    between atoms: C_1  and  N_2
REMARK    2  A    between atoms: C_9  and  N_10
REMARK    3  A    between atoms: C_11  and  C_13
REMARK    4  A    between atoms: C_18  and  N_19
REMARK                            x       y       z     vdW  Elec       q    Type
REMARK                         _______ _______ _______ _____ _____    ______ ____
ROOT
ATOM      1  N   UNL     1       1.152   9.128  19.526  0.00  0.00    +0.000 N 
ATOM      2  C   UNL     1       1.869   8.993  18.346  0.00  0.00    +0.000 C 
ATOM      3  O   UNL     1       1.947   9.827  17.449  0.00  0.00    +0.000 OA
ATOM      4  H   UNL     1       1.210   8.396  20.220  0.00  0.00    +0.000 HD
ENDROOT
BRANCH   1  13
ATOM      5  C   UNL     1      -4.002  16.397  23.230  0.00  0.00    +0.000 C 
ATOM      6  N   UNL     1      -3.483  15.728  22.039  0.00  0.00    +0.000 NA
ATOM      7  C   UNL     1      -4.048  14.357  21.911  0.00  0.00    +0.000 C 
ATOM      8  C   UNL     1      -3.450  13.543  20.724  0.00  0.00    +0.000 C 
ATOM      9  N   UNL     1      -1.997  13.549  20.869  0.00  0.00    +0.000 N 
ATOM     10  C   UNL     1      -1.229  12.473  20.489  0.00  0.00    +0.000 A 
ATOM     11  C   UNL     1       0.001  12.296  21.115  0.00  0.00    +0.000 A 
ATOM     12  C   UNL     1       0.803  11.203  20.814  0.00  0.00    +0.000 A 
ATOM     13  C   UNL     1       0.385  10.272  19.878  0.00  0.00    +0.000 A 
ATOM     14  C   UNL     1      -0.859  10.510  19.299  0.00  0.00    +0.000 A 
ATOM     15  N   UNL     1      -1.673  11.567  19.594  0.00  0.00    +0.000 NA
ATOM     16  C   UNL     1      -1.409  14.892  20.903  0.00  0.00    +0.000 C 
ATOM     17  C   UNL     1      -2.005  15.657  22.101  0.00  0.00    +0.000 C 
ENDBRANCH   1  13
BRANCH   2  18
ATOM     18  C   UNL     1       2.642   7.740  18.133  0.00  0.00    +0.000 A 
ATOM     19  C   UNL     1       3.772   7.642  17.327  0.00  0.00    +0.000 A 
ATOM     20  C   UNL     1       4.454   6.421  17.256  0.00  0.00    +0.000 A 
ATOM     21  C   UNL     1       4.022   5.299  17.987  0.00  0.00    +0.000 A 
ATOM     22 CL   UNL     1       5.053   3.911  17.956  0.00  0.00    +0.000 Cl
ATOM     23  C   UNL     1       2.892   5.392  18.814  0.00  0.00    +0.000 A 
ATOM     24  C   UNL     1       2.221   6.619  18.872  0.00  0.00    +0.000 A 
BRANCH  23  25
ATOM     25  N   UNL     1       2.421   4.331  19.633  0.00  0.00    +0.000 N 
ATOM     26  C   UNL     1       2.348   4.438  21.072  0.00  0.00    +0.000 C 
ATOM     27  C   UNL     1       1.943   3.049  21.514  0.00  0.00    +0.000 C 
ATOM     28  C   UNL     1       1.047   2.578  20.379  0.00  0.00    +0.000 C 
ATOM     29  C   UNL     1       1.595   3.298  19.168  0.00  0.00    +0.000 C 
ATOM     30  O   UNL     1       1.248   3.065  18.021  0.00  0.00    +0.000 OA
ENDBRANCH  23  25
ENDBRANCH   2  18
TORSDOF 3
ENDMDL
MODEL 4
REMARK VINA RESULT:      -8.7      0.865      1.133
REMARK  Name = 
REMARK  4 active torsions:
REMARK  status: ('A' for Active; 'I' for Inactive)
REMARK    1  A    between atoms: C_1  and  N_2
REMARK    2  A    between atoms: C_9  and  N_10
REMARK    3  A    between atoms: C_11  and  C_13
REMARK    4  A    between atoms: C_18  and  N_19
REMARK                            x       y       z     vdW  Elec       q    Type
REMARK                         _______ _______ _______ _____ _____    ______ ____
ROOT
ATOM      1  N   UNL     1       0.758   7.847  21.376  0.00  0.00    +0.000 N 
ATOM      2  C   UNL     1       1.563   7.603  20.273  0.00  0.00    +0.000 C 
ATOM      3  O   UNL     1       1.829   8.404  19.382  0.00  0.00    +0.000 OA
ATOM      4  H   UNL     1       0.660   7.127  22.078  0.00  0.00    +0.000 HD
ENDROOT
BRANCH   1  13
ATOM      5  C   UNL     1      -4.665  15.453  23.793  0.00  0.00    +0.000 C 
ATOM      6  N   UNL     1      -3.499  14.943  23.077  0.00  0.00    +0.000 NA
ATOM      7  C   UNL     1      -3.908  14.004  21.997  0.00  0.00    +0.000 C 
ATOM      8  C   UNL     1      -2.707  13.332  21.265  0.00  0.00    +0.000 C 
ATOM      9  N   UNL     1      -1.867  12.701  22.279  0.00  0.00    +0.000 N 
ATOM     10  C   UNL     1      -1.187  11.531  22.028  0.00  0.00    +0.000 A 
ATOM     11  C   UNL     1      -0.872  10.715  23.109  0.00  0.00    +0.000 A 
ATOM     12  C   UNL     1      -0.230   9.497  22.921  0.00  0.00    +0.000 A 
ATOM     13  C   UNL     1       0.107   9.081  21.643  0.00  0.00    +0.000 A 
ATOM     14  C   UNL     1      -0.247   9.946  20.610  0.00  0.00    +0.000 A 
ATOM     15  N   UNL     1      -0.895  11.138  20.770  0.00  0.00    +0.000 NA
ATOM     16  C   UNL     1      -1.374  13.628  23.303  0.00  0.00    +0.000 C 
ATOM     17  C   UNL     1      -2.587  14.254  24.020  0.00  0.00    +0.000 C 
ENDBRANCH   1  13
BRANCH   2  18
ATOM     18  C   UNL     1       2.194   6.262  20.147  0.00  0.00    +0.000 A 
ATOM     19  C   UNL     1       1.625   5.079  20.611  0.00  0.00    +0.000 A 
ATOM     20  C   UNL     1       2.286   3.867  20.376  0.00  0.00    +0.000 A 
ATOM     21  C   UNL     1       3.507   3.824  19.677  0.00  0.00    +0.000 A 
ATOM     22 CL   UNL     1       4.124   2.255  19.295  0.00  0.00    +0.000 Cl
ATOM     23  C   UNL     1       4.081   5.009  19.192  0.00  0.00    +0.000 A 
ATOM     24  C   UNL     1       3.408   6.212  19.438  0.00  0.00    +0.000 A 
BRANCH  23  25
ATOM     25  N   UNL     1       5.276   5.054  18.425  0.00  0.00    +0.000 N 
ATOM     26  C   UNL     1       6.582   5.156  19.033  0.00  0.00    +0.000 C 
ATOM     27  C   UNL     1       7.514   5.322  17.852  0.00  0.00    +0.000 C 
ATOM     28  C   UNL     1       6.843   4.490  16.769  0.00  0.00    +0.000 C 
ATOM     29  C   UNL     1       5.373   4.577  17.110  0.00  0.00    +0.000 C 
ATOM     30  O   UNL     1       4.480   4.170  16.384  0.00  0.00    +0.000 OA
ENDBRANCH  23  25
ENDBRANCH   2  18
TORSDOF 3
ENDMDL
MODEL 5
REMARK VINA RESULT:      -8.7      2.360      3.640
REMARK  Name = 
REMARK  4 active torsions:
REMARK  status: ('A' for Active; 'I' for Inactive)
REMARK    1  A    between atoms: C_1  and  N_2
REMARK    2  A    between atoms: C_9  and  N_10
REMARK    3  A    between atoms: C_11  and  C_13
REMARK    4  A    between atoms: C_18  and  N_19
REMARK                            x       y       z     vdW  Elec       q    Type
REMARK                         _______ _______ _______ _____ _____    ______ ____
ROOT
ATOM      1  N   UNL     1       1.134   9.132  19.596  0.00  0.00    +0.000 N 
ATOM      2  C   UNL     1       1.882   9.043  18.431  0.00  0.00    +0.000 C 
ATOM      3  O   UNL     1       2.019   9.929  17.593  0.00  0.00    +0.000 OA
ATOM      4  H   UNL     1       1.143   8.355  20.243  0.00  0.00    +0.000 HD
ENDROOT
BRANCH   1  13
ATOM      5  C   UNL     1      -3.727  17.348  21.003  0.00  0.00    +0.000 C 
ATOM      6  N   UNL     1      -3.108  16.161  21.588  0.00  0.00    +0.000 NA
ATOM      7  C   UNL     1      -1.639  16.155  21.346  0.00  0.00    +0.000 C 
ATOM      8  C   UNL     1      -0.930  14.859  21.843  0.00  0.00    +0.000 C 
ATOM      9  N   UNL     1      -1.611  13.719  21.236  0.00  0.00    +0.000 N 
ATOM     10  C   UNL     1      -0.931  12.576  20.881  0.00  0.00    +0.000 A 
ATOM     11  C   UNL     1      -1.464  11.789  19.865  0.00  0.00    +0.000 A 
ATOM     12  C   UNL     1      -0.803  10.650  19.425  0.00  0.00    +0.000 A 
ATOM     13  C   UNL     1       0.402  10.281  20.000  0.00  0.00    +0.000 A 
ATOM     14  C   UNL     1       0.877  11.120  21.005  0.00  0.00    +0.000 A 
ATOM     15  N   UNL     1       0.254  12.256  21.440  0.00  0.00    +0.000 NA
ATOM     16  C   UNL     1      -3.044  13.653  21.540  0.00  0.00    +0.000 C 
ATOM     17  C   UNL     1      -3.715  14.937  21.013  0.00  0.00    +0.000 C 
ENDBRANCH   1  13
BRANCH   2  18
ATOM     18  C   UNL     1       2.612   7.776  18.159  0.00  0.00    +0.000 A 
ATOM     19  C   UNL     1       3.702   7.667  17.301  0.00  0.00    +0.000 A 
ATOM     20  C   UNL     1       4.349   6.431  17.176  0.00  0.00    +0.000 A 
ATOM     21  C   UNL     1       3.921   5.305  17.904  0.00  0.00    +0.000 A 
ATOM     22 CL   UNL     1       4.913   3.893  17.799  0.00  0.00    +0.000 Cl
ATOM     23  C   UNL     1       2.832   5.409  18.782  0.00  0.00    +0.000 A 
ATOM     24  C   UNL     1       2.195   6.651  18.894  0.00  0.00    +0.000 A 
BRANCH  23  25
ATOM     25  N   UNL     1       2.370   4.344  19.601  0.00  0.00    +0.000 N 
ATOM     26  C   UNL     1       2.300   4.448  21.040  0.00  0.00    +0.000 C 
ATOM     27  C   UNL     1       1.906   3.055  21.480  0.00  0.00    +0.000 C 
ATOM     28  C   UNL     1       1.011   2.579  20.347  0.00  0.00    +0.000 C 
ATOM     29  C   UNL     1       1.551   3.305  19.135  0.00  0.00    +0.000 C 
ATOM     30  O   UNL     1       1.202   3.071  17.989  0.00  0.00    +0.000 OA
ENDBRANCH  23  25
ENDBRANCH   2  18
TORSDOF 3
ENDMDL
MODEL 6
REMARK VINA RESULT:      -8.6      1.213      1.841
REMARK  Name = 
REMARK  4 active torsions:
REMARK  status: ('A' for Active; 'I' for Inactive)
REMARK    1  A    between atoms: C_1  and  N_2
REMARK    2  A    between atoms: C_9  and  N_10
REMARK    3  A    between atoms: C_11  and  C_13
REMARK    4  A    between atoms: C_18  and  N_19
REMARK                            x       y       z     vdW  Elec       q    Type
REMARK                         _______ _______ _______ _____ _____    ______ ____
ROOT
ATOM      1  N   UNL     1       0.825   7.998  21.285  0.00  0.00    +0.000 N 
ATOM      2  C   UNL     1       1.618   7.703  20.185  0.00  0.00    +0.000 C 
ATOM      3  O   UNL     1       1.880   8.464  19.259  0.00  0.00    +0.000 OA
ATOM      4  H   UNL     1       0.729   7.307  22.017  0.00  0.00    +0.000 HD
ENDROOT
BRANCH   1  13
ATOM      5  C   UNL     1      -2.545  17.016  21.941  0.00  0.00    +0.000 C 
ATOM      6  N   UNL     1      -2.610  15.633  22.409  0.00  0.00    +0.000 NA
ATOM      7  C   UNL     1      -1.329  15.229  23.052  0.00  0.00    +0.000 C 
ATOM      8  C   UNL     1      -1.287  13.729  23.472  0.00  0.00    +0.000 C 
ATOM      9  N   UNL     1      -1.609  12.929  22.295  0.00  0.00    +0.000 N 
ATOM     10  C   UNL     1      -1.039  11.694  22.082  0.00  0.00    +0.000 A 
ATOM     11  C   UNL     1      -0.940  11.239  20.772  0.00  0.00    +0.000 A 
ATOM     12  C   UNL     1      -0.331  10.024  20.483  0.00  0.00    +0.000 A 
ATOM     13  C   UNL     1       0.185   9.246  21.507  0.00  0.00    +0.000 A 
ATOM     14  C   UNL     1       0.057   9.770  22.791  0.00  0.00    +0.000 A 
ATOM     15  N   UNL     1      -0.521  10.970  23.096  0.00  0.00    +0.000 NA
ATOM     16  C   UNL     1      -2.911  13.245  21.699  0.00  0.00    +0.000 C 
ATOM     17  C   UNL     1      -2.907  14.728  21.274  0.00  0.00    +0.000 C 
ENDBRANCH   1  13
BRANCH   2  18
ATOM     18  C   UNL     1       2.238   6.353  20.107  0.00  0.00    +0.000 A 
ATOM     19  C   UNL     1       1.665   5.195  20.625  0.00  0.00    +0.000 A 
ATOM     20  C   UNL     1       2.316   3.969  20.433  0.00  0.00    +0.000 A 
ATOM     21  C   UNL     1       3.529   3.889  19.725  0.00  0.00    +0.000 A 
ATOM     22 CL   UNL     1       4.132   2.300  19.401  0.00  0.00    +0.000 Cl
ATOM     23  C   UNL     1       4.107   5.048  19.186  0.00  0.00    +0.000 A 
ATOM     24  C   UNL     1       3.444   6.266  19.389  0.00  0.00    +0.000 A 
BRANCH  23  25
ATOM     25  N   UNL     1       5.294   5.053  18.406  0.00  0.00    +0.000 N 
ATOM     26  C   UNL     1       6.608   5.143  18.999  0.00  0.00    +0.000 C 
ATOM     27  C   UNL     1       7.530   5.265  17.804  0.00  0.00    +0.000 C 
ATOM     28  C   UNL     1       6.833   4.423  16.747  0.00  0.00    +0.000 C 
ATOM     29  C   UNL     1       5.368   4.546  17.101  0.00  0.00    +0.000 C 
ATOM     30  O   UNL     1       4.460   4.142  16.393  0.00  0.00    +0.000 OA
ENDBRANCH  23  25
ENDBRANCH   2  18
TORSDOF 3
ENDMDL
MODEL 7
REMARK VINA RESULT:      -8.5      2.192      3.156
REMARK  Name = 
REMARK  4 active torsions:
REMARK  status: ('A' for Active; 'I' for Inactive)
REMARK    1  A    between atoms: C_1  and  N_2
REMARK    2  A    between atoms: C_9  and  N_10
REMARK    3  A    between atoms: C_11  and  C_13
REMARK    4  A    between atoms: C_18  and  N_19
REMARK                            x       y       z     vdW  Elec       q    Type
REMARK                         _______ _______ _______ _____ _____    ______ ____
ROOT
ATOM      1  N   UNL     1       1.996   8.187  19.316  0.00  0.00    +0.000 N 
ATOM      2  C   UNL     1       2.493   8.340  18.030  0.00  0.00    +0.000 C 
ATOM      3  O   UNL     1       2.225   9.255  17.257  0.00  0.00    +0.000 OA
ATOM      4  H   UNL     1       2.336   7.422  19.883  0.00  0.00    +0.000 HD
ENDROOT
BRANCH   1  13
ATOM      5  C   UNL     1      -5.107  13.195  23.509  0.00  0.00    +0.000 C 
ATOM      6  N   UNL     1      -3.762  13.196  22.937  0.00  0.00    +0.000 NA
ATOM      7  C   UNL     1      -3.800  12.850  21.490  0.00  0.00    +0.000 C 
ATOM      8  C   UNL     1      -2.389  12.720  20.841  0.00  0.00    +0.000 C 
ATOM      9  N   UNL     1      -1.622  11.764  21.635  0.00  0.00    +0.000 N 
ATOM     10  C   UNL     1      -0.699  10.922  21.058  0.00  0.00    +0.000 A 
ATOM     11  C   UNL     1      -0.415   9.724  21.705  0.00  0.00    +0.000 A 
ATOM     12  C   UNL     1       0.469   8.807  21.152  0.00  0.00    +0.000 A 
ATOM     13  C   UNL     1       1.086   9.080  19.942  0.00  0.00    +0.000 A 
ATOM     14  C   UNL     1       0.748  10.295  19.349  0.00  0.00    +0.000 A 
ATOM     15  N   UNL     1      -0.134  11.202  19.865  0.00  0.00    +0.000 NA
ATOM     16  C   UNL     1      -1.491  12.135  23.048  0.00  0.00    +0.000 C 
ATOM     17  C   UNL     1      -2.903  12.230  23.661  0.00  0.00    +0.000 C 
ENDBRANCH   1  13
BRANCH   2  18
ATOM     18  C   UNL     1       3.459   7.328  17.524  0.00  0.00    +0.000 A 
ATOM     19  C   UNL     1       4.528   7.616  16.681  0.00  0.00    +0.000 A 
ATOM     20  C   UNL     1       5.409   6.588  16.324  0.00  0.00    +0.000 A 
ATOM     21  C   UNL     1       5.236   5.276  16.805  0.00  0.00    +0.000 A 
ATOM     22 CL   UNL     1       6.492   4.146  16.439  0.00  0.00    +0.000 Cl
ATOM     23  C   UNL     1       4.170   4.980  17.667  0.00  0.00    +0.000 A 
ATOM     24  C   UNL     1       3.297   6.019  18.013  0.00  0.00    +0.000 A 
BRANCH  23  25
ATOM     25  N   UNL     1       3.954   3.702  18.249  0.00  0.00    +0.000 N 
ATOM     26  C   UNL     1       4.459   3.352  19.557  0.00  0.00    +0.000 C 
ATOM     27  C   UNL     1       4.123   1.882  19.687  0.00  0.00    +0.000 C 
ATOM     28  C   UNL     1       2.814   1.761  18.922  0.00  0.00    +0.000 C 
ATOM     29  C   UNL     1       2.915   2.840  17.868  0.00  0.00    +0.000 C 
ATOM     30  O   UNL     1       2.127   2.967  16.945  0.00  0.00    +0.000 OA
ENDBRANCH  23  25
ENDBRANCH   2  18
TORSDOF 3
ENDMDL
MODEL 8
REMARK VINA RESULT:      -8.3      1.958      2.893
REMARK  Name = 
REMARK  4 active torsions:
REMARK  status: ('A' for Active; 'I' for Inactive)
REMARK    1  A    between atoms: C_1  and  N_2
REMARK    2  A    between atoms: C_9  and  N_10
REMARK    3  A    between atoms: C_11  and  C_13
REMARK    4  A    between atoms: C_18  and  N_19
REMARK                            x       y       z     vdW  Elec       q    Type
REMARK                         _______ _______ _______ _____ _____    ______ ____
ROOT
ATOM      1  N   UNL     1       1.268   9.409  19.212  0.00  0.00    +0.000 N 
ATOM      2  C   UNL     1       1.719   8.173  19.651  0.00  0.00    +0.000 C 
ATOM      3  O   UNL     1       1.484   7.665  20.743  0.00  0.00    +0.000 OA
ATOM      4  H   UNL     1       1.477   9.698  18.266  0.00  0.00    +0.000 HD
ENDROOT
BRANCH   1  13
ATOM      5  C   UNL     1      -4.221  16.227  23.273  0.00  0.00    +0.000 C 
ATOM      6  N   UNL     1      -3.488  14.973  23.429  0.00  0.00    +0.000 NA
ATOM      7  C   UNL     1      -2.031  15.178  23.199  0.00  0.00    +0.000 C 
ATOM      8  C   UNL     1      -1.201  13.859  23.236  0.00  0.00    +0.000 C 
ATOM      9  N   UNL     1      -1.802  12.929  22.285  0.00  0.00    +0.000 N 
ATOM     10  C   UNL     1      -1.040  12.034  21.570  0.00  0.00    +0.000 A 
ATOM     11  C   UNL     1      -1.534  11.585  20.350  0.00  0.00    +0.000 A 
ATOM     12  C   UNL     1      -0.794  10.719  19.555  0.00  0.00    +0.000 A 
ATOM     13  C   UNL     1       0.454  10.289  19.975  0.00  0.00    +0.000 A 
ATOM     14  C   UNL     1       0.887  10.786  21.202  0.00  0.00    +0.000 A 
ATOM     15  N   UNL     1       0.184  11.653  21.990  0.00  0.00    +0.000 NA
ATOM     16  C   UNL     1      -3.215  12.639  22.549  0.00  0.00    +0.000 C 
ATOM     17  C   UNL     1      -4.007  13.961  22.480  0.00  0.00    +0.000 C 
ENDBRANCH   1  13
BRANCH   2  18
ATOM     18  C   UNL     1       2.547   7.357  18.722  0.00  0.00    +0.000 A 
ATOM     19  C   UNL     1       3.406   7.887  17.764  0.00  0.00    +0.000 A 
ATOM     20  C   UNL     1       4.184   7.017  16.990  0.00  0.00    +0.000 A 
ATOM     21  C   UNL     1       4.116   5.622  17.168  0.00  0.00    +0.000 A 
ATOM     22 CL   UNL     1       5.257   4.673  16.281  0.00  0.00    +0.000 Cl
ATOM     23  C   UNL     1       3.265   5.079  18.142  0.00  0.00    +0.000 A 
ATOM     24  C   UNL     1       2.492   5.963  18.905  0.00  0.00    +0.000 A 
BRANCH  23  25
ATOM     25  N   UNL     1       3.177   3.691  18.433  0.00  0.00    +0.000 N 
ATOM     26  C   UNL     1       2.288   2.805  17.718  0.00  0.00    +0.000 C 
ATOM     27  C   UNL     1       2.424   1.491  18.457  0.00  0.00    +0.000 C 
ATOM     28  C   UNL     1       3.878   1.499  18.902  0.00  0.00    +0.000 C 
ATOM     29  C   UNL     1       4.191   2.967  19.077  0.00  0.00    +0.000 C 
ATOM     30  O   UNL     1       5.218   3.389  19.583  0.00  0.00    +0.000 OA
ENDBRANCH  23  25
ENDBRANCH   2  18
TORSDOF 3
ENDMDL
MODEL 9
REMARK VINA RESULT:      -8.3      2.245      3.031
REMARK  Name = 
REMARK  4 active torsions:
REMARK  status: ('A' for Active; 'I' for Inactive)
REMARK    1  A    between atoms: C_1  and  N_2
REMARK    2  A    between atoms: C_9  and  N_10
REMARK    3  A    between atoms: C_11  and  C_13
REMARK    4  A    between atoms: C_18  and  N_19
REMARK                            x       y       z     vdW  Elec       q    Type
REMARK                         _______ _______ _______ _____ _____    ______ ____
ROOT
ATOM      1  N   UNL     1       1.168   9.332  18.238  0.00  0.00    +0.000 N 
ATOM      2  C   UNL     1       1.818   8.329  18.943  0.00  0.00    +0.000 C 
ATOM      3  O   UNL     1       1.698   8.096  20.142  0.00  0.00    +0.000 OA
ATOM      4  H   UNL     1       1.301   9.390  17.238  0.00  0.00    +0.000 HD
ENDROOT
BRANCH   1  13
ATOM      5  C   UNL     1      -4.884  14.886  23.301  0.00  0.00    +0.000 C 
ATOM      6  N   UNL     1      -4.313  14.544  22.000  0.00  0.00    +0.000 NA
ATOM      7  C   UNL     1      -4.670  13.151  21.613  0.00  0.00    +0.000 C 
ATOM      8  C   UNL     1      -3.998  12.679  20.289  0.00  0.00    +0.000 C 
ATOM      9  N   UNL     1      -2.559  12.881  20.425  0.00  0.00    +0.000 N 
ATOM     10  C   UNL     1      -1.651  12.027  19.841  0.00  0.00    +0.000 A 
ATOM     11  C   UNL     1      -0.388  11.925  20.414  0.00  0.00    +0.000 A 
ATOM     12  C   UNL     1       0.558  11.046  19.904  0.00  0.00    +0.000 A 
ATOM     13  C   UNL     1       0.252  10.256  18.808  0.00  0.00    +0.000 A 
ATOM     14  C   UNL     1      -1.033  10.406  18.292  0.00  0.00    +0.000 A 
ATOM     15  N   UNL     1      -1.986  11.250  18.789  0.00  0.00    +0.000 NA
ATOM     16  C   UNL     1      -2.177  14.267  20.713  0.00  0.00    +0.000 C 
ATOM     17  C   UNL     1      -2.839  14.690  22.040  0.00  0.00    +0.000 C 
ENDBRANCH   1  13
BRANCH   2  18
ATOM     18  C   UNL     1       2.733   7.425  18.197  0.00  0.00    +0.000 A 
ATOM     19  C   UNL     1       3.733   7.860  17.332  0.00  0.00    +0.000 A 
ATOM     20  C   UNL     1       4.576   6.914  16.735  0.00  0.00    +0.000 A 
ATOM     21  C   UNL     1       4.433   5.539  16.998  0.00  0.00    +0.000 A 
ATOM     22 CL   UNL     1       5.648   4.496  16.345  0.00  0.00    +0.000 Cl
ATOM     23  C   UNL     1       3.438   5.092  17.880  0.00  0.00    +0.000 A 
ATOM     24  C   UNL     1       2.603   6.051  18.467  0.00  0.00    +0.000 A 
BRANCH  23  25
ATOM     25  N   UNL     1       3.261   3.732  18.252  0.00  0.00    +0.000 N 
ATOM     26  C   UNL     1       2.391   2.838  17.524  0.00  0.00    +0.000 C 
ATOM     27  C   UNL     1       2.403   1.573  18.355  0.00  0.00    +0.000 C 
ATOM     28  C   UNL     1       3.816   1.549  18.919  0.00  0.00    +0.000 C 
ATOM     29  C   UNL     1       4.183   3.011  19.025  0.00  0.00    +0.000 C 
ATOM     30  O   UNL     1       5.186   3.423  19.587  0.00  0.00    +0.000 OA
ENDBRANCH  23  25
ENDBRANCH   2  18
TORSDOF 3
ENDMDL
