MODEL 1
REMARK VINA RESULT:      -7.1      0.000      0.000
REMARK  Name = 
REMARK  4 active torsions:
REMARK  status: ('A' for Active; 'I' for Inactive)
REMARK    1  A    between atoms: C_1  and  C_2
REMARK    2  A    between atoms: C_5  and  C_6
REMARK    3  A    between atoms: N_9  and  C_10
REMARK    4  A    between atoms: C_19  and  C_20
REMARK                            x       y       z     vdW  Elec       q    Type
REMARK                         _______ _______ _______ _____ _____    ______ ____
ROOT
ATOM      1  C   UNL     1      -1.163  11.046  20.059  0.00  0.00    +0.000 A 
ATOM      2  N   UNL     1      -1.880  11.851  20.896  0.00  0.00    +0.000 NA
ATOM      3  C   UNL     1      -1.403  12.094  22.119  0.00  0.00    +0.000 A 
ATOM      4  N   UNL     1      -2.056  12.952  22.983  0.00  0.00    +0.000 N 
ATOM      5  N   UNL     1      -0.278  11.564  22.589  0.00  0.00    +0.000 NA
ATOM      6  C   UNL     1       0.427  10.790  21.739  0.00  0.00    +0.000 A 
ATOM      7  C   UNL     1       0.069  10.494  20.431  0.00  0.00    +0.000 A 
ATOM      8  H   UNL     1      -1.688  12.778  23.913  0.00  0.00    +0.000 HD
ENDROOT
BRANCH   1  13
ATOM      9  C   UNL     1      -3.118  10.191  14.648  0.00  0.00    +0.000 C 
ATOM     10  C   UNL     1      -2.728  10.464  16.069  0.00  0.00    +0.000 A 
ATOM     11  C   UNL     1      -2.183  11.691  16.449  0.00  0.00    +0.000 A 
ATOM     12  C   UNL     1      -1.726  11.888  17.758  0.00  0.00    +0.000 A 
ATOM     13  C   UNL     1      -1.810  10.872  18.729  0.00  0.00    +0.000 A 
ATOM     14  C   UNL     1      -2.474   9.691  18.355  0.00  0.00    +0.000 A 
ATOM     15  C   UNL     1      -2.882   9.469  17.035  0.00  0.00    +0.000 A 
ENDBRANCH   1  13
BRANCH   4  16
ATOM     16  C   UNL     1      -3.490  13.110  22.825  0.00  0.00    +0.000 C 
ATOM     17  C   UNL     1      -4.197  12.710  24.130  0.00  0.00    +0.000 C 
ATOM     18  C   UNL     1      -5.630  13.184  23.976  0.00  0.00    +0.000 C 
ATOM     19  S   UNL     1      -5.475  14.798  23.238  0.00  0.00    +0.000 S 
ATOM     20  O   UNL     1      -5.414  15.780  24.299  0.00  0.00    +0.000 OA
ATOM     21  O   UNL     1      -6.438  14.902  22.160  0.00  0.00    +0.000 OA
ATOM     22  C   UNL     1      -3.847  14.574  22.557  0.00  0.00    +0.000 C 
ENDBRANCH   4  16
BRANCH   7  23
ATOM     23  C   UNL     1       0.968   9.684  19.585  0.00  0.00    +0.000 A 
ATOM     24  C   UNL     1       1.453   8.439  19.968  0.00  0.00    +0.000 A 
ATOM     25  N   UNL     1       2.221   7.636  19.200  0.00  0.00    +0.000 NA
ATOM     26  C   UNL     1       2.523   8.108  17.984  0.00  0.00    +0.000 A 
ATOM     27  N   UNL     1       2.162   9.302  17.502  0.00  0.00    +0.000 NA
ATOM     28  C   UNL     1       1.409  10.067  18.327  0.00  0.00    +0.000 A 
ENDBRANCH   7  23
TORSDOF 3
ENDMDL
MODEL 2
REMARK VINA RESULT:      -6.9      0.494      1.046
REMARK  Name = 
REMARK  4 active torsions:
REMARK  status: ('A' for Active; 'I' for Inactive)
REMARK    1  A    between atoms: C_1  and  C_2
REMARK    2  A    between atoms: C_5  and  C_6
REMARK    3  A    between atoms: N_9  and  C_10
REMARK    4  A    between atoms: C_19  and  C_20
REMARK                            x       y       z     vdW  Elec       q    Type
REMARK                         _______ _______ _______ _____ _____    ______ ____
ROOT
ATOM      1  C   UNL     1      -0.867  10.714  20.120  0.00  0.00    +0.000 A 
ATOM      2  N   UNL     1      -1.569  11.505  20.982  0.00  0.00    +0.000 NA
ATOM      3  C   UNL     1      -1.138  11.626  22.240  0.00  0.00    +0.000 A 
ATOM      4  N   UNL     1      -1.775  12.463  23.136  0.00  0.00    +0.000 N 
ATOM      5  N   UNL     1      -0.076  10.985  22.719  0.00  0.00    +0.000 NA
ATOM      6  C   UNL     1       0.617  10.227  21.846  0.00  0.00    +0.000 A 
ATOM      7  C   UNL     1       0.305  10.052  20.505  0.00  0.00    +0.000 A 
ATOM      8  H   UNL     1      -1.466  12.198  24.066  0.00  0.00    +0.000 HD
ENDROOT
BRANCH   1  13
ATOM      9  C   UNL     1      -3.717  10.759  15.049  0.00  0.00    +0.000 C 
ATOM     10  C   UNL     1      -2.884  10.694  16.294  0.00  0.00    +0.000 A 
ATOM     11  C   UNL     1      -2.864   9.552  17.096  0.00  0.00    +0.000 A 
ATOM     12  C   UNL     1      -2.165   9.551  18.309  0.00  0.00    +0.000 A 
ATOM     13  C   UNL     1      -1.456  10.682  18.753  0.00  0.00    +0.000 A 
ATOM     14  C   UNL     1      -1.390  11.776  17.870  0.00  0.00    +0.000 A 
ATOM     15  C   UNL     1      -2.132  11.803  16.685  0.00  0.00    +0.000 A 
ENDBRANCH   1  13
BRANCH   4  16
ATOM     16  C   UNL     1      -3.186  12.733  22.926  0.00  0.00    +0.000 C 
ATOM     17  C   UNL     1      -3.961  12.447  24.222  0.00  0.00    +0.000 C 
ATOM     18  C   UNL     1      -5.344  13.031  24.004  0.00  0.00    +0.000 C 
ATOM     19  S   UNL     1      -5.033  14.595  23.211  0.00  0.00    +0.000 S 
ATOM     20  O   UNL     1      -4.920  15.611  24.234  0.00  0.00    +0.000 OA
ATOM     21  O   UNL     1      -5.952  14.734  22.099  0.00  0.00    +0.000 OA
ATOM     22  C   UNL     1      -3.411  14.209  22.591  0.00  0.00    +0.000 C 
ENDBRANCH   4  16
BRANCH   7  23
ATOM     23  C   UNL     1       1.190   9.243  19.641  0.00  0.00    +0.000 A 
ATOM     24  C   UNL     1       1.708   8.012  20.027  0.00  0.00    +0.000 A 
ATOM     25  N   UNL     1       2.463   7.209  19.245  0.00  0.00    +0.000 NA
ATOM     26  C   UNL     1       2.716   7.667  18.013  0.00  0.00    +0.000 A 
ATOM     27  N   UNL     1       2.319   8.848  17.526  0.00  0.00    +0.000 NA
ATOM     28  C   UNL     1       1.582   9.614  18.363  0.00  0.00    +0.000 A 
ENDBRANCH   7  23
TORSDOF 3
ENDMDL
MODEL 3
REMARK VINA RESULT:      -6.8      5.446      7.491
REMARK  Name = 
REMARK  4 active torsions:
REMARK  status: ('A' for Active; 'I' for Inactive)
REMARK    1  A    between atoms: C_1  and  C_2
REMARK    2  A    between atoms: C_5  and  C_6
REMARK    3  A    between atoms: N_9  and  C_10
REMARK    4  A    between atoms: C_19  and  C_20
REMARK                            x       y       z     vdW  Elec       q    Type
REMARK                         _______ _______ _______ _____ _____    ______ ____
ROOT
ATOM      1  C   UNL     1       0.815  11.900  18.845  0.00  0.00    +0.000 A 
ATOM      2  N   UNL     1       1.858  12.725  19.148  0.00  0.00    +0.000 NA
ATOM      3  C   UNL     1       1.664  14.045  19.117  0.00  0.00    +0.000 A 
ATOM      4  N   UNL     1       2.668  14.924  19.477  0.00  0.00    +0.000 N 
ATOM      5  N   UNL     1       0.513  14.612  18.766  0.00  0.00    +0.000 NA
ATOM      6  C   UNL     1      -0.511  13.779  18.492  0.00  0.00    +0.000 A 
ATOM      7  C   UNL     1      -0.458  12.393  18.531  0.00  0.00    +0.000 A 
ATOM      8  H   UNL     1       2.406  15.839  19.124  0.00  0.00    +0.000 HD
ENDROOT
BRANCH   1  13
ATOM      9  C   UNL     1       2.791   6.453  19.367  0.00  0.00    +0.000 C 
ATOM     10  C   UNL     1       2.177   7.807  19.177  0.00  0.00    +0.000 A 
ATOM     11  C   UNL     1       2.344   8.521  17.989  0.00  0.00    +0.000 A 
ATOM     12  C   UNL     1       1.854   9.827  17.872  0.00  0.00    +0.000 A 
ATOM     13  C   UNL     1       1.174  10.457  18.931  0.00  0.00    +0.000 A 
ATOM     14  C   UNL     1       0.910   9.674  20.070  0.00  0.00    +0.000 A 
ATOM     15  C   UNL     1       1.446   8.390  20.213  0.00  0.00    +0.000 A 
ENDBRANCH   1  13
BRANCH   4  16
ATOM     16  C   UNL     1       4.042  14.486  19.312  0.00  0.00    +0.000 C 
ATOM     17  C   UNL     1       4.533  14.857  17.904  0.00  0.00    +0.000 C 
ATOM     18  C   UNL     1       6.035  14.639  17.928  0.00  0.00    +0.000 C 
ATOM     19  S   UNL     1       6.544  15.304  19.500  0.00  0.00    +0.000 S 
ATOM     20  O   UNL     1       6.892  16.696  19.315  0.00  0.00    +0.000 OA
ATOM     21  O   UNL     1       7.460  14.367  20.118  0.00  0.00    +0.000 OA
ATOM     22  C   UNL     1       4.961  15.201  20.306  0.00  0.00    +0.000 C 
ENDBRANCH   4  16
BRANCH   7  23
ATOM     23  C   UNL     1      -1.676  11.599  18.271  0.00  0.00    +0.000 A 
ATOM     24  C   UNL     1      -2.917  11.917  18.809  0.00  0.00    +0.000 A 
ATOM     25  N   UNL     1      -4.068  11.261  18.544  0.00  0.00    +0.000 NA
ATOM     26  C   UNL     1      -3.968  10.228  17.697  0.00  0.00    +0.000 A 
ATOM     27  N   UNL     1      -2.835   9.786  17.141  0.00  0.00    +0.000 NA
ATOM     28  C   UNL     1      -1.714  10.474  17.461  0.00  0.00    +0.000 A 
ENDBRANCH   7  23
TORSDOF 3
ENDMDL
MODEL 4
REMARK VINA RESULT:      -6.6      3.932      6.914
REMARK  Name = 
REMARK  4 active torsions:
REMARK  status: ('A' for Active; 'I' for Inactive)
REMARK    1  A    between atoms: C_1  and  C_2
REMARK    2  A    between atoms: C_5  and  C_6
REMARK    3  A    between atoms: N_9  and  C_10
REMARK    4  A    between atoms: C_19  and  C_20
REMARK                            x       y       z     vdW  Elec       q    Type
REMARK                         _______ _______ _______ _____ _____    ______ ____
ROOT
ATOM      1  C   UNL     1       2.532   6.910  18.653  0.00  0.00    +0.000 A 
ATOM      2  N   UNL     1       1.610   7.910  18.771  0.00  0.00    +0.000 NA
ATOM      3  C   UNL     1       1.804   9.046  18.098  0.00  0.00    +0.000 A 
ATOM      4  N   UNL     1       0.872  10.064  18.131  0.00  0.00    +0.000 N 
ATOM      5  N   UNL     1       2.872   9.280  17.341  0.00  0.00    +0.000 NA
ATOM      6  C   UNL     1       3.759   8.272  17.219  0.00  0.00    +0.000 A 
ATOM      7  C   UNL     1       3.656   7.028  17.826  0.00  0.00    +0.000 A 
ATOM      8  H   UNL     1       1.332  10.904  17.794  0.00  0.00    +0.000 HD
ENDROOT
BRANCH   1  13
ATOM      9  C   UNL     1       1.737   1.968  21.617  0.00  0.00    +0.000 C 
ATOM     10  C   UNL     1       1.817   3.266  20.872  0.00  0.00    +0.000 A 
ATOM     11  C   UNL     1       1.521   3.342  19.510  0.00  0.00    +0.000 A 
ATOM     12  C   UNL     1       1.707   4.541  18.810  0.00  0.00    +0.000 A 
ATOM     13  C   UNL     1       2.181   5.702  19.449  0.00  0.00    +0.000 A 
ATOM     14  C   UNL     1       2.353   5.633  20.843  0.00  0.00    +0.000 A 
ATOM     15  C   UNL     1       2.224   4.425  21.536  0.00  0.00    +0.000 A 
ENDBRANCH   1  13
BRANCH   4  16
ATOM     16  C   UNL     1       0.021  10.165  19.303  0.00  0.00    +0.000 C 
ATOM     17  C   UNL     1       0.801   9.706  20.545  0.00  0.00    +0.000 C 
ATOM     18  C   UNL     1      -0.046  10.122  21.733  0.00  0.00    +0.000 C 
ATOM     19  S   UNL     1      -0.610  11.758  21.310  0.00  0.00    +0.000 S 
ATOM     20  O   UNL     1       0.340  12.716  21.832  0.00  0.00    +0.000 OA
ATOM     21  O   UNL     1      -2.024  11.846  21.613  0.00  0.00    +0.000 OA
ATOM     22  C   UNL     1      -0.391  11.618  19.550  0.00  0.00    +0.000 C 
ENDBRANCH   4  16
BRANCH   7  23
ATOM     23  C   UNL     1       4.670   5.988  17.555  0.00  0.00    +0.000 A 
ATOM     24  C   UNL     1       4.834   5.396  16.309  0.00  0.00    +0.000 A 
ATOM     25  N   UNL     1       5.790   4.492  15.999  0.00  0.00    +0.000 NA
ATOM     26  C   UNL     1       6.622   4.161  16.994  0.00  0.00    +0.000 A 
ATOM     27  N   UNL     1       6.553   4.618  18.250  0.00  0.00    +0.000 NA
ATOM     28  C   UNL     1       5.563   5.506  18.500  0.00  0.00    +0.000 A 
ENDBRANCH   7  23
TORSDOF 3
ENDMDL
MODEL 5
REMARK VINA RESULT:      -6.6      2.982      4.419
REMARK  Name = 
REMARK  4 active torsions:
REMARK  status: ('A' for Active; 'I' for Inactive)
REMARK    1  A    between atoms: C_1  and  C_2
REMARK    2  A    between atoms: C_5  and  C_6
REMARK    3  A    between atoms: N_9  and  C_10
REMARK    4  A    between atoms: C_19  and  C_20
REMARK                            x       y       z     vdW  Elec       q    Type
REMARK                         _______ _______ _______ _____ _____    ______ ____
ROOT
ATOM      1  C   UNL     1      -1.216  12.858  20.909  0.00  0.00    +0.000 A 
ATOM      2  N   UNL     1      -2.539  12.880  21.244  0.00  0.00    +0.000 NA
ATOM      3  C   UNL     1      -3.174  14.053  21.279  0.00  0.00    +0.000 A 
ATOM      4  N   UNL     1      -4.526  14.126  21.551  0.00  0.00    +0.000 N 
ATOM      5  N   UNL     1      -2.580  15.219  21.042  0.00  0.00    +0.000 NA
ATOM      6  C   UNL     1      -1.279  15.174  20.691  0.00  0.00    +0.000 A 
ATOM      7  C   UNL     1      -0.514  14.022  20.572  0.00  0.00    +0.000 A 
ATOM      8  H   UNL     1      -4.733  15.089  21.794  0.00  0.00    +0.000 HD
ENDROOT
BRANCH   1  13
ATOM      9  C   UNL     1       1.586   7.762  20.791  0.00  0.00    +0.000 C 
ATOM     10  C   UNL     1       0.755   9.008  20.818  0.00  0.00    +0.000 A 
ATOM     11  C   UNL     1       0.308   9.609  19.640  0.00  0.00    +0.000 A 
ATOM     12  C   UNL     1      -0.375  10.831  19.683  0.00  0.00    +0.000 A 
ATOM     13  C   UNL     1      -0.644  11.483  20.901  0.00  0.00    +0.000 A 
ATOM     14  C   UNL     1      -0.293  10.798  22.078  0.00  0.00    +0.000 A 
ATOM     15  C   UNL     1       0.438   9.606  22.039  0.00  0.00    +0.000 A 
ENDBRANCH   1  13
BRANCH   4  16
ATOM     16  C   UNL     1      -5.114  13.069  22.354  0.00  0.00    +0.000 C 
ATOM     17  C   UNL     1      -4.705  13.253  23.823  0.00  0.00    +0.000 C 
ATOM     18  C   UNL     1      -5.589  12.305  24.612  0.00  0.00    +0.000 C 
ATOM     19  S   UNL     1      -7.196  12.492  23.868  0.00  0.00    +0.000 S 
ATOM     20  O   UNL     1      -7.911  13.526  24.583  0.00  0.00    +0.000 OA
ATOM     21  O   UNL     1      -7.763  11.173  23.669  0.00  0.00    +0.000 OA
ATOM     22  C   UNL     1      -6.642  13.138  22.306  0.00  0.00    +0.000 C 
ENDBRANCH   4  16
BRANCH   7  23
ATOM     23  C   UNL     1       0.887  14.110  20.114  0.00  0.00    +0.000 A 
ATOM     24  C   UNL     1       1.240  14.265  18.779  0.00  0.00    +0.000 A 
ATOM     25  N   UNL     1       2.503  14.418  18.323  0.00  0.00    +0.000 NA
ATOM     26  C   UNL     1       3.464  14.410  19.256  0.00  0.00    +0.000 A 
ATOM     27  N   UNL     1       3.272  14.226  20.567  0.00  0.00    +0.000 NA
ATOM     28  C   UNL     1       1.987  14.061  20.958  0.00  0.00    +0.000 A 
ENDBRANCH   7  23
TORSDOF 3
ENDMDL
MODEL 6
REMARK VINA RESULT:      -6.6      3.972      6.904
REMARK  Name = 
REMARK  4 active torsions:
REMARK  status: ('A' for Active; 'I' for Inactive)
REMARK    1  A    between atoms: C_1  and  C_2
REMARK    2  A    between atoms: C_5  and  C_6
REMARK    3  A    between atoms: N_9  and  C_10
REMARK    4  A    between atoms: C_19  and  C_20
REMARK                            x       y       z     vdW  Elec       q    Type
REMARK                         _______ _______ _______ _____ _____    ______ ____
ROOT
ATOM      1  C   UNL     1       2.586   6.782  18.673  0.00  0.00    +0.000 A 
ATOM      2  N   UNL     1       1.655   7.750  18.915  0.00  0.00    +0.000 NA
ATOM      3  C   UNL     1       1.765   8.920  18.282  0.00  0.00    +0.000 A 
ATOM      4  N   UNL     1       0.816   9.911  18.441  0.00  0.00    +0.000 N 
ATOM      5  N   UNL     1       2.759   9.216  17.449  0.00  0.00    +0.000 NA
ATOM      6  C   UNL     1       3.655   8.238  17.206  0.00  0.00    +0.000 A 
ATOM      7  C   UNL     1       3.632   6.966  17.761  0.00  0.00    +0.000 A 
ATOM      8  H   UNL     1       1.227  10.777  18.106  0.00  0.00    +0.000 HD
ENDROOT
BRANCH   1  13
ATOM      9  C   UNL     1       1.097   2.192  21.922  0.00  0.00    +0.000 C 
ATOM     10  C   UNL     1       1.589   3.312  21.056  0.00  0.00    +0.000 A 
ATOM     11  C   UNL     1       2.426   4.308  21.561  0.00  0.00    +0.000 A 
ATOM     12  C   UNL     1       2.785   5.402  20.765  0.00  0.00    +0.000 A 
ATOM     13  C   UNL     1       2.332   5.530  19.439  0.00  0.00    +0.000 A 
ATOM     14  C   UNL     1       1.593   4.454  18.915  0.00  0.00    +0.000 A 
ATOM     15  C   UNL     1       1.184   3.387  19.722  0.00  0.00    +0.000 A 
ENDBRANCH   1  13
BRANCH   4  16
ATOM     16  C   UNL     1       0.067   9.937  19.685  0.00  0.00    +0.000 C 
ATOM     17  C   UNL     1       1.016   9.663  20.862  0.00  0.00    +0.000 C 
ATOM     18  C   UNL     1       0.223  10.002  22.110  0.00  0.00    +0.000 C 
ATOM     19  S   UNL     1      -0.626  11.510  21.687  0.00  0.00    +0.000 S 
ATOM     20  O   UNL     1       0.204  12.626  22.083  0.00  0.00    +0.000 OA
ATOM     21  O   UNL     1      -2.004  11.395  22.120  0.00  0.00    +0.000 OA
ATOM     22  C   UNL     1      -0.544  11.320  19.920  0.00  0.00    +0.000 C 
ENDBRANCH   4  16
BRANCH   7  23
ATOM     23  C   UNL     1       4.642   5.966  17.357  0.00  0.00    +0.000 A 
ATOM     24  C   UNL     1       4.410   5.007  16.379  0.00  0.00    +0.000 A 
ATOM     25  N   UNL     1       5.324   4.119  15.931  0.00  0.00    +0.000 NA
ATOM     26  C   UNL     1       6.535   4.194  16.498  0.00  0.00    +0.000 A 
ATOM     27  N   UNL     1       6.883   5.035  17.478  0.00  0.00    +0.000 NA
ATOM     28  C   UNL     1       5.918   5.887  17.895  0.00  0.00    +0.000 A 
ENDBRANCH   7  23
TORSDOF 3
ENDMDL
MODEL 7
REMARK VINA RESULT:      -6.5      5.359      7.721
REMARK  Name = 
REMARK  4 active torsions:
REMARK  status: ('A' for Active; 'I' for Inactive)
REMARK    1  A    between atoms: C_1  and  C_2
REMARK    2  A    between atoms: C_5  and  C_6
REMARK    3  A    between atoms: N_9  and  C_10
REMARK    4  A    between atoms: C_19  and  C_20
REMARK                            x       y       z     vdW  Elec       q    Type
REMARK                         _______ _______ _______ _____ _____    ______ ____
ROOT
ATOM      1  C   UNL     1       0.007   9.869  20.343  0.00  0.00    +0.000 A 
ATOM      2  N   UNL     1       0.504   8.616  20.130  0.00  0.00    +0.000 NA
ATOM      3  C   UNL     1       1.319   8.084  21.043  0.00  0.00    +0.000 A 
ATOM      4  N   UNL     1       1.799   6.796  20.909  0.00  0.00    +0.000 N 
ATOM      5  N   UNL     1       1.713   8.724  22.141  0.00  0.00    +0.000 NA
ATOM      6  C   UNL     1       1.194   9.952  22.343  0.00  0.00    +0.000 A 
ATOM      7  C   UNL     1       0.303  10.601  21.500  0.00  0.00    +0.000 A 
ATOM      8  H   UNL     1       2.589   6.702  21.540  0.00  0.00    +0.000 HD
ENDROOT
BRANCH   1  13
ATOM      9  C   UNL     1      -3.875  11.157  16.207  0.00  0.00    +0.000 C 
ATOM     10  C   UNL     1      -2.801  10.918  17.224  0.00  0.00    +0.000 A 
ATOM     11  C   UNL     1      -1.729  10.062  16.961  0.00  0.00    +0.000 A 
ATOM     12  C   UNL     1      -0.795   9.769  17.962  0.00  0.00    +0.000 A 
ATOM     13  C   UNL     1      -0.895  10.328  19.250  0.00  0.00    +0.000 A 
ATOM     14  C   UNL     1      -1.910  11.280  19.451  0.00  0.00    +0.000 A 
ATOM     15  C   UNL     1      -2.877  11.534  18.474  0.00  0.00    +0.000 A 
ENDBRANCH   1  13
BRANCH   4  16
ATOM     16  C   UNL     1       1.918   6.254  19.567  0.00  0.00    +0.000 C 
ATOM     17  C   UNL     1       3.327   6.538  19.022  0.00  0.00    +0.000 C 
ATOM     18  C   UNL     1       3.455   5.693  17.769  0.00  0.00    +0.000 C 
ATOM     19  S   UNL     1       2.726   4.132  18.223  0.00  0.00    +0.000 S 
ATOM     20  O   UNL     1       3.771   3.274  18.736  0.00  0.00    +0.000 OA
ATOM     21  O   UNL     1       1.852   3.707  17.148  0.00  0.00    +0.000 OA
ATOM     22  C   UNL     1       1.745   4.734  19.579  0.00  0.00    +0.000 C 
ENDBRANCH   4  16
BRANCH   7  23
ATOM     23  C   UNL     1      -0.240  11.922  21.876  0.00  0.00    +0.000 A 
ATOM     24  C   UNL     1      -1.286  12.084  22.777  0.00  0.00    +0.000 A 
ATOM     25  N   UNL     1      -1.768  13.273  23.200  0.00  0.00    +0.000 NA
ATOM     26  C   UNL     1      -1.173  14.358  22.688  0.00  0.00    +0.000 A 
ATOM     27  N   UNL     1      -0.188  14.350  21.782  0.00  0.00    +0.000 NA
ATOM     28  C   UNL     1       0.238  13.129  21.386  0.00  0.00    +0.000 A 
ENDBRANCH   7  23
TORSDOF 3
ENDMDL
MODEL 8
REMARK VINA RESULT:      -6.4      5.458      7.396
REMARK  Name = 
REMARK  4 active torsions:
REMARK  status: ('A' for Active; 'I' for Inactive)
REMARK    1  A    between atoms: C_1  and  C_2
REMARK    2  A    between atoms: C_5  and  C_6
REMARK    3  A    between atoms: N_9  and  C_10
REMARK    4  A    between atoms: C_19  and  C_20
REMARK                            x       y       z     vdW  Elec       q    Type
REMARK                         _______ _______ _______ _____ _____    ______ ____
ROOT
ATOM      1  C   UNL     1       0.910  12.074  18.855  0.00  0.00    +0.000 A 
ATOM      2  N   UNL     1       1.869  12.987  19.185  0.00  0.00    +0.000 NA
ATOM      3  C   UNL     1       1.555  14.285  19.163  0.00  0.00    +0.000 A 
ATOM      4  N   UNL     1       2.468  15.247  19.550  0.00  0.00    +0.000 N 
ATOM      5  N   UNL     1       0.364  14.748  18.798  0.00  0.00    +0.000 NA
ATOM      6  C   UNL     1      -0.576  13.829  18.497  0.00  0.00    +0.000 A 
ATOM      7  C   UNL     1      -0.396  12.453  18.523  0.00  0.00    +0.000 A 
ATOM      8  H   UNL     1       2.130  16.139  19.201  0.00  0.00    +0.000 HD
ENDROOT
BRANCH   1  13
ATOM      9  C   UNL     1       2.237   6.411  18.967  0.00  0.00    +0.000 C 
ATOM     10  C   UNL     1       2.007   7.892  18.996  0.00  0.00    +0.000 A 
ATOM     11  C   UNL     1       1.423   8.514  20.101  0.00  0.00    +0.000 A 
ATOM     12  C   UNL     1       1.118   9.880  20.065  0.00  0.00    +0.000 A 
ATOM     13  C   UNL     1       1.398  10.669  18.934  0.00  0.00    +0.000 A 
ATOM     14  C   UNL     1       2.098  10.047  17.884  0.00  0.00    +0.000 A 
ATOM     15  C   UNL     1       2.354   8.672  17.892  0.00  0.00    +0.000 A 
ENDBRANCH   1  13
BRANCH   4  16
ATOM     16  C   UNL     1       3.879  14.939  19.406  0.00  0.00    +0.000 C 
ATOM     17  C   UNL     1       4.274  15.021  17.923  0.00  0.00    +0.000 C 
ATOM     18  C   UNL     1       5.791  14.983  17.905  0.00  0.00    +0.000 C 
ATOM     19  S   UNL     1       6.267  16.050  19.248  0.00  0.00    +0.000 S 
ATOM     20  O   UNL     1       6.436  17.390  18.729  0.00  0.00    +0.000 OA
ATOM     21  O   UNL     1       7.311  15.392  20.007  0.00  0.00    +0.000 OA
ATOM     22  C   UNL     1       4.736  15.964  20.152  0.00  0.00    +0.000 C 
ENDBRANCH   4  16
BRANCH   7  23
ATOM     23  C   UNL     1      -1.533  11.554  18.233  0.00  0.00    +0.000 A 
ATOM     24  C   UNL     1      -2.815  11.771  18.723  0.00  0.00    +0.000 A 
ATOM     25  N   UNL     1      -3.895  11.015  18.428  0.00  0.00    +0.000 NA
ATOM     26  C   UNL     1      -3.677   9.984  17.602  0.00  0.00    +0.000 A 
ATOM     27  N   UNL     1      -2.491   9.635  17.092  0.00  0.00    +0.000 NA
ATOM     28  C   UNL     1      -1.445  10.420  17.439  0.00  0.00    +0.000 A 
ENDBRANCH   7  23
TORSDOF 3
ENDMDL
MODEL 9
REMARK VINA RESULT:      -6.4      4.583      7.624
REMARK  Name = 
REMARK  4 active torsions:
REMARK  status: ('A' for Active; 'I' for Inactive)
REMARK    1  A    between atoms: C_1  and  C_2
REMARK    2  A    between atoms: C_5  and  C_6
REMARK    3  A    between atoms: N_9  and  C_10
REMARK    4  A    between atoms: C_19  and  C_20
REMARK                            x       y       z     vdW  Elec       q    Type
REMARK                         _______ _______ _______ _____ _____    ______ ____
ROOT
ATOM      1  C   UNL     1       3.105   6.045  19.279  0.00  0.00    +0.000 A 
ATOM      2  N   UNL     1       2.599   7.262  19.630  0.00  0.00    +0.000 NA
ATOM      3  C   UNL     1       1.598   7.313  20.512  0.00  0.00    +0.000 A 
ATOM      4  N   UNL     1       1.092   8.521  20.950  0.00  0.00    +0.000 N 
ATOM      5  N   UNL     1       1.033   6.234  21.047  0.00  0.00    +0.000 NA
ATOM      6  C   UNL     1       1.562   5.043  20.704  0.00  0.00    +0.000 A 
ATOM      7  C   UNL     1       2.628   4.852  19.837  0.00  0.00    +0.000 A 
ATOM      8  H   UNL     1       0.192   8.332  21.380  0.00  0.00    +0.000 HD
ENDROOT
BRANCH   1  13
ATOM      9  C   UNL     1       7.355   5.815  15.315  0.00  0.00    +0.000 C 
ATOM     10  C   UNL     1       6.304   5.990  16.368  0.00  0.00    +0.000 A 
ATOM     11  C   UNL     1       6.544   5.642  17.699  0.00  0.00    +0.000 A 
ATOM     12  C   UNL     1       5.515   5.712  18.645  0.00  0.00    +0.000 A 
ATOM     13  C   UNL     1       4.221   6.142  18.298  0.00  0.00    +0.000 A 
ATOM     14  C   UNL     1       4.038   6.605  16.982  0.00  0.00    +0.000 A 
ATOM     15  C   UNL     1       5.046   6.484  16.019  0.00  0.00    +0.000 A 
ENDBRANCH   1  13
BRANCH   4  16
ATOM     16  C   UNL     1       1.206   9.665  20.063  0.00  0.00    +0.000 C 
ATOM     17  C   UNL     1      -0.002   9.701  19.114  0.00  0.00    +0.000 C 
ATOM     18  C   UNL     1       0.048  11.063  18.447  0.00  0.00    +0.000 C 
ATOM     19  S   UNL     1       0.462  12.179  19.771  0.00  0.00    +0.000 S 
ATOM     20  O   UNL     1      -0.767  12.669  20.355  0.00  0.00    +0.000 OA
ATOM     21  O   UNL     1       1.494  13.082  19.301  0.00  0.00    +0.000 OA
ATOM     22  C   UNL     1       1.186  10.972  20.859  0.00  0.00    +0.000 C 
ENDBRANCH   4  16
BRANCH   7  23
ATOM     23  C   UNL     1       3.153   3.491  19.599  0.00  0.00    +0.000 A 
ATOM     24  C   UNL     1       2.720   2.684  18.553  0.00  0.00    +0.000 A 
ATOM     25  N   UNL     1       3.218   1.463  18.259  0.00  0.00    +0.000 NA
ATOM     26  C   UNL     1       4.200   1.027  19.057  0.00  0.00    +0.000 A 
ATOM     27  N   UNL     1       4.683   1.677  20.122  0.00  0.00    +0.000 NA
ATOM     28  C   UNL     1       4.130   2.886  20.375  0.00  0.00    +0.000 A 
ENDBRANCH   7  23
TORSDOF 3
ENDMDL
