MODEL 1
REMARK VINA RESULT:      -7.3      0.000      0.000
REMARK  Name = 
REMARK  5 active torsions:
REMARK  status: ('A' for Active; 'I' for Inactive)
REMARK    1  A    between atoms: C_1  and  C_2
REMARK    2  A    between atoms: C_2  and  C_3
REMARK    3  A    between atoms: C_2  and  N_4
REMARK    4  A    between atoms: C_10  and  C_11
REMARK    5  A    between atoms: C_11  and  N_12
REMARK                            x       y       z     vdW  Elec       q    Type
REMARK                         _______ _______ _______ _____ _____    ______ ____
ROOT
ATOM      1  N   UNL     1       2.575   5.313  18.944  0.00  0.00    +0.000 NA
ATOM      2  C   UNL     1       3.835   5.691  19.603  0.00  0.00    +0.000 C 
ATOM      3  C   UNL     1       4.776   4.509  19.816  0.00  0.00    +0.000 C 
ATOM      4  C   UNL     1       5.132   3.805  18.515  0.00  0.00    +0.000 C 
ATOM      5  C   UNL     1       3.846   3.446  17.757  0.00  0.00    +0.000 C 
ATOM      6  C   UNL     1       4.385   3.056  16.375  0.00  0.00    +0.000 C 
ATOM      7  C   UNL     1       5.630   3.957  16.143  0.00  0.00    +0.000 C 
ATOM      8  N   UNL     1       5.889   4.533  17.488  0.00  0.00    +0.000 N 
ATOM      9  C   UNL     1       6.692   5.611  17.680  0.00  0.00    +0.000 A 
ATOM     10  N   UNL     1       6.716   6.637  16.854  0.00  0.00    +0.000 NA
ATOM     11  C   UNL     1       7.510   7.654  17.342  0.00  0.00    +0.000 A 
ATOM     12  C   UNL     1       8.134   7.389  18.537  0.00  0.00    +0.000 A 
ATOM     13  S   UNL     1       7.774   5.791  19.022  0.00  0.00    +0.000 S 
ATOM     14  C   UNL     1       2.880   4.646  17.669  0.00  0.00    +0.000 C 
ENDROOT
BRANCH   1  16
ATOM     15  C   UNL     1       1.119   3.317  19.202  0.00  0.00    +0.000 C 
ATOM     16  C   UNL     1       1.592   4.648  19.822  0.00  0.00    +0.000 C 
ATOM     17  C   UNL     1       2.167   4.308  21.206  0.00  0.00    +0.000 C 
ENDBRANCH   1  16
BRANCH   7  18
ATOM     18  C   UNL     1       5.444   4.955  14.991  0.00  0.00    +0.000 C 
BRANCH  18  19
ATOM     19  N   UNL     1       6.257   4.642  13.834  0.00  0.00    +0.000 N 
ATOM     20  C   UNL     1       6.042   3.679  12.897  0.00  0.00    +0.000 A 
ATOM     21  N   UNL     1       6.987   3.732  11.986  0.00  0.00    +0.000 NA
ATOM     22  C   UNL     1       7.762   4.774  12.410  0.00  0.00    +0.000 A 
ATOM     23  N   UNL     1       7.363   5.356  13.546  0.00  0.00    +0.000 NA
ENDBRANCH  18  19
ENDBRANCH   7  18
TORSDOF 3
ENDMDL
MODEL 2
REMARK VINA RESULT:      -6.6      2.350      6.611
REMARK  Name = 
REMARK  5 active torsions:
REMARK  status: ('A' for Active; 'I' for Inactive)
REMARK    1  A    between atoms: C_1  and  C_2
REMARK    2  A    between atoms: C_2  and  C_3
REMARK    3  A    between atoms: C_2  and  N_4
REMARK    4  A    between atoms: C_10  and  C_11
REMARK    5  A    between atoms: C_11  and  N_12
REMARK                            x       y       z     vdW  Elec       q    Type
REMARK                         _______ _______ _______ _____ _____    ______ ____
ROOT
ATOM      1  N   UNL     1       5.459   4.407  14.558  0.00  0.00    +0.000 NA
ATOM      2  C   UNL     1       5.104   3.378  15.547  0.00  0.00    +0.000 C 
ATOM      3  C   UNL     1       5.895   3.499  16.847  0.00  0.00    +0.000 C 
ATOM      4  C   UNL     1       5.719   4.857  17.512  0.00  0.00    +0.000 C 
ATOM      5  C   UNL     1       6.018   5.969  16.497  0.00  0.00    +0.000 C 
ATOM      6  C   UNL     1       5.492   7.215  17.219  0.00  0.00    +0.000 C 
ATOM      7  C   UNL     1       4.272   6.731  18.052  0.00  0.00    +0.000 C 
ATOM      8  N   UNL     1       4.391   5.250  18.002  0.00  0.00    +0.000 N 
ATOM      9  C   UNL     1       3.368   4.422  18.334  0.00  0.00    +0.000 A 
ATOM     10  N   UNL     1       2.114   4.678  18.023  0.00  0.00    +0.000 NA
ATOM     11  C   UNL     1       1.290   3.622  18.353  0.00  0.00    +0.000 A 
ATOM     12  C   UNL     1       1.913   2.560  18.962  0.00  0.00    +0.000 A 
ATOM     13  S   UNL     1       3.565   2.930  19.194  0.00  0.00    +0.000 S 
ATOM     14  C   UNL     1       5.282   5.737  15.161  0.00  0.00    +0.000 C 
ENDROOT
BRANCH   1  16
ATOM     15  C   UNL     1       6.463   3.617  12.428  0.00  0.00    +0.000 C 
ATOM     16  C   UNL     1       6.729   4.167  13.844  0.00  0.00    +0.000 C 
ATOM     17  C   UNL     1       7.563   5.446  13.670  0.00  0.00    +0.000 C 
ENDBRANCH   1  16
BRANCH   7  18
ATOM     18  C   UNL     1       2.941   7.330  17.574  0.00  0.00    +0.000 C 
BRANCH  18  19
ATOM     19  N   UNL     1       2.232   8.039  18.620  0.00  0.00    +0.000 N 
ATOM     20  C   UNL     1       1.548   9.211  18.520  0.00  0.00    +0.000 A 
ATOM     21  N   UNL     1       1.016   9.510  19.683  0.00  0.00    +0.000 NA
ATOM     22  C   UNL     1       1.395   8.461  20.472  0.00  0.00    +0.000 A 
ATOM     23  N   UNL     1       2.154   7.540  19.870  0.00  0.00    +0.000 NA
ENDBRANCH  18  19
ENDBRANCH   7  18
TORSDOF 3
ENDMDL
MODEL 3
REMARK VINA RESULT:      -6.5      2.383      3.531
REMARK  Name = 
REMARK  5 active torsions:
REMARK  status: ('A' for Active; 'I' for Inactive)
REMARK    1  A    between atoms: C_1  and  C_2
REMARK    2  A    between atoms: C_2  and  C_3
REMARK    3  A    between atoms: C_2  and  N_4
REMARK    4  A    between atoms: C_10  and  C_11
REMARK    5  A    between atoms: C_11  and  N_12
REMARK                            x       y       z     vdW  Elec       q    Type
REMARK                         _______ _______ _______ _____ _____    ______ ____
ROOT
ATOM      1  N   UNL     1       2.168   3.305  17.588  0.00  0.00    +0.000 NA
ATOM      2  C   UNL     1       1.467   4.330  18.378  0.00  0.00    +0.000 C 
ATOM      3  C   UNL     1       2.141   4.615  19.718  0.00  0.00    +0.000 C 
ATOM      4  C   UNL     1       3.586   5.064  19.560  0.00  0.00    +0.000 C 
ATOM      5  C   UNL     1       4.345   4.056  18.687  0.00  0.00    +0.000 C 
ATOM      6  C   UNL     1       5.643   4.812  18.376  0.00  0.00    +0.000 C 
ATOM      7  C   UNL     1       5.245   6.312  18.300  0.00  0.00    +0.000 C 
ATOM      8  N   UNL     1       3.874   6.330  18.872  0.00  0.00    +0.000 N 
ATOM      9  C   UNL     1       3.029   7.382  18.716  0.00  0.00    +0.000 A 
ATOM     10  N   UNL     1       2.944   8.066  17.593  0.00  0.00    +0.000 NA
ATOM     11  C   UNL     1       1.923   8.992  17.647  0.00  0.00    +0.000 A 
ATOM     12  C   UNL     1       1.243   9.046  18.840  0.00  0.00    +0.000 A 
ATOM     13  S   UNL     1       1.955   7.958  19.947  0.00  0.00    +0.000 S 
ATOM     14  C   UNL     1       3.567   3.716  17.398  0.00  0.00    +0.000 C 
ENDROOT
BRANCH   1  16
ATOM     15  C   UNL     1       3.249   1.288  18.553  0.00  0.00    +0.000 C 
ATOM     16  C   UNL     1       1.940   1.916  18.035  0.00  0.00    +0.000 C 
ATOM     17  C   UNL     1       0.922   1.822  19.183  0.00  0.00    +0.000 C 
ENDBRANCH   1  16
BRANCH   7  18
ATOM     18  C   UNL     1       5.412   6.908  16.894  0.00  0.00    +0.000 C 
BRANCH  18  19
ATOM     19  N   UNL     1       5.971   5.968  15.944  0.00  0.00    +0.000 N 
ATOM     20  C   UNL     1       5.314   5.243  15.000  0.00  0.00    +0.000 A 
ATOM     21  N   UNL     1       6.176   4.530  14.313  0.00  0.00    +0.000 NA
ATOM     22  C   UNL     1       7.373   4.873  14.875  0.00  0.00    +0.000 A 
ATOM     23  N   UNL     1       7.299   5.741  15.888  0.00  0.00    +0.000 NA
ENDBRANCH  18  19
ENDBRANCH   7  18
TORSDOF 3
ENDMDL
MODEL 4
REMARK VINA RESULT:      -6.3      2.312      5.057
REMARK  Name = 
REMARK  5 active torsions:
REMARK  status: ('A' for Active; 'I' for Inactive)
REMARK    1  A    between atoms: C_1  and  C_2
REMARK    2  A    between atoms: C_2  and  C_3
REMARK    3  A    between atoms: C_2  and  N_4
REMARK    4  A    between atoms: C_10  and  C_11
REMARK    5  A    between atoms: C_11  and  N_12
REMARK                            x       y       z     vdW  Elec       q    Type
REMARK                         _______ _______ _______ _____ _____    ______ ____
ROOT
ATOM      1  N   UNL     1       2.750   7.199  17.857  0.00  0.00    +0.000 NA
ATOM      2  C   UNL     1       3.954   7.309  17.019  0.00  0.00    +0.000 C 
ATOM      3  C   UNL     1       5.249   7.161  17.811  0.00  0.00    +0.000 C 
ATOM      4  C   UNL     1       5.328   5.837  18.558  0.00  0.00    +0.000 C 
ATOM      5  C   UNL     1       4.060   5.646  19.401  0.00  0.00    +0.000 C 
ATOM      6  C   UNL     1       4.162   4.171  19.809  0.00  0.00    +0.000 C 
ATOM      7  C   UNL     1       4.855   3.456  18.616  0.00  0.00    +0.000 C 
ATOM      8  N   UNL     1       5.369   4.582  17.795  0.00  0.00    +0.000 N 
ATOM      9  C   UNL     1       5.770   4.427  16.507  0.00  0.00    +0.000 A 
ATOM     10  N   UNL     1       5.146   3.637  15.657  0.00  0.00    +0.000 NA
ATOM     11  C   UNL     1       5.667   3.758  14.385  0.00  0.00    +0.000 A 
ATOM     12  C   UNL     1       6.729   4.620  14.266  0.00  0.00    +0.000 A 
ATOM     13  S   UNL     1       7.133   5.237  15.807  0.00  0.00    +0.000 S 
ATOM     14  C   UNL     1       2.781   5.919  18.581  0.00  0.00    +0.000 C 
ENDROOT
BRANCH   1  16
ATOM     15  C   UNL     1       1.543   9.369  17.851  0.00  0.00    +0.000 C 
ATOM     16  C   UNL     1       2.438   8.403  18.653  0.00  0.00    +0.000 C 
ATOM     17  C   UNL     1       1.681   8.077  19.951  0.00  0.00    +0.000 C 
ENDBRANCH   1  16
BRANCH   7  18
ATOM     18  C   UNL     1       3.939   2.448  17.905  0.00  0.00    +0.000 C 
BRANCH  18  19
ATOM     19  N   UNL     1       2.604   2.405  18.463  0.00  0.00    +0.000 N 
ATOM     20  C   UNL     1       2.222   1.943  19.684  0.00  0.00    +0.000 A 
ATOM     21  N   UNL     1       0.928   2.105  19.832  0.00  0.00    +0.000 NA
ATOM     22  C   UNL     1       0.557   2.696  18.657  0.00  0.00    +0.000 A 
ATOM     23  N   UNL     1       1.547   2.888  17.780  0.00  0.00    +0.000 NA
ENDBRANCH  18  19
ENDBRANCH   7  18
TORSDOF 3
ENDMDL
MODEL 5
REMARK VINA RESULT:      -6.2      2.723      6.588
REMARK  Name = 
REMARK  5 active torsions:
REMARK  status: ('A' for Active; 'I' for Inactive)
REMARK    1  A    between atoms: C_1  and  C_2
REMARK    2  A    between atoms: C_2  and  C_3
REMARK    3  A    between atoms: C_2  and  N_4
REMARK    4  A    between atoms: C_10  and  C_11
REMARK    5  A    between atoms: C_11  and  N_12
REMARK                            x       y       z     vdW  Elec       q    Type
REMARK                         _______ _______ _______ _____ _____    ______ ____
ROOT
ATOM      1  N   UNL     1       5.117   4.270  15.451  0.00  0.00    +0.000 NA
ATOM      2  C   UNL     1       4.849   3.319  16.541  0.00  0.00    +0.000 C 
ATOM      3  C   UNL     1       5.599   3.657  17.826  0.00  0.00    +0.000 C 
ATOM      4  C   UNL     1       5.275   5.051  18.342  0.00  0.00    +0.000 C 
ATOM      5  C   UNL     1       5.479   6.075  17.217  0.00  0.00    +0.000 C 
ATOM      6  C   UNL     1       4.817   7.330  17.799  0.00  0.00    +0.000 C 
ATOM      7  C   UNL     1       3.637   6.814  18.669  0.00  0.00    +0.000 C 
ATOM      8  N   UNL     1       3.906   5.356  18.777  0.00  0.00    +0.000 N 
ATOM      9  C   UNL     1       2.965   4.467  19.188  0.00  0.00    +0.000 A 
ATOM     10  N   UNL     1       1.698   4.559  18.841  0.00  0.00    +0.000 NA
ATOM     11  C   UNL     1       0.979   3.465  19.276  0.00  0.00    +0.000 A 
ATOM     12  C   UNL     1       1.694   2.542  19.999  0.00  0.00    +0.000 A 
ATOM     13  S   UNL     1       3.295   3.101  20.203  0.00  0.00    +0.000 S 
ATOM     14  C   UNL     1       4.795   5.630  15.907  0.00  0.00    +0.000 C 
ENDROOT
BRANCH   1  16
ATOM     15  C   UNL     1       6.215   3.679  13.303  0.00  0.00    +0.000 C 
ATOM     16  C   UNL     1       6.417   4.087  14.776  0.00  0.00    +0.000 C 
ATOM     17  C   UNL     1       7.265   5.369  14.765  0.00  0.00    +0.000 C 
ENDBRANCH   1  16
BRANCH   7  18
ATOM     18  C   UNL     1       2.262   7.221  18.120  0.00  0.00    +0.000 C 
BRANCH  18  19
ATOM     19  N   UNL     1       1.810   8.504  18.618  0.00  0.00    +0.000 N 
ATOM     20  C   UNL     1       1.714   9.678  17.937  0.00  0.00    +0.000 A 
ATOM     21  N   UNL     1       1.231  10.607  18.729  0.00  0.00    +0.000 NA
ATOM     22  C   UNL     1       1.030   9.936  19.902  0.00  0.00    +0.000 A 
ATOM     23  N   UNL     1       1.382   8.647  19.888  0.00  0.00    +0.000 NA
ENDBRANCH  18  19
ENDBRANCH   7  18
TORSDOF 3
ENDMDL
MODEL 6
REMARK VINA RESULT:      -6.2      2.813      5.013
REMARK  Name = 
REMARK  5 active torsions:
REMARK  status: ('A' for Active; 'I' for Inactive)
REMARK    1  A    between atoms: C_1  and  C_2
REMARK    2  A    between atoms: C_2  and  C_3
REMARK    3  A    between atoms: C_2  and  N_4
REMARK    4  A    between atoms: C_10  and  C_11
REMARK    5  A    between atoms: C_11  and  N_12
REMARK                            x       y       z     vdW  Elec       q    Type
REMARK                         _______ _______ _______ _____ _____    ______ ____
ROOT
ATOM      1  N   UNL     1       2.815   3.418  20.298  0.00  0.00    +0.000 NA
ATOM      2  C   UNL     1       4.000   3.014  19.525  0.00  0.00    +0.000 C 
ATOM      3  C   UNL     1       3.707   2.817  18.041  0.00  0.00    +0.000 C 
ATOM      4  C   UNL     1       3.137   4.068  17.388  0.00  0.00    +0.000 C 
ATOM      5  C   UNL     1       1.932   4.567  18.198  0.00  0.00    +0.000 C 
ATOM      6  C   UNL     1       1.700   5.962  17.605  0.00  0.00    +0.000 C 
ATOM      7  C   UNL     1       3.109   6.491  17.217  0.00  0.00    +0.000 C 
ATOM      8  N   UNL     1       3.964   5.279  17.310  0.00  0.00    +0.000 N 
ATOM      9  C   UNL     1       5.320   5.342  17.357  0.00  0.00    +0.000 A 
ATOM     10  N   UNL     1       5.967   6.275  18.025  0.00  0.00    +0.000 NA
ATOM     11  C   UNL     1       7.327   6.040  18.023  0.00  0.00    +0.000 A 
ATOM     12  C   UNL     1       7.731   4.936  17.312  0.00  0.00    +0.000 A 
ATOM     13  S   UNL     1       6.374   4.219  16.562  0.00  0.00    +0.000 S 
ATOM     14  C   UNL     1       2.247   4.639  19.707  0.00  0.00    +0.000 C 
ENDROOT
BRANCH   1  16
ATOM     15  C   UNL     1       1.369   2.419  22.053  0.00  0.00    +0.000 C 
ATOM     16  C   UNL     1       1.869   2.325  20.597  0.00  0.00    +0.000 C 
ATOM     17  C   UNL     1       0.621   2.357  19.701  0.00  0.00    +0.000 C 
ENDBRANCH   1  16
BRANCH   7  18
ATOM     18  C   UNL     1       3.544   7.706  18.048  0.00  0.00    +0.000 C 
BRANCH  18  19
ATOM     19  N   UNL     1       2.437   8.560  18.425  0.00  0.00    +0.000 N 
ATOM     20  C   UNL     1       1.750   8.569  19.599  0.00  0.00    +0.000 A 
ATOM     21  N   UNL     1       0.837   9.512  19.568  0.00  0.00    +0.000 NA
ATOM     22  C   UNL     1       1.020  10.074  18.337  0.00  0.00    +0.000 A 
ATOM     23  N   UNL     1       1.980   9.516  17.593  0.00  0.00    +0.000 NA
ENDBRANCH  18  19
ENDBRANCH   7  18
TORSDOF 3
ENDMDL
MODEL 7
REMARK VINA RESULT:      -5.9     10.280     13.081
REMARK  Name = 
REMARK  5 active torsions:
REMARK  status: ('A' for Active; 'I' for Inactive)
REMARK    1  A    between atoms: C_1  and  C_2
REMARK    2  A    between atoms: C_2  and  C_3
REMARK    3  A    between atoms: C_2  and  N_4
REMARK    4  A    between atoms: C_10  and  C_11
REMARK    5  A    between atoms: C_11  and  N_12
REMARK                            x       y       z     vdW  Elec       q    Type
REMARK                         _______ _______ _______ _____ _____    ______ ____
ROOT
ATOM      1  N   UNL     1      -0.238  15.026  19.155  0.00  0.00    +0.000 NA
ATOM      2  C   UNL     1      -0.052  13.793  18.375  0.00  0.00    +0.000 C 
ATOM      3  C   UNL     1       0.228  12.572  19.247  0.00  0.00    +0.000 C 
ATOM      4  C   UNL     1      -0.878  12.313  20.260  0.00  0.00    +0.000 C 
ATOM      5  C   UNL     1      -1.153  13.595  21.058  0.00  0.00    +0.000 C 
ATOM      6  C   UNL     1      -2.466  13.254  21.774  0.00  0.00    +0.000 C 
ATOM      7  C   UNL     1      -3.247  12.330  20.797  0.00  0.00    +0.000 C 
ATOM      8  N   UNL     1      -2.223  11.965  19.783  0.00  0.00    +0.000 N 
ATOM      9  C   UNL     1      -2.545  11.424  18.580  0.00  0.00    +0.000 A 
ATOM     10  N   UNL     1      -3.597  11.806  17.886  0.00  0.00    +0.000 NA
ATOM     11  C   UNL     1      -3.626  11.202  16.646  0.00  0.00    +0.000 A 
ATOM     12  C   UNL     1      -2.606  10.315  16.402  0.00  0.00    +0.000 A 
ATOM     13  S   UNL     1      -1.627  10.180  17.795  0.00  0.00    +0.000 S 
ATOM     14  C   UNL     1      -1.315  14.820  20.134  0.00  0.00    +0.000 C 
ENDROOT
BRANCH   1  16
ATOM     15  C   UNL     1       1.846  16.207  18.499  0.00  0.00    +0.000 C 
ATOM     16  C   UNL     1       1.010  15.633  19.660  0.00  0.00    +0.000 C 
ATOM     17  C   UNL     1       0.754  16.795  20.633  0.00  0.00    +0.000 C 
ENDBRANCH   1  16
BRANCH   7  18
ATOM     18  C   UNL     1      -4.540  12.969  20.269  0.00  0.00    +0.000 C 
BRANCH  18  19
ATOM     19  N   UNL     1      -5.735  12.307  20.750  0.00  0.00    +0.000 N 
ATOM     20  C   UNL     1      -6.399  12.524  21.917  0.00  0.00    +0.000 A 
ATOM     21  N   UNL     1      -7.456  11.747  21.974  0.00  0.00    +0.000 NA
ATOM     22  C   UNL     1      -7.403  11.072  20.788  0.00  0.00    +0.000 A 
ATOM     23  N   UNL     1      -6.359  11.370  20.009  0.00  0.00    +0.000 NA
ENDBRANCH  18  19
ENDBRANCH   7  18
TORSDOF 3
ENDMDL
MODEL 8
REMARK VINA RESULT:      -5.8     10.191     11.993
REMARK  Name = 
REMARK  5 active torsions:
REMARK  status: ('A' for Active; 'I' for Inactive)
REMARK    1  A    between atoms: C_1  and  C_2
REMARK    2  A    between atoms: C_2  and  C_3
REMARK    3  A    between atoms: C_2  and  N_4
REMARK    4  A    between atoms: C_10  and  C_11
REMARK    5  A    between atoms: C_11  and  N_12
REMARK                            x       y       z     vdW  Elec       q    Type
REMARK                         _______ _______ _______ _____ _____    ______ ____
ROOT
ATOM      1  N   UNL     1      10.253  12.886  19.252  0.00  0.00    +0.000 NA
ATOM      2  C   UNL     1      10.077  13.359  20.634  0.00  0.00    +0.000 C 
ATOM      3  C   UNL     1      10.270  14.865  20.780  0.00  0.00    +0.000 C 
ATOM      4  C   UNL     1       9.323  15.664  19.896  0.00  0.00    +0.000 C 
ATOM      5  C   UNL     1       9.424  15.162  18.449  0.00  0.00    +0.000 C 
ATOM      6  C   UNL     1       8.211  15.829  17.791  0.00  0.00    +0.000 C 
ATOM      7  C   UNL     1       7.122  15.901  18.897  0.00  0.00    +0.000 C 
ATOM      8  N   UNL     1       7.876  15.583  20.138  0.00  0.00    +0.000 N 
ATOM      9  C   UNL     1       7.263  15.232  21.298  0.00  0.00    +0.000 A 
ATOM     10  N   UNL     1       6.197  14.460  21.335  0.00  0.00    +0.000 NA
ATOM     11  C   UNL     1       5.850  14.147  22.632  0.00  0.00    +0.000 A 
ATOM     12  C   UNL     1       6.635  14.718  23.604  0.00  0.00    +0.000 A 
ATOM     13  S   UNL     1       7.792  15.737  22.869  0.00  0.00    +0.000 S 
ATOM     14  C   UNL     1       9.336  13.623  18.370  0.00  0.00    +0.000 C 
ENDROOT
BRANCH   1  16
ATOM     15  C   UNL     1      12.333  11.540  19.429  0.00  0.00    +0.000 C 
ATOM     16  C   UNL     1      11.657  12.780  18.809  0.00  0.00    +0.000 C 
ATOM     17  C   UNL     1      11.790  12.637  17.285  0.00  0.00    +0.000 C 
ENDBRANCH   1  16
BRANCH   7  18
ATOM     18  C   UNL     1       5.897  15.025  18.594  0.00  0.00    +0.000 C 
BRANCH  18  19
ATOM     19  N   UNL     1       4.677  15.791  18.444  0.00  0.00    +0.000 N 
ATOM     20  C   UNL     1       4.211  16.787  19.245  0.00  0.00    +0.000 A 
ATOM     21  N   UNL     1       3.086  17.255  18.756  0.00  0.00    +0.000 NA
ATOM     22  C   UNL     1       2.910  16.510  17.625  0.00  0.00    +0.000 A 
ATOM     23  N   UNL     1       3.852  15.589  17.398  0.00  0.00    +0.000 NA
ENDBRANCH  18  19
ENDBRANCH   7  18
TORSDOF 3
ENDMDL
MODEL 9
REMARK VINA RESULT:      -5.8      9.140     12.515
REMARK  Name = 
REMARK  5 active torsions:
REMARK  status: ('A' for Active; 'I' for Inactive)
REMARK    1  A    between atoms: C_1  and  C_2
REMARK    2  A    between atoms: C_2  and  C_3
REMARK    3  A    between atoms: C_2  and  N_4
REMARK    4  A    between atoms: C_10  and  C_11
REMARK    5  A    between atoms: C_11  and  N_12
REMARK                            x       y       z     vdW  Elec       q    Type
REMARK                         _______ _______ _______ _____ _____    ______ ____
ROOT
ATOM      1  N   UNL     1      -3.033  10.915  18.339  0.00  0.00    +0.000 NA
ATOM      2  C   UNL     1      -1.671  10.430  18.613  0.00  0.00    +0.000 C 
ATOM      3  C   UNL     1      -0.646  11.555  18.719  0.00  0.00    +0.000 C 
ATOM      4  C   UNL     1      -1.000  12.566  19.801  0.00  0.00    +0.000 C 
ATOM      5  C   UNL     1      -2.440  13.056  19.595  0.00  0.00    +0.000 C 
ATOM      6  C   UNL     1      -2.723  13.788  20.912  0.00  0.00    +0.000 C 
ATOM      7  C   UNL     1      -1.929  13.012  22.000  0.00  0.00    +0.000 C 
ATOM      8  N   UNL     1      -1.031  12.135  21.205  0.00  0.00    +0.000 N 
ATOM      9  C   UNL     1      -0.384  11.069  21.743  0.00  0.00    +0.000 A 
ATOM     10  N   UNL     1      -0.939  10.276  22.637  0.00  0.00    +0.000 NA
ATOM     11  C   UNL     1      -0.128   9.198  22.923  0.00  0.00    +0.000 A 
ATOM     12  C   UNL     1       1.081   9.184  22.270  0.00  0.00    +0.000 A 
ATOM     13  S   UNL     1       1.234  10.603  21.332  0.00  0.00    +0.000 S 
ATOM     14  C   UNL     1      -3.418  11.882  19.378  0.00  0.00    +0.000 C 
ENDROOT
BRANCH   1  16
ATOM     15  C   UNL     1      -2.911  10.169  15.973  0.00  0.00    +0.000 C 
ATOM     16  C   UNL     1      -3.278  11.314  16.939  0.00  0.00    +0.000 C 
ATOM     17  C   UNL     1      -4.751  11.662  16.669  0.00  0.00    +0.000 C 
ENDBRANCH   1  16
BRANCH   7  18
ATOM     18  C   UNL     1      -2.836  12.318  23.027  0.00  0.00    +0.000 C 
BRANCH  18  19
ATOM     19  N   UNL     1      -4.111  12.984  23.198  0.00  0.00    +0.000 N 
ATOM     20  C   UNL     1      -4.356  14.177  23.805  0.00  0.00    +0.000 A 
ATOM     21  N   UNL     1      -5.637  14.455  23.727  0.00  0.00    +0.000 NA
ATOM     22  C   UNL     1      -6.140  13.389  23.036  0.00  0.00    +0.000 A 
ATOM     23  N   UNL     1      -5.246  12.454  22.701  0.00  0.00    +0.000 NA
ENDBRANCH  18  19
ENDBRANCH   7  18
TORSDOF 3
ENDMDL
