MODEL 1
REMARK VINA RESULT:      -7.3      0.000      0.000
REMARK  Name = 
REMARK  5 active torsions:
REMARK  status: ('A' for Active; 'I' for Inactive)
REMARK    1  A    between atoms: C_1  and  C_2
REMARK    2  A    between atoms: C_2  and  C_3
REMARK    3  A    between atoms: C_3  and  N_4
REMARK    4  A    between atoms: C_7  and  N_8
REMARK    5  A    between atoms: C_9  and  C_11
REMARK                            x       y       z     vdW  Elec       q    Type
REMARK                         _______ _______ _______ _____ _____    ______ ____
ROOT
ATOM      1  N   UNL     1       4.489   4.330  17.469  0.00  0.00    +0.000 N 
ATOM      2  C   UNL     1       3.199   3.839  17.390  0.00  0.00    +0.000 C 
ATOM      3  O   UNL     1       2.618   3.677  16.326  0.00  0.00    +0.000 OA
ATOM      4  H   UNL     1       4.981   4.260  18.351  0.00  0.00    +0.000 HD
ENDROOT
BRANCH   2   5
ATOM      5  C   UNL     1       2.526   3.568  18.702  0.00  0.00    +0.000 A 
ATOM      6  C   UNL     1       2.236   2.224  19.023  0.00  0.00    +0.000 A 
ATOM      7  C   UNL     1       1.669   1.884  20.252  0.00  0.00    +0.000 A 
ATOM      8  C   UNL     1       1.414   2.879  21.182  0.00  0.00    +0.000 A 
ATOM      9  F   UNL     1       0.894   2.552  22.371  0.00  0.00    +0.000 F 
ATOM     10  C   UNL     1       1.693   4.210  20.898  0.00  0.00    +0.000 A 
ATOM     11  C   UNL     1       2.243   4.565  19.655  0.00  0.00    +0.000 A 
ATOM     12  I   UNL     1       2.501   6.629  19.350  0.00  0.00    +0.000 I 
ENDBRANCH   2   5
BRANCH   1  16
ATOM     13  N   UNL     1       7.360   6.557  17.103  0.00  0.00    +0.000 NA
ATOM     14  C   UNL     1       7.448   5.138  17.481  0.00  0.00    +0.000 C 
ATOM     15  C   UNL     1       6.745   4.233  16.470  0.00  0.00    +0.000 C 
ATOM     16  C   UNL     1       5.286   4.637  16.278  0.00  0.00    +0.000 C 
ATOM     17  C   UNL     1       5.204   6.124  15.933  0.00  0.00    +0.000 C 
ATOM     18  C   UNL     1       5.965   6.991  16.935  0.00  0.00    +0.000 C 
BRANCH  13  19
ATOM     19  C   UNL     1       8.044   7.432  18.073  0.00  0.00    +0.000 C 
BRANCH  19  21
ATOM     20  C   UNL     1       8.883   9.771  18.643  0.00  0.00    +0.000 C 
ATOM     21  C   UNL     1       7.991   8.930  17.742  0.00  0.00    +0.000 C 
ENDBRANCH  19  21
ENDBRANCH  13  19
ENDBRANCH   1  16
TORSDOF 4
ENDMDL
MODEL 2
REMARK VINA RESULT:      -6.6      2.081      3.684
REMARK  Name = 
REMARK  5 active torsions:
REMARK  status: ('A' for Active; 'I' for Inactive)
REMARK    1  A    between atoms: C_1  and  C_2
REMARK    2  A    between atoms: C_2  and  C_3
REMARK    3  A    between atoms: C_3  and  N_4
REMARK    4  A    between atoms: C_7  and  N_8
REMARK    5  A    between atoms: C_9  and  C_11
REMARK                            x       y       z     vdW  Elec       q    Type
REMARK                         _______ _______ _______ _____ _____    ______ ____
ROOT
ATOM      1  N   UNL     1       4.725   5.947  18.321  0.00  0.00    +0.000 N 
ATOM      2  C   UNL     1       3.385   5.971  18.659  0.00  0.00    +0.000 C 
ATOM      3  O   UNL     1       2.639   6.886  18.337  0.00  0.00    +0.000 OA
ATOM      4  H   UNL     1       5.241   5.085  18.445  0.00  0.00    +0.000 HD
ENDROOT
BRANCH   2   5
ATOM      5  C   UNL     1       2.907   4.827  19.500  0.00  0.00    +0.000 A 
ATOM      6  C   UNL     1       2.578   5.097  20.846  0.00  0.00    +0.000 A 
ATOM      7  C   UNL     1       2.064   4.099  21.676  0.00  0.00    +0.000 A 
ATOM      8  C   UNL     1       1.847   2.831  21.161  0.00  0.00    +0.000 A 
ATOM      9  F   UNL     1       1.332   1.879  21.948  0.00  0.00    +0.000 F 
ATOM     10  C   UNL     1       2.157   2.535  19.839  0.00  0.00    +0.000 A 
ATOM     11  C   UNL     1       2.696   3.526  19.003  0.00  0.00    +0.000 A 
ATOM     12  I   UNL     1       3.205   2.881  17.068  0.00  0.00    +0.000 I 
ENDBRANCH   2   5
BRANCH   1  16
ATOM     13  N   UNL     1       6.669   5.628  15.246  0.00  0.00    +0.000 NA
ATOM     14  C   UNL     1       5.204   5.756  15.297  0.00  0.00    +0.000 C 
ATOM     15  C   UNL     1       4.767   6.991  16.083  0.00  0.00    +0.000 C 
ATOM     16  C   UNL     1       5.345   6.988  17.496  0.00  0.00    +0.000 C 
ATOM     17  C   UNL     1       6.861   6.806  17.432  0.00  0.00    +0.000 C 
ATOM     18  C   UNL     1       7.262   5.594  16.592  0.00  0.00    +0.000 C 
BRANCH  13  19
ATOM     19  C   UNL     1       7.095   4.441  14.481  0.00  0.00    +0.000 C 
BRANCH  19  21
ATOM     20  C   UNL     1       6.408   3.491  12.217  0.00  0.00    +0.000 C 
ATOM     21  C   UNL     1       5.988   3.777  13.650  0.00  0.00    +0.000 C 
ENDBRANCH  19  21
ENDBRANCH  13  19
ENDBRANCH   1  16
TORSDOF 4
ENDMDL
MODEL 3
REMARK VINA RESULT:      -6.3      2.381      3.918
REMARK  Name = 
REMARK  5 active torsions:
REMARK  status: ('A' for Active; 'I' for Inactive)
REMARK    1  A    between atoms: C_1  and  C_2
REMARK    2  A    between atoms: C_2  and  C_3
REMARK    3  A    between atoms: C_3  and  N_4
REMARK    4  A    between atoms: C_7  and  N_8
REMARK    5  A    between atoms: C_9  and  C_11
REMARK                            x       y       z     vdW  Elec       q    Type
REMARK                         _______ _______ _______ _____ _____    ______ ____
ROOT
ATOM      1  N   UNL     1       4.807   5.657  17.789  0.00  0.00    +0.000 N 
ATOM      2  C   UNL     1       4.963   5.310  19.118  0.00  0.00    +0.000 C 
ATOM      3  O   UNL     1       6.000   5.510  19.735  0.00  0.00    +0.000 OA
ATOM      4  H   UNL     1       3.877   5.645  17.390  0.00  0.00    +0.000 HD
ENDROOT
BRANCH   2   5
ATOM      5  C   UNL     1       3.794   4.616  19.749  0.00  0.00    +0.000 A 
ATOM      6  C   UNL     1       3.955   3.261  20.112  0.00  0.00    +0.000 A 
ATOM      7  C   UNL     1       2.937   2.564  20.764  0.00  0.00    +0.000 A 
ATOM      8  C   UNL     1       1.759   3.221  21.083  0.00  0.00    +0.000 A 
ATOM      9  F   UNL     1       0.791   2.562  21.729  0.00  0.00    +0.000 F 
ATOM     10  C   UNL     1       1.571   4.555  20.743  0.00  0.00    +0.000 A 
ATOM     11  C   UNL     1       2.582   5.259  20.067  0.00  0.00    +0.000 A 
ATOM     12  I   UNL     1       2.092   7.233  19.535  0.00  0.00    +0.000 I 
ENDBRANCH   2   5
BRANCH   1  16
ATOM     13  N   UNL     1       6.493   4.657  14.707  0.00  0.00    +0.000 NA
ATOM     14  C   UNL     1       5.241   5.429  14.761  0.00  0.00    +0.000 C 
ATOM     15  C   UNL     1       5.382   6.685  15.619  0.00  0.00    +0.000 C 
ATOM     16  C   UNL     1       5.854   6.348  17.031  0.00  0.00    +0.000 C 
ATOM     17  C   UNL     1       7.127   5.506  16.961  0.00  0.00    +0.000 C 
ATOM     18  C   UNL     1       6.965   4.290  16.051  0.00  0.00    +0.000 C 
BRANCH  13  19
ATOM     19  C   UNL     1       6.361   3.447  13.873  0.00  0.00    +0.000 C 
BRANCH  19  21
ATOM     20  C   UNL     1       6.037   2.441  11.553  0.00  0.00    +0.000 C 
ATOM     21  C   UNL     1       6.198   3.714  12.370  0.00  0.00    +0.000 C 
ENDBRANCH  19  21
ENDBRANCH  13  19
ENDBRANCH   1  16
TORSDOF 4
ENDMDL
MODEL 4
REMARK VINA RESULT:      -6.2      2.142      3.595
REMARK  Name = 
REMARK  5 active torsions:
REMARK  status: ('A' for Active; 'I' for Inactive)
REMARK    1  A    between atoms: C_1  and  C_2
REMARK    2  A    between atoms: C_2  and  C_3
REMARK    3  A    between atoms: C_3  and  N_4
REMARK    4  A    between atoms: C_7  and  N_8
REMARK    5  A    between atoms: C_9  and  C_11
REMARK                            x       y       z     vdW  Elec       q    Type
REMARK                         _______ _______ _______ _____ _____    ______ ____
ROOT
ATOM      1  N   UNL     1       5.196   5.268  18.151  0.00  0.00    +0.000 N 
ATOM      2  C   UNL     1       4.862   4.485  19.239  0.00  0.00    +0.000 C 
ATOM      3  O   UNL     1       5.656   4.220  20.131  0.00  0.00    +0.000 OA
ATOM      4  H   UNL     1       4.455   5.609  17.552  0.00  0.00    +0.000 HD
ENDROOT
BRANCH   2   5
ATOM      5  C   UNL     1       3.471   3.926  19.234  0.00  0.00    +0.000 A 
ATOM      6  C   UNL     1       3.317   2.557  18.929  0.00  0.00    +0.000 A 
ATOM      7  C   UNL     1       2.063   1.946  18.968  0.00  0.00    +0.000 A 
ATOM      8  C   UNL     1       0.955   2.692  19.339  0.00  0.00    +0.000 A 
ATOM      9  F   UNL     1      -0.245   2.103  19.400  0.00  0.00    +0.000 F 
ATOM     10  C   UNL     1       1.074   4.041  19.649  0.00  0.00    +0.000 A 
ATOM     11  C   UNL     1       2.330   4.669  19.592  0.00  0.00    +0.000 A 
ATOM     12  I   UNL     1       2.313   6.734  19.988  0.00  0.00    +0.000 I 
ENDBRANCH   2   5
BRANCH   1  16
ATOM     13  N   UNL     1       7.385   5.453  15.233  0.00  0.00    +0.000 NA
ATOM     14  C   UNL     1       6.332   6.432  15.550  0.00  0.00    +0.000 C 
ATOM     15  C   UNL     1       6.490   7.002  16.959  0.00  0.00    +0.000 C 
ATOM     16  C   UNL     1       6.513   5.895  18.010  0.00  0.00    +0.000 C 
ATOM     17  C   UNL     1       7.577   4.860  17.644  0.00  0.00    +0.000 C 
ATOM     18  C   UNL     1       7.421   4.355  16.211  0.00  0.00    +0.000 C 
BRANCH  13  19
ATOM     19  C   UNL     1       7.240   4.908  13.870  0.00  0.00    +0.000 C 
BRANCH  19  21
ATOM     20  C   UNL     1       5.917   3.413  12.284  0.00  0.00    +0.000 C 
ATOM     21  C   UNL     1       6.204   3.784  13.731  0.00  0.00    +0.000 C 
ENDBRANCH  19  21
ENDBRANCH  13  19
ENDBRANCH   1  16
TORSDOF 4
ENDMDL
MODEL 5
REMARK VINA RESULT:      -6.2      2.038      3.672
REMARK  Name = 
REMARK  5 active torsions:
REMARK  status: ('A' for Active; 'I' for Inactive)
REMARK    1  A    between atoms: C_1  and  C_2
REMARK    2  A    between atoms: C_2  and  C_3
REMARK    3  A    between atoms: C_3  and  N_4
REMARK    4  A    between atoms: C_7  and  N_8
REMARK    5  A    between atoms: C_9  and  C_11
REMARK                            x       y       z     vdW  Elec       q    Type
REMARK                         _______ _______ _______ _____ _____    ______ ____
ROOT
ATOM      1  N   UNL     1       4.879   6.002  18.069  0.00  0.00    +0.000 N 
ATOM      2  C   UNL     1       3.544   6.317  18.239  0.00  0.00    +0.000 C 
ATOM      3  O   UNL     1       3.044   7.337  17.786  0.00  0.00    +0.000 OA
ATOM      4  H   UNL     1       5.188   5.065  18.296  0.00  0.00    +0.000 HD
ENDROOT
BRANCH   2   5
ATOM      5  C   UNL     1       2.748   5.353  19.066  0.00  0.00    +0.000 A 
ATOM      6  C   UNL     1       2.868   3.979  18.767  0.00  0.00    +0.000 A 
ATOM      7  C   UNL     1       2.211   3.015  19.533  0.00  0.00    +0.000 A 
ATOM      8  C   UNL     1       1.451   3.413  20.621  0.00  0.00    +0.000 A 
ATOM      9  F   UNL     1       0.840   2.489  21.372  0.00  0.00    +0.000 F 
ATOM     10  C   UNL     1       1.318   4.758  20.945  0.00  0.00    +0.000 A 
ATOM     11  C   UNL     1       1.957   5.737  20.166  0.00  0.00    +0.000 A 
ATOM     12  I   UNL     1       1.562   7.723  20.730  0.00  0.00    +0.000 I 
ENDBRANCH   2   5
BRANCH   1  16
ATOM     13  N   UNL     1       6.665   5.221  14.981  0.00  0.00    +0.000 NA
ATOM     14  C   UNL     1       5.304   5.780  15.040  0.00  0.00    +0.000 C 
ATOM     15  C   UNL     1       5.250   7.061  15.870  0.00  0.00    +0.000 C 
ATOM     16  C   UNL     1       5.789   6.837  17.281  0.00  0.00    +0.000 C 
ATOM     17  C   UNL     1       7.182   6.212  17.207  0.00  0.00    +0.000 C 
ATOM     18  C   UNL     1       7.208   4.966  16.324  0.00  0.00    +0.000 C 
BRANCH  13  19
ATOM     19  C   UNL     1       6.721   3.988  14.174  0.00  0.00    +0.000 C 
BRANCH  19  21
ATOM     20  C   UNL     1       5.815   3.042  11.987  0.00  0.00    +0.000 C 
ATOM     21  C   UNL     1       5.484   3.729  13.303  0.00  0.00    +0.000 C 
ENDBRANCH  19  21
ENDBRANCH  13  19
ENDBRANCH   1  16
TORSDOF 4
ENDMDL
MODEL 6
REMARK VINA RESULT:      -6.2      1.383      1.687
REMARK  Name = 
REMARK  5 active torsions:
REMARK  status: ('A' for Active; 'I' for Inactive)
REMARK    1  A    between atoms: C_1  and  C_2
REMARK    2  A    between atoms: C_2  and  C_3
REMARK    3  A    between atoms: C_3  and  N_4
REMARK    4  A    between atoms: C_7  and  N_8
REMARK    5  A    between atoms: C_9  and  C_11
REMARK                            x       y       z     vdW  Elec       q    Type
REMARK                         _______ _______ _______ _____ _____    ______ ____
ROOT
ATOM      1  N   UNL     1       4.414   4.510  17.522  0.00  0.00    +0.000 N 
ATOM      2  C   UNL     1       3.152   3.947  17.509  0.00  0.00    +0.000 C 
ATOM      3  O   UNL     1       2.510   3.787  16.480  0.00  0.00    +0.000 OA
ATOM      4  H   UNL     1       4.967   4.441  18.366  0.00  0.00    +0.000 HD
ENDROOT
BRANCH   2   5
ATOM      5  C   UNL     1       2.585   3.594  18.851  0.00  0.00    +0.000 A 
ATOM      6  C   UNL     1       1.615   4.459  19.401  0.00  0.00    +0.000 A 
ATOM      7  C   UNL     1       0.993   4.165  20.615  0.00  0.00    +0.000 A 
ATOM      8  C   UNL     1       1.313   2.990  21.276  0.00  0.00    +0.000 A 
ATOM      9  F   UNL     1       0.699   2.694  22.428  0.00  0.00    +0.000 F 
ATOM     10  C   UNL     1       2.260   2.115  20.759  0.00  0.00    +0.000 A 
ATOM     11  C   UNL     1       2.908   2.414  19.548  0.00  0.00    +0.000 A 
ATOM     12  I   UNL     1       4.387   1.038  18.966  0.00  0.00    +0.000 I 
ENDBRANCH   2   5
BRANCH   1  16
ATOM     13  N   UNL     1       7.263   6.751  17.078  0.00  0.00    +0.000 NA
ATOM     14  C   UNL     1       7.371   5.307  17.342  0.00  0.00    +0.000 C 
ATOM     15  C   UNL     1       6.576   4.482  16.330  0.00  0.00    +0.000 C 
ATOM     16  C   UNL     1       5.109   4.904  16.294  0.00  0.00    +0.000 C 
ATOM     17  C   UNL     1       5.012   6.413  16.068  0.00  0.00    +0.000 C 
ATOM     18  C   UNL     1       5.863   7.200  17.062  0.00  0.00    +0.000 C 
BRANCH  13  19
ATOM     19  C   UNL     1       8.035   7.549  18.049  0.00  0.00    +0.000 C 
BRANCH  19  21
ATOM     20  C   UNL     1       8.940   9.830  18.741  0.00  0.00    +0.000 C 
ATOM     21  C   UNL     1       8.053   9.059  17.775  0.00  0.00    +0.000 C 
ENDBRANCH  19  21
ENDBRANCH  13  19
ENDBRANCH   1  16
TORSDOF 4
ENDMDL
MODEL 7
REMARK VINA RESULT:      -6.1      4.396      6.439
REMARK  Name = 
REMARK  5 active torsions:
REMARK  status: ('A' for Active; 'I' for Inactive)
REMARK    1  A    between atoms: C_1  and  C_2
REMARK    2  A    between atoms: C_2  and  C_3
REMARK    3  A    between atoms: C_3  and  N_4
REMARK    4  A    between atoms: C_7  and  N_8
REMARK    5  A    between atoms: C_9  and  C_11
REMARK                            x       y       z     vdW  Elec       q    Type
REMARK                         _______ _______ _______ _____ _____    ______ ____
ROOT
ATOM      1  N   UNL     1       2.025   7.090  19.157  0.00  0.00    +0.000 N 
ATOM      2  C   UNL     1       1.791   8.451  19.094  0.00  0.00    +0.000 C 
ATOM      3  O   UNL     1       2.230   9.155  18.195  0.00  0.00    +0.000 OA
ATOM      4  H   UNL     1       1.483   6.535  19.807  0.00  0.00    +0.000 HD
ENDROOT
BRANCH   2   5
ATOM      5  C   UNL     1       1.008   9.029  20.233  0.00  0.00    +0.000 A 
ATOM      6  C   UNL     1       1.439   8.727  21.543  0.00  0.00    +0.000 A 
ATOM      7  C   UNL     1       0.804   9.280  22.656  0.00  0.00    +0.000 A 
ATOM      8  C   UNL     1      -0.250  10.161  22.470  0.00  0.00    +0.000 A 
ATOM      9  F   UNL     1      -0.845  10.711  23.534  0.00  0.00    +0.000 F 
ATOM     10  C   UNL     1      -0.695  10.482  21.193  0.00  0.00    +0.000 A 
ATOM     11  C   UNL     1      -0.075   9.913  20.067  0.00  0.00    +0.000 A 
ATOM     12  I   UNL     1      -0.941  10.422  18.220  0.00  0.00    +0.000 I 
ENDBRANCH   2   5
BRANCH   1  16
ATOM     13  N   UNL     1       3.279   3.660  19.142  0.00  0.00    +0.000 NA
ATOM     14  C   UNL     1       1.935   4.059  18.694  0.00  0.00    +0.000 C 
ATOM     15  C   UNL     1       1.990   5.151  17.627  0.00  0.00    +0.000 C 
ATOM     16  C   UNL     1       2.766   6.372  18.117  0.00  0.00    +0.000 C 
ATOM     17  C   UNL     1       4.141   5.938  18.624  0.00  0.00    +0.000 C 
ATOM     18  C   UNL     1       4.049   4.807  19.646  0.00  0.00    +0.000 C 
BRANCH  13  19
ATOM     19  C   UNL     1       3.228   2.600  20.166  0.00  0.00    +0.000 C 
BRANCH  19  21
ATOM     20  C   UNL     1       1.275   2.519  21.802  0.00  0.00    +0.000 C 
ATOM     21  C   UNL     1       2.676   3.043  21.528  0.00  0.00    +0.000 C 
ENDBRANCH  19  21
ENDBRANCH  13  19
ENDBRANCH   1  16
TORSDOF 4
ENDMDL
MODEL 8
REMARK VINA RESULT:      -5.9      1.993      3.536
REMARK  Name = 
REMARK  5 active torsions:
REMARK  status: ('A' for Active; 'I' for Inactive)
REMARK    1  A    between atoms: C_1  and  C_2
REMARK    2  A    between atoms: C_2  and  C_3
REMARK    3  A    between atoms: C_3  and  N_4
REMARK    4  A    between atoms: C_7  and  N_8
REMARK    5  A    between atoms: C_9  and  C_11
REMARK                            x       y       z     vdW  Elec       q    Type
REMARK                         _______ _______ _______ _____ _____    ______ ____
ROOT
ATOM      1  N   UNL     1       5.215   5.208  18.449  0.00  0.00    +0.000 N 
ATOM      2  C   UNL     1       3.930   5.710  18.356  0.00  0.00    +0.000 C 
ATOM      3  O   UNL     1       3.697   6.888  18.123  0.00  0.00    +0.000 OA
ATOM      4  H   UNL     1       5.344   4.204  18.450  0.00  0.00    +0.000 HD
ENDROOT
BRANCH   2   5
ATOM      5  C   UNL     1       2.829   4.728  18.618  0.00  0.00    +0.000 A 
ATOM      6  C   UNL     1       2.818   3.539  17.857  0.00  0.00    +0.000 A 
ATOM      7  C   UNL     1       1.864   2.546  18.086  0.00  0.00    +0.000 A 
ATOM      8  C   UNL     1       0.930   2.720  19.095  0.00  0.00    +0.000 A 
ATOM      9  F   UNL     1       0.029   1.759  19.333  0.00  0.00    +0.000 F 
ATOM     10  C   UNL     1       0.917   3.877  19.864  0.00  0.00    +0.000 A 
ATOM     11  C   UNL     1       1.860   4.892  19.626  0.00  0.00    +0.000 A 
ATOM     12  I   UNL     1       1.631   6.617  20.807  0.00  0.00    +0.000 I 
ENDBRANCH   2   5
BRANCH   1  16
ATOM     13  N   UNL     1       7.318   5.468  15.475  0.00  0.00    +0.000 NA
ATOM     14  C   UNL     1       6.112   6.276  15.716  0.00  0.00    +0.000 C 
ATOM     15  C   UNL     1       6.175   7.008  17.057  0.00  0.00    +0.000 C 
ATOM     16  C   UNL     1       6.400   6.037  18.213  0.00  0.00    +0.000 C 
ATOM     17  C   UNL     1       7.627   5.171  17.928  0.00  0.00    +0.000 C 
ATOM     18  C   UNL     1       7.554   4.501  16.557  0.00  0.00    +0.000 C 
BRANCH  13  19
ATOM     19  C   UNL     1       7.263   4.767  14.178  0.00  0.00    +0.000 C 
BRANCH  19  21
ATOM     20  C   UNL     1       5.845   3.445  12.524  0.00  0.00    +0.000 C 
ATOM     21  C   UNL     1       6.014   3.902  13.964  0.00  0.00    +0.000 C 
ENDBRANCH  19  21
ENDBRANCH  13  19
ENDBRANCH   1  16
TORSDOF 4
ENDMDL
MODEL 9
REMARK VINA RESULT:      -5.8      4.283      5.322
REMARK  Name = 
REMARK  5 active torsions:
REMARK  status: ('A' for Active; 'I' for Inactive)
REMARK    1  A    between atoms: C_1  and  C_2
REMARK    2  A    between atoms: C_2  and  C_3
REMARK    3  A    between atoms: C_3  and  N_4
REMARK    4  A    between atoms: C_7  and  N_8
REMARK    5  A    between atoms: C_9  and  C_11
REMARK                            x       y       z     vdW  Elec       q    Type
REMARK                         _______ _______ _______ _____ _____    ______ ____
ROOT
ATOM      1  N   UNL     1       2.599   6.386  18.677  0.00  0.00    +0.000 N 
ATOM      2  C   UNL     1       1.945   7.082  19.677  0.00  0.00    +0.000 C 
ATOM      3  O   UNL     1       1.545   6.547  20.701  0.00  0.00    +0.000 OA
ATOM      4  H   UNL     1       3.072   6.909  17.952  0.00  0.00    +0.000 HD
ENDROOT
BRANCH   2   5
ATOM      5  C   UNL     1       1.702   8.536  19.404  0.00  0.00    +0.000 A 
ATOM      6  C   UNL     1       2.237   9.077  18.215  0.00  0.00    +0.000 A 
ATOM      7  C   UNL     1       2.000  10.404  17.857  0.00  0.00    +0.000 A 
ATOM      8  C   UNL     1       1.203  11.196  18.669  0.00  0.00    +0.000 A 
ATOM      9  F   UNL     1       0.954  12.462  18.316  0.00  0.00    +0.000 F 
ATOM     10  C   UNL     1       0.658  10.691  19.844  0.00  0.00    +0.000 A 
ATOM     11  C   UNL     1       0.910   9.362  20.223  0.00  0.00    +0.000 A 
ATOM     12  I   UNL     1       0.099   8.795  22.078  0.00  0.00    +0.000 I 
ENDBRANCH   2   5
BRANCH   1  16
ATOM     13  N   UNL     1       5.724   4.637  17.961  0.00  0.00    +0.000 NA
ATOM     14  C   UNL     1       5.385   5.241  19.260  0.00  0.00    +0.000 C 
ATOM     15  C   UNL     1       4.048   4.728  19.795  0.00  0.00    +0.000 C 
ATOM     16  C   UNL     1       2.919   4.961  18.794  0.00  0.00    +0.000 C 
ATOM     17  C   UNL     1       3.304   4.372  17.437  0.00  0.00    +0.000 C 
ATOM     18  C   UNL     1       4.669   4.864  16.961  0.00  0.00    +0.000 C 
BRANCH  13  19
ATOM     19  C   UNL     1       7.017   5.124  17.446  0.00  0.00    +0.000 C 
BRANCH  19  21
ATOM     20  C   UNL     1       7.633   7.596  17.550  0.00  0.00    +0.000 C 
ATOM     21  C   UNL     1       7.655   6.254  18.266  0.00  0.00    +0.000 C 
ENDBRANCH  19  21
ENDBRANCH  13  19
ENDBRANCH   1  16
TORSDOF 4
ENDMDL
