MODEL 1
REMARK VINA RESULT:      -6.1      0.000      0.000
REMARK  Name = 
REMARK  7 active torsions:
REMARK  status: ('A' for Active; 'I' for Inactive)
REMARK    1  A    between atoms: C_1  and  C_2
REMARK    2  A    between atoms: C_2  and  C_3
REMARK    3  A    between atoms: C_2  and  C_4
REMARK    4  A    between atoms: C_4  and  C_5
REMARK    5  A    between atoms: C_5  and  C_6
REMARK    6  A    between atoms: C_5  and  N_8
REMARK    7  A    between atoms: C_6  and  O_7
REMARK                            x       y       z     vdW  Elec       q    Type
REMARK                         _______ _______ _______ _____ _____    ______ ____
ROOT
ATOM      1  N   UNL     1       5.238   5.413  18.755  0.00  0.00    +0.000 N 
ATOM      2  C   UNL     1       4.515   6.140  17.705  0.00  0.00    +0.000 C 
ATOM      3  C   UNL     1       4.945   5.736  16.285  0.00  0.00    +0.000 C 
ATOM      4  N   UNL     1       6.196   6.344  15.819  0.00  0.00    +0.000 NA
ATOM      5  C   UNL     1       7.354   5.953  16.627  0.00  0.00    +0.000 C 
ATOM      6  C   UNL     1       7.337   6.531  18.036  0.00  0.00    +0.000 C 
ATOM      7  C   UNL     1       6.581   5.641  19.003  0.00  0.00    +0.000 C 
ATOM      8  O   UNL     1       7.170   5.174  19.974  0.00  0.00    +0.000 OA
ATOM      9  H   UNL     1       6.109   7.362  15.820  0.00  0.00    +0.000 HD
ENDROOT
BRANCH   1  10
ATOM     10  C   UNL     1       4.465   4.436  19.578  0.00  0.00    +0.000 C 
BRANCH  10  11
ATOM     11  C   UNL     1       2.989   4.873  19.720  0.00  0.00    +0.000 C 
BRANCH  11  13
ATOM     12  C   UNL     1       0.733   3.771  20.228  0.00  0.00    +0.000 C 
ATOM     13  C   UNL     1       1.923   3.852  19.272  0.00  0.00    +0.000 C 
ATOM     14  C   UNL     1       1.421   4.229  17.873  0.00  0.00    +0.000 C 
ENDBRANCH  11  13
ENDBRANCH  10  11
BRANCH  10  15
ATOM     15  C   UNL     1       4.671   2.973  19.112  0.00  0.00    +0.000 C 
BRANCH  15  16
ATOM     16  O   UNL     1       5.163   2.087  20.107  0.00  0.00    +0.000 OA
ATOM     17  H   UNL     1       5.886   1.554  19.708  0.00  0.00    +0.000 HD
ENDBRANCH  15  16
ENDBRANCH  10  15
ENDBRANCH   1  10
TORSDOF 5
ENDMDL
MODEL 2
REMARK VINA RESULT:      -6.1      1.170      1.421
REMARK  Name = 
REMARK  7 active torsions:
REMARK  status: ('A' for Active; 'I' for Inactive)
REMARK    1  A    between atoms: C_1  and  C_2
REMARK    2  A    between atoms: C_2  and  C_3
REMARK    3  A    between atoms: C_2  and  C_4
REMARK    4  A    between atoms: C_4  and  C_5
REMARK    5  A    between atoms: C_5  and  C_6
REMARK    6  A    between atoms: C_5  and  N_8
REMARK    7  A    between atoms: C_6  and  O_7
REMARK                            x       y       z     vdW  Elec       q    Type
REMARK                         _______ _______ _______ _____ _____    ______ ____
ROOT
ATOM      1  N   UNL     1       4.790   4.513  18.235  0.00  0.00    +0.000 N 
ATOM      2  C   UNL     1       4.407   4.760  16.840  0.00  0.00    +0.000 C 
ATOM      3  C   UNL     1       5.271   3.986  15.830  0.00  0.00    +0.000 C 
ATOM      4  N   UNL     1       6.585   4.577  15.555  0.00  0.00    +0.000 NA
ATOM      5  C   UNL     1       7.445   4.626  16.740  0.00  0.00    +0.000 C 
ATOM      6  C   UNL     1       6.972   5.617  17.796  0.00  0.00    +0.000 C 
ATOM      7  C   UNL     1       5.981   4.989  18.756  0.00  0.00    +0.000 C 
ATOM      8  O   UNL     1       6.252   4.941  19.953  0.00  0.00    +0.000 OA
ATOM      9  H   UNL     1       6.470   5.520  15.179  0.00  0.00    +0.000 HD
ENDROOT
BRANCH   1  10
ATOM     10  C   UNL     1       3.830   3.755  19.091  0.00  0.00    +0.000 C 
BRANCH  10  11
ATOM     11  C   UNL     1       2.370   4.021  18.660  0.00  0.00    +0.000 C 
BRANCH  11  13
ATOM     12  C   UNL     1       1.104   3.160  20.715  0.00  0.00    +0.000 C 
ATOM     13  C   UNL     1       1.368   4.347  19.788  0.00  0.00    +0.000 C 
ATOM     14  C   UNL     1       1.904   5.522  20.614  0.00  0.00    +0.000 C 
ENDBRANCH  11  13
ENDBRANCH  10  11
BRANCH  10  15
ATOM     15  C   UNL     1       4.209   2.258  19.226  0.00  0.00    +0.000 C 
BRANCH  15  16
ATOM     16  O   UNL     1       5.205   1.974  20.197  0.00  0.00    +0.000 OA
ATOM     17  H   UNL     1       6.062   2.319  19.863  0.00  0.00    +0.000 HD
ENDBRANCH  15  16
ENDBRANCH  10  15
ENDBRANCH   1  10
TORSDOF 5
ENDMDL
MODEL 3
REMARK VINA RESULT:      -6.0      2.533      5.304
REMARK  Name = 
REMARK  7 active torsions:
REMARK  status: ('A' for Active; 'I' for Inactive)
REMARK    1  A    between atoms: C_1  and  C_2
REMARK    2  A    between atoms: C_2  and  C_3
REMARK    3  A    between atoms: C_2  and  C_4
REMARK    4  A    between atoms: C_4  and  C_5
REMARK    5  A    between atoms: C_5  and  C_6
REMARK    6  A    between atoms: C_5  and  N_8
REMARK    7  A    between atoms: C_6  and  O_7
REMARK                            x       y       z     vdW  Elec       q    Type
REMARK                         _______ _______ _______ _____ _____    ______ ____
ROOT
ATOM      1  N   UNL     1       3.497   4.271  19.541  0.00  0.00    +0.000 N 
ATOM      2  C   UNL     1       4.004   2.948  19.161  0.00  0.00    +0.000 C 
ATOM      3  C   UNL     1       3.186   2.286  18.040  0.00  0.00    +0.000 C 
ATOM      4  N   UNL     1       1.932   1.661  18.473  0.00  0.00    +0.000 NA
ATOM      5  C   UNL     1       0.982   2.623  19.036  0.00  0.00    +0.000 C 
ATOM      6  C   UNL     1       1.419   3.197  20.378  0.00  0.00    +0.000 C 
ATOM      7  C   UNL     1       2.294   4.423  20.210  0.00  0.00    +0.000 C 
ATOM      8  O   UNL     1       1.924   5.494  20.683  0.00  0.00    +0.000 OA
ATOM      9  H   UNL     1       2.127   0.931  19.162  0.00  0.00    +0.000 HD
ENDROOT
BRANCH   1  10
ATOM     10  C   UNL     1       4.342   5.457  19.212  0.00  0.00    +0.000 C 
BRANCH  10  11
ATOM     11  C   UNL     1       5.843   5.089  19.217  0.00  0.00    +0.000 C 
BRANCH  11  13
ATOM     12  C   UNL     1       7.847   6.573  18.629  0.00  0.00    +0.000 C 
ATOM     13  C   UNL     1       6.707   5.705  18.097  0.00  0.00    +0.000 C 
ATOM     14  C   UNL     1       7.292   4.579  17.235  0.00  0.00    +0.000 C 
ENDBRANCH  11  13
ENDBRANCH  10  11
BRANCH  10  15
ATOM     15  C   UNL     1       3.856   6.198  17.940  0.00  0.00    +0.000 C 
BRANCH  15  16
ATOM     16  O   UNL     1       2.810   7.134  18.151  0.00  0.00    +0.000 OA
ATOM     17  H   UNL     1       3.216   7.990  18.412  0.00  0.00    +0.000 HD
ENDBRANCH  15  16
ENDBRANCH  10  15
ENDBRANCH   1  10
TORSDOF 5
ENDMDL
MODEL 4
REMARK VINA RESULT:      -6.0      2.135      5.298
REMARK  Name = 
REMARK  7 active torsions:
REMARK  status: ('A' for Active; 'I' for Inactive)
REMARK    1  A    between atoms: C_1  and  C_2
REMARK    2  A    between atoms: C_2  and  C_3
REMARK    3  A    between atoms: C_2  and  C_4
REMARK    4  A    between atoms: C_4  and  C_5
REMARK    5  A    between atoms: C_5  and  C_6
REMARK    6  A    between atoms: C_5  and  N_8
REMARK    7  A    between atoms: C_6  and  O_7
REMARK                            x       y       z     vdW  Elec       q    Type
REMARK                         _______ _______ _______ _____ _____    ______ ____
ROOT
ATOM      1  N   UNL     1       3.188   3.938  18.425  0.00  0.00    +0.000 N 
ATOM      2  C   UNL     1       2.226   4.998  18.746  0.00  0.00    +0.000 C 
ATOM      3  C   UNL     1       1.740   4.952  20.205  0.00  0.00    +0.000 C 
ATOM      4  N   UNL     1       0.704   3.952  20.483  0.00  0.00    +0.000 NA
ATOM      5  C   UNL     1       1.161   2.580  20.255  0.00  0.00    +0.000 C 
ATOM      6  C   UNL     1       1.399   2.252  18.787  0.00  0.00    +0.000 C 
ATOM      7  C   UNL     1       2.805   2.609  18.348  0.00  0.00    +0.000 C 
ATOM      8  O   UNL     1       3.544   1.725  17.924  0.00  0.00    +0.000 OA
ATOM      9  H   UNL     1      -0.120   4.136  19.906  0.00  0.00    +0.000 HD
ENDROOT
BRANCH   1  10
ATOM     10  C   UNL     1       4.598   4.343  18.149  0.00  0.00    +0.000 C 
BRANCH  10  11
ATOM     11  C   UNL     1       4.765   4.813  16.685  0.00  0.00    +0.000 C 
BRANCH  11  13
ATOM     12  C   UNL     1       5.625   4.273  14.333  0.00  0.00    +0.000 C 
ATOM     13  C   UNL     1       5.811   4.061  15.836  0.00  0.00    +0.000 C 
ATOM     14  C   UNL     1       7.215   4.525  16.241  0.00  0.00    +0.000 C 
ENDBRANCH  11  13
ENDBRANCH  10  11
BRANCH  10  15
ATOM     15  C   UNL     1       5.156   5.319  19.216  0.00  0.00    +0.000 C 
BRANCH  15  16
ATOM     16  O   UNL     1       6.463   5.018  19.682  0.00  0.00    +0.000 OA
ATOM     17  H   UNL     1       6.467   5.120  20.659  0.00  0.00    +0.000 HD
ENDBRANCH  15  16
ENDBRANCH  10  15
ENDBRANCH   1  10
TORSDOF 5
ENDMDL
MODEL 5
REMARK VINA RESULT:      -5.9      2.146      5.231
REMARK  Name = 
REMARK  7 active torsions:
REMARK  status: ('A' for Active; 'I' for Inactive)
REMARK    1  A    between atoms: C_1  and  C_2
REMARK    2  A    between atoms: C_2  and  C_3
REMARK    3  A    between atoms: C_2  and  C_4
REMARK    4  A    between atoms: C_4  and  C_5
REMARK    5  A    between atoms: C_5  and  C_6
REMARK    6  A    between atoms: C_5  and  N_8
REMARK    7  A    between atoms: C_6  and  O_7
REMARK                            x       y       z     vdW  Elec       q    Type
REMARK                         _______ _______ _______ _____ _____    ______ ____
ROOT
ATOM      1  N   UNL     1       2.855   4.455  18.631  0.00  0.00    +0.000 N 
ATOM      2  C   UNL     1       2.348   5.128  19.833  0.00  0.00    +0.000 C 
ATOM      3  C   UNL     1       2.238   4.192  21.049  0.00  0.00    +0.000 C 
ATOM      4  N   UNL     1       1.055   3.324  21.059  0.00  0.00    +0.000 NA
ATOM      5  C   UNL     1       1.026   2.389  19.932  0.00  0.00    +0.000 C 
ATOM      6  C   UNL     1       0.797   3.063  18.585  0.00  0.00    +0.000 C 
ATOM      7  C   UNL     1       2.097   3.517  17.951  0.00  0.00    +0.000 C 
ATOM      8  O   UNL     1       2.423   3.060  16.858  0.00  0.00    +0.000 OA
ATOM      9  H   UNL     1       0.206   3.894  21.049  0.00  0.00    +0.000 HD
ENDROOT
BRANCH   1  10
ATOM     10  C   UNL     1       4.211   4.841  18.141  0.00  0.00    +0.000 C 
BRANCH  10  11
ATOM     11  C   UNL     1       4.275   6.350  17.814  0.00  0.00    +0.000 C 
BRANCH  11  13
ATOM     12  C   UNL     1       6.655   7.089  17.217  0.00  0.00    +0.000 C 
ATOM     13  C   UNL     1       5.253   6.771  16.697  0.00  0.00    +0.000 C 
ATOM     14  C   UNL     1       5.343   5.647  15.657  0.00  0.00    +0.000 C 
ENDBRANCH  11  13
ENDBRANCH  10  11
BRANCH  10  15
ATOM     15  C   UNL     1       5.345   4.323  19.063  0.00  0.00    +0.000 C 
BRANCH  15  16
ATOM     16  O   UNL     1       5.240   2.958  19.438  0.00  0.00    +0.000 OA
ATOM     17  H   UNL     1       4.556   2.888  20.140  0.00  0.00    +0.000 HD
ENDBRANCH  15  16
ENDBRANCH  10  15
ENDBRANCH   1  10
TORSDOF 5
ENDMDL
MODEL 6
REMARK VINA RESULT:      -5.9      2.074      5.184
REMARK  Name = 
REMARK  7 active torsions:
REMARK  status: ('A' for Active; 'I' for Inactive)
REMARK    1  A    between atoms: C_1  and  C_2
REMARK    2  A    between atoms: C_2  and  C_3
REMARK    3  A    between atoms: C_2  and  C_4
REMARK    4  A    between atoms: C_4  and  C_5
REMARK    5  A    between atoms: C_5  and  C_6
REMARK    6  A    between atoms: C_5  and  N_8
REMARK    7  A    between atoms: C_6  and  O_7
REMARK                            x       y       z     vdW  Elec       q    Type
REMARK                         _______ _______ _______ _____ _____    ______ ____
ROOT
ATOM      1  N   UNL     1       2.952   3.973  18.203  0.00  0.00    +0.000 N 
ATOM      2  C   UNL     1       2.136   5.112  18.639  0.00  0.00    +0.000 C 
ATOM      3  C   UNL     1       1.800   5.075  20.140  0.00  0.00    +0.000 C 
ATOM      4  N   UNL     1       0.705   4.172  20.509  0.00  0.00    +0.000 NA
ATOM      5  C   UNL     1       1.001   2.768  20.213  0.00  0.00    +0.000 C 
ATOM      6  C   UNL     1       1.054   2.457  18.723  0.00  0.00    +0.000 C 
ATOM      7  C   UNL     1       2.437   2.690  18.145  0.00  0.00    +0.000 C 
ATOM      8  O   UNL     1       3.039   1.750  17.633  0.00  0.00    +0.000 OA
ATOM      9  H   UNL     1      -0.152   4.448  20.023  0.00  0.00    +0.000 HD
ENDROOT
BRANCH   1  10
ATOM     10  C   UNL     1       4.359   4.250  17.787  0.00  0.00    +0.000 C 
BRANCH  10  11
ATOM     11  C   UNL     1       4.461   5.591  17.026  0.00  0.00    +0.000 C 
BRANCH  11  13
ATOM     12  C   UNL     1       6.917   5.929  16.378  0.00  0.00    +0.000 C 
ATOM     13  C   UNL     1       5.496   5.658  15.883  0.00  0.00    +0.000 C 
ATOM     14  C   UNL     1       5.475   4.335  15.108  0.00  0.00    +0.000 C 
ENDBRANCH  11  13
ENDBRANCH  10  11
BRANCH  10  15
ATOM     15  C   UNL     1       5.367   4.082  18.952  0.00  0.00    +0.000 C 
BRANCH  15  16
ATOM     16  O   UNL     1       5.326   2.823  19.608  0.00  0.00    +0.000 OA
ATOM     17  H   UNL     1       4.806   2.929  20.435  0.00  0.00    +0.000 HD
ENDBRANCH  15  16
ENDBRANCH  10  15
ENDBRANCH   1  10
TORSDOF 5
ENDMDL
MODEL 7
REMARK VINA RESULT:      -5.8      1.899      4.990
REMARK  Name = 
REMARK  7 active torsions:
REMARK  status: ('A' for Active; 'I' for Inactive)
REMARK    1  A    between atoms: C_1  and  C_2
REMARK    2  A    between atoms: C_2  and  C_3
REMARK    3  A    between atoms: C_2  and  C_4
REMARK    4  A    between atoms: C_4  and  C_5
REMARK    5  A    between atoms: C_5  and  C_6
REMARK    6  A    between atoms: C_5  and  N_8
REMARK    7  A    between atoms: C_6  and  O_7
REMARK                            x       y       z     vdW  Elec       q    Type
REMARK                         _______ _______ _______ _____ _____    ______ ____
ROOT
ATOM      1  N   UNL     1       3.866   3.791  19.008  0.00  0.00    +0.000 N 
ATOM      2  C   UNL     1       2.589   4.370  18.576  0.00  0.00    +0.000 C 
ATOM      3  C   UNL     1       1.920   5.234  19.658  0.00  0.00    +0.000 C 
ATOM      4  N   UNL     1       1.206   4.485  20.697  0.00  0.00    +0.000 NA
ATOM      5  C   UNL     1       2.090   3.618  21.481  0.00  0.00    +0.000 C 
ATOM      6  C   UNL     1       2.641   2.437  20.694  0.00  0.00    +0.000 C 
ATOM      7  C   UNL     1       3.923   2.791  19.965  0.00  0.00    +0.000 C 
ATOM      8  O   UNL     1       4.952   2.176  20.228  0.00  0.00    +0.000 OA
ATOM      9  H   UNL     1       0.466   3.921  20.273  0.00  0.00    +0.000 HD
ENDROOT
BRANCH   1  10
ATOM     10  C   UNL     1       5.111   4.293  18.355  0.00  0.00    +0.000 C 
BRANCH  10  11
ATOM     11  C   UNL     1       4.873   4.584  16.855  0.00  0.00    +0.000 C 
BRANCH  11  13
ATOM     12  C   UNL     1       5.566   4.291  14.406  0.00  0.00    +0.000 C 
ATOM     13  C   UNL     1       5.893   3.980  15.867  0.00  0.00    +0.000 C 
ATOM     14  C   UNL     1       7.291   4.516  16.196  0.00  0.00    +0.000 C 
ENDBRANCH  11  13
ENDBRANCH  10  11
BRANCH  10  15
ATOM     15  C   UNL     1       5.774   5.448  19.147  0.00  0.00    +0.000 C 
BRANCH  15  16
ATOM     16  O   UNL     1       6.959   5.097  19.845  0.00  0.00    +0.000 OA
ATOM     17  H   UNL     1       7.595   5.840  19.755  0.00  0.00    +0.000 HD
ENDBRANCH  15  16
ENDBRANCH  10  15
ENDBRANCH   1  10
TORSDOF 5
ENDMDL
MODEL 8
REMARK VINA RESULT:      -5.8      0.877      1.198
REMARK  Name = 
REMARK  7 active torsions:
REMARK  status: ('A' for Active; 'I' for Inactive)
REMARK    1  A    between atoms: C_1  and  C_2
REMARK    2  A    between atoms: C_2  and  C_3
REMARK    3  A    between atoms: C_2  and  C_4
REMARK    4  A    between atoms: C_4  and  C_5
REMARK    5  A    between atoms: C_5  and  C_6
REMARK    6  A    between atoms: C_5  and  N_8
REMARK    7  A    between atoms: C_6  and  O_7
REMARK                            x       y       z     vdW  Elec       q    Type
REMARK                         _______ _______ _______ _____ _____    ______ ____
ROOT
ATOM      1  N   UNL     1       5.141   5.425  18.385  0.00  0.00    +0.000 N 
ATOM      2  C   UNL     1       4.590   6.019  17.162  0.00  0.00    +0.000 C 
ATOM      3  C   UNL     1       5.142   5.378  15.877  0.00  0.00    +0.000 C 
ATOM      4  N   UNL     1       6.476   5.838  15.477  0.00  0.00    +0.000 NA
ATOM      5  C   UNL     1       7.509   5.515  16.465  0.00  0.00    +0.000 C 
ATOM      6  C   UNL     1       7.381   6.303  17.761  0.00  0.00    +0.000 C 
ATOM      7  C   UNL     1       6.462   5.616  18.753  0.00  0.00    +0.000 C 
ATOM      8  O   UNL     1       6.908   5.273  19.845  0.00  0.00    +0.000 OA
ATOM      9  H   UNL     1       6.463   6.848  15.318  0.00  0.00    +0.000 HD
ENDROOT
BRANCH   1  10
ATOM     10  C   UNL     1       4.217   4.630  19.246  0.00  0.00    +0.000 C 
BRANCH  10  11
ATOM     11  C   UNL     1       2.791   5.229  19.231  0.00  0.00    +0.000 C 
BRANCH  11  13
ATOM     12  C   UNL     1       1.321   6.504  20.897  0.00  0.00    +0.000 C 
ATOM     13  C   UNL     1       2.011   5.182  20.562  0.00  0.00    +0.000 C 
ATOM     14  C   UNL     1       0.960   4.068  20.491  0.00  0.00    +0.000 C 
ENDBRANCH  11  13
ENDBRANCH  10  11
BRANCH  10  15
ATOM     15  C   UNL     1       4.290   3.111  18.952  0.00  0.00    +0.000 C 
BRANCH  15  16
ATOM     16  O   UNL     1       5.095   2.361  19.849  0.00  0.00    +0.000 OA
ATOM     17  H   UNL     1       5.576   1.680  19.330  0.00  0.00    +0.000 HD
ENDBRANCH  15  16
ENDBRANCH  10  15
ENDBRANCH   1  10
TORSDOF 5
ENDMDL
MODEL 9
REMARK VINA RESULT:      -5.8      1.703      1.976
REMARK  Name = 
REMARK  7 active torsions:
REMARK  status: ('A' for Active; 'I' for Inactive)
REMARK    1  A    between atoms: C_1  and  C_2
REMARK    2  A    between atoms: C_2  and  C_3
REMARK    3  A    between atoms: C_2  and  C_4
REMARK    4  A    between atoms: C_4  and  C_5
REMARK    5  A    between atoms: C_5  and  C_6
REMARK    6  A    between atoms: C_5  and  N_8
REMARK    7  A    between atoms: C_6  and  O_7
REMARK                            x       y       z     vdW  Elec       q    Type
REMARK                         _______ _______ _______ _____ _____    ______ ____
ROOT
ATOM      1  N   UNL     1       4.860   4.308  17.940  0.00  0.00    +0.000 N 
ATOM      2  C   UNL     1       4.767   4.537  16.493  0.00  0.00    +0.000 C 
ATOM      3  C   UNL     1       5.882   3.836  15.697  0.00  0.00    +0.000 C 
ATOM      4  N   UNL     1       7.177   4.525  15.705  0.00  0.00    +0.000 NA
ATOM      5  C   UNL     1       7.758   4.629  17.046  0.00  0.00    +0.000 C 
ATOM      6  C   UNL     1       6.998   5.573  17.968  0.00  0.00    +0.000 C 
ATOM      7  C   UNL     1       5.874   4.866  18.699  0.00  0.00    +0.000 C 
ATOM      8  O   UNL     1       5.886   4.829  19.927  0.00  0.00    +0.000 OA
ATOM      9  H   UNL     1       7.075   5.461  15.305  0.00  0.00    +0.000 HD
ENDROOT
BRANCH   1  10
ATOM     10  C   UNL     1       3.799   3.474  18.578  0.00  0.00    +0.000 C 
BRANCH  10  11
ATOM     11  C   UNL     1       2.530   4.310  18.861  0.00  0.00    +0.000 C 
BRANCH  11  13
ATOM     12  C   UNL     1       1.647   5.936  20.634  0.00  0.00    +0.000 C 
ATOM     13  C   UNL     1       2.166   4.527  20.345  0.00  0.00    +0.000 C 
ATOM     14  C   UNL     1       1.102   3.503  20.757  0.00  0.00    +0.000 C 
ENDBRANCH  11  13
ENDBRANCH  10  11
BRANCH  10  15
ATOM     15  C   UNL     1       3.550   2.146  17.818  0.00  0.00    +0.000 C 
BRANCH  15  16
ATOM     16  O   UNL     1       2.226   1.640  17.908  0.00  0.00    +0.000 OA
ATOM     17  H   UNL     1       1.676   2.309  18.371  0.00  0.00    +0.000 HD
ENDBRANCH  15  16
ENDBRANCH  10  15
ENDBRANCH   1  10
TORSDOF 5
ENDMDL
