MODEL 1
REMARK VINA RESULT:      -7.4      0.000      0.000
REMARK  Name = 
REMARK  11 active torsions:
REMARK  status: ('A' for Active; 'I' for Inactive)
REMARK    1  A    between atoms: C_1  and  C_2
REMARK    2  A    between atoms: C_2  and  C_3
REMARK    3  A    between atoms: C_3  and  O_4
REMARK    4  A    between atoms: O_4  and  C_5
REMARK    5  A    between atoms: C_5  and  C_6
REMARK    6  A    between atoms: C_6  and  C_7
REMARK    7  A    between atoms: N_14  and  C1*_15
REMARK    8  A    between atoms: C4*_17  and  C5*_18
REMARK    9  A    between atoms: C5*_18  and  O5*_19
REMARK   10  A    between atoms: C3*_20  and  O3*_21
REMARK   11  A    between atoms: C2*_22  and  O2*_23
REMARK                            x       y       z     vdW  Elec       q    Type
REMARK                         _______ _______ _______ _____ _____    ______ ____
ROOT
ATOM      1  C   UNL     1       7.410   6.607  17.692  0.00  0.00    +0.000 A 
ATOM      2  N   UNL     1       7.711   6.386  16.387  0.00  0.00    +0.000 NA
ATOM      3  C   UNL     1       7.033   5.443  15.699  0.00  0.00    +0.000 A 
ATOM      4  N   UNL     1       7.308   5.269  14.349  0.00  0.00    +0.000 N 
ATOM      5  C   UNL     1       6.061   4.686  16.370  0.00  0.00    +0.000 A 
ATOM      6  N   UNL     1       5.243   3.651  15.976  0.00  0.00    +0.000 NA
ATOM      7  C   UNL     1       4.503   3.381  17.031  0.00  0.00    +0.000 A 
ATOM      8  N   UNL     1       4.813   4.199  18.092  0.00  0.00    +0.000 N 
ATOM      9  C   UNL     1       5.837   5.015  17.698  0.00  0.00    +0.000 A 
ATOM     10  N   UNL     1       6.474   5.953  18.418  0.00  0.00    +0.000 NA
ATOM     11  H   UNL     1       8.206   5.631  14.065  0.00  0.00    +0.000 HD
ATOM     12  H   UNL     1       6.988   4.391  13.963  0.00  0.00    +0.000 HD
ENDROOT
BRANCH   8  13
ATOM     13  C1* UNL     1       4.136   4.202  19.370  0.00  0.00    +0.000 C 
ATOM     14  O4* UNL     1       3.778   2.846  19.716  0.00  0.00    +0.000 OA
ATOM     15  C4* UNL     1       2.431   2.840  20.252  0.00  0.00    +0.000 C 
ATOM     16  C3* UNL     1       2.030   4.303  20.443  0.00  0.00    +0.000 C 
ATOM     17  C2* UNL     1       2.865   5.045  19.410  0.00  0.00    +0.000 C 
BRANCH  16  18
ATOM     18  O3* UNL     1       2.403   4.792  21.747  0.00  0.00    +0.000 OA
ATOM     19  H3* UNL     1       3.119   4.236  22.104  0.00  0.00    +0.000 HD
ENDBRANCH  16  18
BRANCH  17  20
ATOM     20  O2* UNL     1       3.127   6.393  19.802  0.00  0.00    +0.000 OA
ATOM     21  H2* UNL     1       3.933   6.371  20.361  0.00  0.00    +0.000 HD
ENDBRANCH  17  20
BRANCH  15  22
ATOM     22  C5* UNL     1       1.503   2.075  19.301  0.00  0.00    +0.000 C 
BRANCH  22  23
ATOM     23  O5* UNL     1       0.170   2.572  19.393  0.00  0.00    +0.000 OA
ATOM     24  H5* UNL     1      -0.418   1.850  19.097  0.00  0.00    +0.000 HD
ENDBRANCH  22  23
ENDBRANCH  15  22
ENDBRANCH   8  13
BRANCH   1  25
ATOM     25  C   UNL     1       8.178   7.701  18.389  0.00  0.00    +0.000 C 
BRANCH  25  26
ATOM     26  C   UNL     1       7.837   9.063  17.801  0.00  0.00    +0.000 C 
BRANCH  26  27
ATOM     27  O   UNL     1       8.933   9.972  17.963  0.00  0.00    +0.000 OA
BRANCH  27  28
ATOM     28  C   UNL     1       9.226  10.152  19.351  0.00  0.00    +0.000 C 
BRANCH  28  30
ATOM     29  C   UNL     1      10.200  11.941  20.807  0.00  0.00    +0.000 C 
ATOM     30  C   UNL     1      10.368  11.144  19.523  0.00  0.00    +0.000 C 
ENDBRANCH  28  30
ENDBRANCH  27  28
ENDBRANCH  26  27
ENDBRANCH  25  26
ENDBRANCH   1  25
TORSDOF 10
ENDMDL
MODEL 2
REMARK VINA RESULT:      -7.4      3.124      5.787
REMARK  Name = 
REMARK  11 active torsions:
REMARK  status: ('A' for Active; 'I' for Inactive)
REMARK    1  A    between atoms: C_1  and  C_2
REMARK    2  A    between atoms: C_2  and  C_3
REMARK    3  A    between atoms: C_3  and  O_4
REMARK    4  A    between atoms: O_4  and  C_5
REMARK    5  A    between atoms: C_5  and  C_6
REMARK    6  A    between atoms: C_6  and  C_7
REMARK    7  A    between atoms: N_14  and  C1*_15
REMARK    8  A    between atoms: C4*_17  and  C5*_18
REMARK    9  A    between atoms: C5*_18  and  O5*_19
REMARK   10  A    between atoms: C3*_20  and  O3*_21
REMARK   11  A    between atoms: C2*_22  and  O2*_23
REMARK                            x       y       z     vdW  Elec       q    Type
REMARK                         _______ _______ _______ _____ _____    ______ ____
ROOT
ATOM      1  C   UNL     1       6.639   5.240  15.634  0.00  0.00    +0.000 A 
ATOM      2  N   UNL     1       7.526   6.018  16.306  0.00  0.00    +0.000 NA
ATOM      3  C   UNL     1       7.294   6.322  17.601  0.00  0.00    +0.000 A 
ATOM      4  N   UNL     1       8.238   7.066  18.295  0.00  0.00    +0.000 N 
ATOM      5  C   UNL     1       6.115   5.857  18.203  0.00  0.00    +0.000 A 
ATOM      6  N   UNL     1       5.578   6.020  19.461  0.00  0.00    +0.000 NA
ATOM      7  C   UNL     1       4.474   5.303  19.455  0.00  0.00    +0.000 A 
ATOM      8  N   UNL     1       4.275   4.686  18.243  0.00  0.00    +0.000 N 
ATOM      9  C   UNL     1       5.297   5.062  17.416  0.00  0.00    +0.000 A 
ATOM     10  N   UNL     1       5.493   4.721  16.132  0.00  0.00    +0.000 NA
ATOM     11  H   UNL     1       8.862   7.590  17.700  0.00  0.00    +0.000 HD
ATOM     12  H   UNL     1       7.897   7.492  19.147  0.00  0.00    +0.000 HD
ENDROOT
BRANCH   8  13
ATOM     13  C1* UNL     1       3.193   3.777  17.936  0.00  0.00    +0.000 C 
ATOM     14  O4* UNL     1       1.936   4.426  18.227  0.00  0.00    +0.000 OA
ATOM     15  C4* UNL     1       1.065   3.481  18.897  0.00  0.00    +0.000 C 
ATOM     16  C3* UNL     1       1.753   2.117  18.815  0.00  0.00    +0.000 C 
ATOM     17  C2* UNL     1       3.231   2.464  18.713  0.00  0.00    +0.000 C 
BRANCH  16  18
ATOM     18  O3* UNL     1       1.382   1.405  17.617  0.00  0.00    +0.000 OA
ATOM     19  H3* UNL     1       0.775   1.957  17.091  0.00  0.00    +0.000 HD
ENDBRANCH  16  18
BRANCH  17  20
ATOM     20  O2* UNL     1       3.971   1.454  18.026  0.00  0.00    +0.000 OA
ATOM     21  H2* UNL     1       3.367   0.689  17.918  0.00  0.00    +0.000 HD
ENDBRANCH  17  20
BRANCH  15  22
ATOM     22  C5* UNL     1       0.810   3.946  20.335  0.00  0.00    +0.000 C 
BRANCH  22  23
ATOM     23  O5* UNL     1       0.826   2.838  21.232  0.00  0.00    +0.000 OA
ATOM     24  H5* UNL     1       0.324   3.113  22.024  0.00  0.00    +0.000 HD
ENDBRANCH  22  23
ENDBRANCH  15  22
ENDBRANCH   8  13
BRANCH   1  25
ATOM     25  C   UNL     1       6.978   4.906  14.204  0.00  0.00    +0.000 C 
BRANCH  25  26
ATOM     26  C   UNL     1       5.966   3.930  13.620  0.00  0.00    +0.000 C 
BRANCH  26  27
ATOM     27  O   UNL     1       6.332   3.560  12.284  0.00  0.00    +0.000 OA
BRANCH  27  28
ATOM     28  C   UNL     1       5.355   2.676  11.730  0.00  0.00    +0.000 C 
BRANCH  28  30
ATOM     29  C   UNL     1       3.537   3.663  10.318  0.00  0.00    +0.000 C 
ATOM     30  C   UNL     1       3.984   3.337  11.734  0.00  0.00    +0.000 C 
ENDBRANCH  28  30
ENDBRANCH  27  28
ENDBRANCH  26  27
ENDBRANCH  25  26
ENDBRANCH   1  25
TORSDOF 10
ENDMDL
MODEL 3
REMARK VINA RESULT:      -7.3      3.391      5.780
REMARK  Name = 
REMARK  11 active torsions:
REMARK  status: ('A' for Active; 'I' for Inactive)
REMARK    1  A    between atoms: C_1  and  C_2
REMARK    2  A    between atoms: C_2  and  C_3
REMARK    3  A    between atoms: C_3  and  O_4
REMARK    4  A    between atoms: O_4  and  C_5
REMARK    5  A    between atoms: C_5  and  C_6
REMARK    6  A    between atoms: C_6  and  C_7
REMARK    7  A    between atoms: N_14  and  C1*_15
REMARK    8  A    between atoms: C4*_17  and  C5*_18
REMARK    9  A    between atoms: C5*_18  and  O5*_19
REMARK   10  A    between atoms: C3*_20  and  O3*_21
REMARK   11  A    between atoms: C2*_22  and  O2*_23
REMARK                            x       y       z     vdW  Elec       q    Type
REMARK                         _______ _______ _______ _____ _____    ______ ____
ROOT
ATOM      1  C   UNL     1       5.742   4.229  15.798  0.00  0.00    +0.000 A 
ATOM      2  N   UNL     1       6.831   4.915  16.230  0.00  0.00    +0.000 NA
ATOM      3  C   UNL     1       6.828   5.458  17.466  0.00  0.00    +0.000 A 
ATOM      4  N   UNL     1       7.970   6.103  17.919  0.00  0.00    +0.000 N 
ATOM      5  C   UNL     1       5.675   5.332  18.256  0.00  0.00    +0.000 A 
ATOM      6  N   UNL     1       5.343   5.791  19.511  0.00  0.00    +0.000 NA
ATOM      7  C   UNL     1       4.140   5.311  19.743  0.00  0.00    +0.000 A 
ATOM      8  N   UNL     1       3.679   4.562  18.686  0.00  0.00    +0.000 N 
ATOM      9  C   UNL     1       4.634   4.598  17.708  0.00  0.00    +0.000 A 
ATOM     10  N   UNL     1       4.598   4.028  16.492  0.00  0.00    +0.000 NA
ATOM     11  H   UNL     1       8.593   6.396  17.181  0.00  0.00    +0.000 HD
ATOM     12  H   UNL     1       7.823   6.716  18.711  0.00  0.00    +0.000 HD
ENDROOT
BRANCH   8  13
ATOM     13  C1* UNL     1       2.424   3.844  18.655  0.00  0.00    +0.000 C 
ATOM     14  O4* UNL     1       1.596   4.296  19.749  0.00  0.00    +0.000 OA
ATOM     15  C4* UNL     1       0.967   3.146  20.367  0.00  0.00    +0.000 C 
ATOM     16  C3* UNL     1       1.260   1.948  19.461  0.00  0.00    +0.000 C 
ATOM     17  C2* UNL     1       2.560   2.329  18.768  0.00  0.00    +0.000 C 
BRANCH  16  18
ATOM     18  O3* UNL     1       0.248   1.789  18.446  0.00  0.00    +0.000 OA
ATOM     19  H3* UNL     1      -0.135   2.660  18.236  0.00  0.00    +0.000 HD
ENDBRANCH  16  18
BRANCH  17  20
ATOM     20  O2* UNL     1       2.687   1.704  17.490  0.00  0.00    +0.000 OA
ATOM     21  H2* UNL     1       1.779   1.476  17.198  0.00  0.00    +0.000 HD
ENDBRANCH  17  20
BRANCH  15  22
ATOM     22  C5* UNL     1       1.502   2.971  21.793  0.00  0.00    +0.000 C 
BRANCH  22  23
ATOM     23  O5* UNL     1       2.846   2.498  21.772  0.00  0.00    +0.000 OA
ATOM     24  H5* UNL     1       3.260   2.798  22.605  0.00  0.00    +0.000 HD
ENDBRANCH  22  23
ENDBRANCH  15  22
ENDBRANCH   8  13
BRANCH   1  25
ATOM     25  C   UNL     1       5.827   3.616  14.424  0.00  0.00    +0.000 C 
BRANCH  25  26
ATOM     26  C   UNL     1       6.777   4.408  13.535  0.00  0.00    +0.000 C 
BRANCH  26  27
ATOM     27  O   UNL     1       6.809   3.856  12.213  0.00  0.00    +0.000 OA
BRANCH  27  28
ATOM     28  C   UNL     1       5.559   3.233  11.906  0.00  0.00    +0.000 C 
BRANCH  28  30
ATOM     29  C   UNL     1       7.225   1.614  10.970  0.00  0.00    +0.000 C 
ATOM     30  C   UNL     1       5.786   1.808  11.421  0.00  0.00    +0.000 C 
ENDBRANCH  28  30
ENDBRANCH  27  28
ENDBRANCH  26  27
ENDBRANCH  25  26
ENDBRANCH   1  25
TORSDOF 10
ENDMDL
MODEL 4
REMARK VINA RESULT:      -7.2      3.305      5.874
REMARK  Name = 
REMARK  11 active torsions:
REMARK  status: ('A' for Active; 'I' for Inactive)
REMARK    1  A    between atoms: C_1  and  C_2
REMARK    2  A    between atoms: C_2  and  C_3
REMARK    3  A    between atoms: C_3  and  O_4
REMARK    4  A    between atoms: O_4  and  C_5
REMARK    5  A    between atoms: C_5  and  C_6
REMARK    6  A    between atoms: C_6  and  C_7
REMARK    7  A    between atoms: N_14  and  C1*_15
REMARK    8  A    between atoms: C4*_17  and  C5*_18
REMARK    9  A    between atoms: C5*_18  and  O5*_19
REMARK   10  A    between atoms: C3*_20  and  O3*_21
REMARK   11  A    between atoms: C2*_22  and  O2*_23
REMARK                            x       y       z     vdW  Elec       q    Type
REMARK                         _______ _______ _______ _____ _____    ______ ____
ROOT
ATOM      1  C   UNL     1       6.886   5.119  15.223  0.00  0.00    +0.000 A 
ATOM      2  N   UNL     1       7.456   6.277  15.643  0.00  0.00    +0.000 NA
ATOM      3  C   UNL     1       7.255   6.695  16.912  0.00  0.00    +0.000 A 
ATOM      4  N   UNL     1       7.894   7.847  17.347  0.00  0.00    +0.000 N 
ATOM      5  C   UNL     1       6.424   5.936  17.749  0.00  0.00    +0.000 A 
ATOM      6  N   UNL     1       5.996   6.104  19.047  0.00  0.00    +0.000 NA
ATOM      7  C   UNL     1       5.271   5.037  19.307  0.00  0.00    +0.000 A 
ATOM      8  N   UNL     1       5.210   4.187  18.228  0.00  0.00    +0.000 N 
ATOM      9  C   UNL     1       5.911   4.767  17.207  0.00  0.00    +0.000 A 
ATOM     10  N   UNL     1       6.094   4.305  15.960  0.00  0.00    +0.000 NA
ATOM     11  H   UNL     1       8.197   8.454  16.600  0.00  0.00    +0.000 HD
ATOM     12  H   UNL     1       7.501   8.257  18.184  0.00  0.00    +0.000 HD
ENDROOT
BRANCH   8  13
ATOM     13  C1* UNL     1       4.550   2.901  18.214  0.00  0.00    +0.000 C 
ATOM     14  O4* UNL     1       3.381   2.981  17.370  0.00  0.00    +0.000 OA
ATOM     15  C4* UNL     1       2.283   2.296  18.023  0.00  0.00    +0.000 C 
ATOM     16  C3* UNL     1       2.877   1.574  19.234  0.00  0.00    +0.000 C 
ATOM     17  C2* UNL     1       4.101   2.405  19.586  0.00  0.00    +0.000 C 
BRANCH  16  18
ATOM     18  O3* UNL     1       3.326   0.247  18.894  0.00  0.00    +0.000 OA
ATOM     19  H3* UNL     1       2.742  -0.408  19.318  0.00  0.00    +0.000 HD
ENDBRANCH  16  18
BRANCH  17  20
ATOM     20  O2* UNL     1       5.110   1.626  20.231  0.00  0.00    +0.000 OA
ATOM     21  H2* UNL     1       5.947   1.797  19.749  0.00  0.00    +0.000 HD
ENDBRANCH  17  20
BRANCH  15  22
ATOM     22  C5* UNL     1       1.194   3.309  18.396  0.00  0.00    +0.000 C 
BRANCH  22  23
ATOM     23  O5* UNL     1       1.108   4.339  17.415  0.00  0.00    +0.000 OA
ATOM     24  H5* UNL     1       0.650   3.951  16.644  0.00  0.00    +0.000 HD
ENDBRANCH  22  23
ENDBRANCH  15  22
ENDBRANCH   8  13
BRANCH   1  25
ATOM     25  C   UNL     1       7.182   4.691  13.809  0.00  0.00    +0.000 C 
BRANCH  25  26
ATOM     26  C   UNL     1       6.163   3.667  13.327  0.00  0.00    +0.000 C 
BRANCH  26  27
ATOM     27  O   UNL     1       6.406   3.317  11.959  0.00  0.00    +0.000 OA
BRANCH  27  28
ATOM     28  C   UNL     1       5.320   2.541  11.446  0.00  0.00    +0.000 C 
BRANCH  28  30
ATOM     29  C   UNL     1       3.444   3.628  10.190  0.00  0.00    +0.000 C 
ATOM     30  C   UNL     1       4.016   3.318  11.565  0.00  0.00    +0.000 C 
ENDBRANCH  28  30
ENDBRANCH  27  28
ENDBRANCH  26  27
ENDBRANCH  25  26
ENDBRANCH   1  25
TORSDOF 10
ENDMDL
MODEL 5
REMARK VINA RESULT:      -7.2      3.244      5.959
REMARK  Name = 
REMARK  11 active torsions:
REMARK  status: ('A' for Active; 'I' for Inactive)
REMARK    1  A    between atoms: C_1  and  C_2
REMARK    2  A    between atoms: C_2  and  C_3
REMARK    3  A    between atoms: C_3  and  O_4
REMARK    4  A    between atoms: O_4  and  C_5
REMARK    5  A    between atoms: C_5  and  C_6
REMARK    6  A    between atoms: C_6  and  C_7
REMARK    7  A    between atoms: N_14  and  C1*_15
REMARK    8  A    between atoms: C4*_17  and  C5*_18
REMARK    9  A    between atoms: C5*_18  and  O5*_19
REMARK   10  A    between atoms: C3*_20  and  O3*_21
REMARK   11  A    between atoms: C2*_22  and  O2*_23
REMARK                            x       y       z     vdW  Elec       q    Type
REMARK                         _______ _______ _______ _____ _____    ______ ____
ROOT
ATOM      1  C   UNL     1       6.184   4.621  15.178  0.00  0.00    +0.000 A 
ATOM      2  N   UNL     1       7.078   5.598  15.475  0.00  0.00    +0.000 NA
ATOM      3  C   UNL     1       6.926   6.316  16.609  0.00  0.00    +0.000 A 
ATOM      4  N   UNL     1       7.881   7.270  16.933  0.00  0.00    +0.000 N 
ATOM      5  C   UNL     1       5.818   6.056  17.429  0.00  0.00    +0.000 A 
ATOM      6  N   UNL     1       5.365   6.621  18.600  0.00  0.00    +0.000 NA
ATOM      7  C   UNL     1       4.300   5.921  18.927  0.00  0.00    +0.000 A 
ATOM      8  N   UNL     1       4.043   4.927  18.012  0.00  0.00    +0.000 N 
ATOM      9  C   UNL     1       4.984   5.025  17.024  0.00  0.00    +0.000 A 
ATOM     10  N   UNL     1       5.103   4.276  15.915  0.00  0.00    +0.000 NA
ATOM     11  H   UNL     1       8.435   7.576  16.147  0.00  0.00    +0.000 HD
ATOM     12  H   UNL     1       7.582   7.951  17.619  0.00  0.00    +0.000 HD
ENDROOT
BRANCH   8  13
ATOM     13  C1* UNL     1       2.987   3.946  18.118  0.00  0.00    +0.000 C 
ATOM     14  O4* UNL     1       1.929   4.479  18.944  0.00  0.00    +0.000 OA
ATOM     15  C4* UNL     1       1.473   3.444  19.849  0.00  0.00    +0.000 C 
ATOM     16  C3* UNL     1       2.144   2.144  19.399  0.00  0.00    +0.000 C 
ATOM     17  C2* UNL     1       3.422   2.613  18.722  0.00  0.00    +0.000 C 
BRANCH  16  18
ATOM     18  O3* UNL     1       1.351   1.448  18.417  0.00  0.00    +0.000 OA
ATOM     19  H3* UNL     1       0.484   1.885  18.336  0.00  0.00    +0.000 HD
ENDBRANCH  16  18
BRANCH  17  20
ATOM     20  O2* UNL     1       3.868   1.692  17.725  0.00  0.00    +0.000 OA
ATOM     21  H2* UNL     1       3.129   1.063  17.575  0.00  0.00    +0.000 HD
ENDBRANCH  17  20
BRANCH  15  22
ATOM     22  C5* UNL     1       1.813   3.834  21.292  0.00  0.00    +0.000 C 
BRANCH  22  23
ATOM     23  O5* UNL     1       2.283   5.178  21.352  0.00  0.00    +0.000 OA
ATOM     24  H5* UNL     1       3.069   5.173  21.931  0.00  0.00    +0.000 HD
ENDBRANCH  22  23
ENDBRANCH  15  22
ENDBRANCH   8  13
BRANCH   1  25
ATOM     25  C   UNL     1       6.435   3.833  13.918  0.00  0.00    +0.000 C 
BRANCH  25  26
ATOM     26  C   UNL     1       5.149   3.664  13.119  0.00  0.00    +0.000 C 
BRANCH  26  27
ATOM     27  O   UNL     1       5.410   2.999  11.877  0.00  0.00    +0.000 OA
BRANCH  27  28
ATOM     28  C   UNL     1       6.814   2.983  11.610  0.00  0.00    +0.000 C 
BRANCH  28  30
ATOM     29  C   UNL     1       6.091   0.640  11.099  0.00  0.00    +0.000 C 
ATOM     30  C   UNL     1       7.215   1.657  10.979  0.00  0.00    +0.000 C 
ENDBRANCH  28  30
ENDBRANCH  27  28
ENDBRANCH  26  27
ENDBRANCH  25  26
ENDBRANCH   1  25
TORSDOF 10
ENDMDL
MODEL 6
REMARK VINA RESULT:      -7.2      4.081      6.747
REMARK  Name = 
REMARK  11 active torsions:
REMARK  status: ('A' for Active; 'I' for Inactive)
REMARK    1  A    between atoms: C_1  and  C_2
REMARK    2  A    between atoms: C_2  and  C_3
REMARK    3  A    between atoms: C_3  and  O_4
REMARK    4  A    between atoms: O_4  and  C_5
REMARK    5  A    between atoms: C_5  and  C_6
REMARK    6  A    between atoms: C_6  and  C_7
REMARK    7  A    between atoms: N_14  and  C1*_15
REMARK    8  A    between atoms: C4*_17  and  C5*_18
REMARK    9  A    between atoms: C5*_18  and  O5*_19
REMARK   10  A    between atoms: C3*_20  and  O3*_21
REMARK   11  A    between atoms: C2*_22  and  O2*_23
REMARK                            x       y       z     vdW  Elec       q    Type
REMARK                         _______ _______ _______ _____ _____    ______ ____
ROOT
ATOM      1  C   UNL     1       1.993   6.300  20.270  0.00  0.00    +0.000 A 
ATOM      2  N   UNL     1       1.314   5.275  20.845  0.00  0.00    +0.000 NA
ATOM      3  C   UNL     1       1.633   4.003  20.524  0.00  0.00    +0.000 A 
ATOM      4  N   UNL     1       0.974   2.963  21.165  0.00  0.00    +0.000 N 
ATOM      5  C   UNL     1       2.635   3.779  19.567  0.00  0.00    +0.000 A 
ATOM      6  N   UNL     1       3.156   2.635  19.006  0.00  0.00    +0.000 NA
ATOM      7  C   UNL     1       4.112   3.053  18.204  0.00  0.00    +0.000 A 
ATOM      8  N   UNL     1       4.229   4.423  18.223  0.00  0.00    +0.000 N 
ATOM      9  C   UNL     1       3.262   4.907  19.062  0.00  0.00    +0.000 A 
ATOM     10  N   UNL     1       2.990   6.188  19.362  0.00  0.00    +0.000 NA
ATOM     11  H   UNL     1       0.094   3.231  21.579  0.00  0.00    +0.000 HD
ATOM     12  H   UNL     1       1.046   2.067  20.701  0.00  0.00    +0.000 HD
ENDROOT
BRANCH   8  13
ATOM     13  C1* UNL     1       5.226   5.187  17.507  0.00  0.00    +0.000 C 
ATOM     14  O4* UNL     1       4.707   5.533  16.204  0.00  0.00    +0.000 OA
ATOM     15  C4* UNL     1       5.750   5.335  15.217  0.00  0.00    +0.000 C 
ATOM     16  C3* UNL     1       7.040   5.060  15.993  0.00  0.00    +0.000 C 
ATOM     17  C2* UNL     1       6.552   4.460  17.303  0.00  0.00    +0.000 C 
BRANCH  16  18
ATOM     18  O3* UNL     1       7.746   6.279  16.300  0.00  0.00    +0.000 OA
ATOM     19  H3* UNL     1       7.713   6.872  15.527  0.00  0.00    +0.000 HD
ENDBRANCH  16  18
BRANCH  17  20
ATOM     20  O2* UNL     1       7.466   4.701  18.375  0.00  0.00    +0.000 OA
ATOM     21  H2* UNL     1       6.952   5.134  19.089  0.00  0.00    +0.000 HD
ENDBRANCH  17  20
BRANCH  15  22
ATOM     22  C5* UNL     1       5.356   4.193  14.273  0.00  0.00    +0.000 C 
BRANCH  22  23
ATOM     23  O5* UNL     1       6.515   3.586  13.707  0.00  0.00    +0.000 OA
ATOM     24  H5* UNL     1       6.639   2.736  14.171  0.00  0.00    +0.000 HD
ENDBRANCH  22  23
ENDBRANCH  15  22
ENDBRANCH   8  13
BRANCH   1  25
ATOM     25  C   UNL     1       1.613   7.693  20.702  0.00  0.00    +0.000 C 
BRANCH  25  26
ATOM     26  C   UNL     1       1.562   8.636  19.507  0.00  0.00    +0.000 C 
BRANCH  26  27
ATOM     27  O   UNL     1       0.779   9.797  19.813  0.00  0.00    +0.000 OA
BRANCH  27  28
ATOM     28  C   UNL     1      -0.252   9.466  20.748  0.00  0.00    +0.000 C 
BRANCH  28  30
ATOM     29  C   UNL     1      -0.488   9.897  23.204  0.00  0.00    +0.000 C 
ATOM     30  C   UNL     1      -0.343  10.533  21.829  0.00  0.00    +0.000 C 
ENDBRANCH  28  30
ENDBRANCH  27  28
ENDBRANCH  26  27
ENDBRANCH  25  26
ENDBRANCH   1  25
TORSDOF 10
ENDMDL
MODEL 7
REMARK VINA RESULT:      -7.2      3.277      6.070
REMARK  Name = 
REMARK  11 active torsions:
REMARK  status: ('A' for Active; 'I' for Inactive)
REMARK    1  A    between atoms: C_1  and  C_2
REMARK    2  A    between atoms: C_2  and  C_3
REMARK    3  A    between atoms: C_3  and  O_4
REMARK    4  A    between atoms: O_4  and  C_5
REMARK    5  A    between atoms: C_5  and  C_6
REMARK    6  A    between atoms: C_6  and  C_7
REMARK    7  A    between atoms: N_14  and  C1*_15
REMARK    8  A    between atoms: C4*_17  and  C5*_18
REMARK    9  A    between atoms: C5*_18  and  O5*_19
REMARK   10  A    between atoms: C3*_20  and  O3*_21
REMARK   11  A    between atoms: C2*_22  and  O2*_23
REMARK                            x       y       z     vdW  Elec       q    Type
REMARK                         _______ _______ _______ _____ _____    ______ ____
ROOT
ATOM      1  C   UNL     1       6.319   4.746  14.973  0.00  0.00    +0.000 A 
ATOM      2  N   UNL     1       7.192   5.716  15.345  0.00  0.00    +0.000 NA
ATOM      3  C   UNL     1       6.979   6.399  16.490  0.00  0.00    +0.000 A 
ATOM      4  N   UNL     1       7.912   7.345  16.891  0.00  0.00    +0.000 N 
ATOM      5  C   UNL     1       5.832   6.110  17.244  0.00  0.00    +0.000 A 
ATOM      6  N   UNL     1       5.317   6.638  18.407  0.00  0.00    +0.000 NA
ATOM      7  C   UNL     1       4.240   5.925  18.657  0.00  0.00    +0.000 A 
ATOM      8  N   UNL     1       4.035   4.960  17.701  0.00  0.00    +0.000 N 
ATOM      9  C   UNL     1       5.024   5.090  16.765  0.00  0.00    +0.000 A 
ATOM     10  N   UNL     1       5.203   4.375  15.643  0.00  0.00    +0.000 NA
ATOM     11  H   UNL     1       8.504   7.677  16.144  0.00  0.00    +0.000 HD
ATOM     12  H   UNL     1       7.576   8.004  17.581  0.00  0.00    +0.000 HD
ENDROOT
BRANCH   8  13
ATOM     13  C1* UNL     1       2.979   3.972  17.723  0.00  0.00    +0.000 C 
ATOM     14  O4* UNL     1       1.787   4.569  18.279  0.00  0.00    +0.000 OA
ATOM     15  C4* UNL     1       1.176   3.628  19.196  0.00  0.00    +0.000 C 
ATOM     16  C3* UNL     1       1.920   2.303  19.024  0.00  0.00    +0.000 C 
ATOM     17  C2* UNL     1       3.300   2.723  18.540  0.00  0.00    +0.000 C 
BRANCH  16  18
ATOM     18  O3* UNL     1       1.321   1.486  17.997  0.00  0.00    +0.000 OA
ATOM     19  H3* UNL     1       1.902   1.477  17.215  0.00  0.00    +0.000 HD
ENDBRANCH  16  18
BRANCH  17  20
ATOM     20  O2* UNL     1       3.921   1.709  17.750  0.00  0.00    +0.000 OA
ATOM     21  H2* UNL     1       4.889   1.805  17.882  0.00  0.00    +0.000 HD
ENDBRANCH  17  20
BRANCH  15  22
ATOM     22  C5* UNL     1       1.246   4.182  20.624  0.00  0.00    +0.000 C 
BRANCH  22  23
ATOM     23  O5* UNL     1       1.473   5.589  20.607  0.00  0.00    +0.000 OA
ATOM     24  H5* UNL     1       2.234   5.756  21.197  0.00  0.00    +0.000 HD
ENDBRANCH  22  23
ENDBRANCH  15  22
ENDBRANCH   8  13
BRANCH   1  25
ATOM     25  C   UNL     1       6.637   3.997  13.704  0.00  0.00    +0.000 C 
BRANCH  25  26
ATOM     26  C   UNL     1       5.366   3.677  12.930  0.00  0.00    +0.000 C 
BRANCH  26  27
ATOM     27  O   UNL     1       5.547   2.507  12.121  0.00  0.00    +0.000 OA
BRANCH  27  28
ATOM     28  C   UNL     1       4.657   2.536  11.003  0.00  0.00    +0.000 C 
BRANCH  28  30
ATOM     29  C   UNL     1       3.045   3.997   9.762  0.00  0.00    +0.000 C 
ATOM     30  C   UNL     1       3.739   3.747  11.092  0.00  0.00    +0.000 C 
ENDBRANCH  28  30
ENDBRANCH  27  28
ENDBRANCH  26  27
ENDBRANCH  25  26
ENDBRANCH   1  25
TORSDOF 10
ENDMDL
MODEL 8
REMARK VINA RESULT:      -7.0      3.457      5.917
REMARK  Name = 
REMARK  11 active torsions:
REMARK  status: ('A' for Active; 'I' for Inactive)
REMARK    1  A    between atoms: C_1  and  C_2
REMARK    2  A    between atoms: C_2  and  C_3
REMARK    3  A    between atoms: C_3  and  O_4
REMARK    4  A    between atoms: O_4  and  C_5
REMARK    5  A    between atoms: C_5  and  C_6
REMARK    6  A    between atoms: C_6  and  C_7
REMARK    7  A    between atoms: N_14  and  C1*_15
REMARK    8  A    between atoms: C4*_17  and  C5*_18
REMARK    9  A    between atoms: C5*_18  and  O5*_19
REMARK   10  A    between atoms: C3*_20  and  O3*_21
REMARK   11  A    between atoms: C2*_22  and  O2*_23
REMARK                            x       y       z     vdW  Elec       q    Type
REMARK                         _______ _______ _______ _____ _____    ______ ____
ROOT
ATOM      1  C   UNL     1       5.880   3.969  15.907  0.00  0.00    +0.000 A 
ATOM      2  N   UNL     1       6.952   4.665  16.365  0.00  0.00    +0.000 NA
ATOM      3  C   UNL     1       6.882   5.281  17.564  0.00  0.00    +0.000 A 
ATOM      4  N   UNL     1       8.005   5.937  18.048  0.00  0.00    +0.000 N 
ATOM      5  C   UNL     1       5.680   5.218  18.286  0.00  0.00    +0.000 A 
ATOM      6  N   UNL     1       5.280   5.757  19.488  0.00  0.00    +0.000 NA
ATOM      7  C   UNL     1       4.056   5.308  19.672  0.00  0.00    +0.000 A 
ATOM      8  N   UNL     1       3.649   4.503  18.635  0.00  0.00    +0.000 N 
ATOM      9  C   UNL     1       4.663   4.467  17.718  0.00  0.00    +0.000 A 
ATOM     10  N   UNL     1       4.692   3.825  16.539  0.00  0.00    +0.000 NA
ATOM     11  H   UNL     1       8.677   6.177  17.335  0.00  0.00    +0.000 HD
ATOM     12  H   UNL     1       7.820   6.598  18.792  0.00  0.00    +0.000 HD
ENDROOT
BRANCH   8  13
ATOM     13  C1* UNL     1       2.386   3.802  18.569  0.00  0.00    +0.000 C 
ATOM     14  O4* UNL     1       1.560   4.213  19.680  0.00  0.00    +0.000 OA
ATOM     15  C4* UNL     1       0.916   3.043  20.243  0.00  0.00    +0.000 C 
ATOM     16  C3* UNL     1       1.198   1.885  19.284  0.00  0.00    +0.000 C 
ATOM     17  C2* UNL     1       2.504   2.281  18.613  0.00  0.00    +0.000 C 
BRANCH  16  18
ATOM     18  O3* UNL     1       0.188   1.783  18.261  0.00  0.00    +0.000 OA
ATOM     19  H3* UNL     1       0.502   2.230  17.454  0.00  0.00    +0.000 HD
ENDBRANCH  16  18
BRANCH  17  20
ATOM     20  O2* UNL     1       2.628   1.715  17.307  0.00  0.00    +0.000 OA
ATOM     21  H2* UNL     1       3.512   1.978  16.971  0.00  0.00    +0.000 HD
ENDBRANCH  17  20
BRANCH  15  22
ATOM     22  C5* UNL     1       1.444   2.797  21.661  0.00  0.00    +0.000 C 
BRANCH  22  23
ATOM     23  O5* UNL     1       2.411   3.783  22.015  0.00  0.00    +0.000 OA
ATOM     24  H5* UNL     1       2.332   4.500  21.357  0.00  0.00    +0.000 HD
ENDBRANCH  22  23
ENDBRANCH  15  22
ENDBRANCH   8  13
BRANCH   1  25
ATOM     25  C   UNL     1       6.039   3.273  14.580  0.00  0.00    +0.000 C 
BRANCH  25  26
ATOM     26  C   UNL     1       5.640   4.193  13.434  0.00  0.00    +0.000 C 
BRANCH  26  27
ATOM     27  O   UNL     1       6.151   3.700  12.189  0.00  0.00    +0.000 OA
BRANCH  27  28
ATOM     28  C   UNL     1       5.234   2.768  11.612  0.00  0.00    +0.000 C 
BRANCH  28  30
ATOM     29  C   UNL     1       3.457   3.701  10.113  0.00  0.00    +0.000 C 
ATOM     30  C   UNL     1       3.838   3.373  11.548  0.00  0.00    +0.000 C 
ENDBRANCH  28  30
ENDBRANCH  27  28
ENDBRANCH  26  27
ENDBRANCH  25  26
ENDBRANCH   1  25
TORSDOF 10
ENDMDL
MODEL 9
REMARK VINA RESULT:      -7.0      4.103      6.849
REMARK  Name = 
REMARK  11 active torsions:
REMARK  status: ('A' for Active; 'I' for Inactive)
REMARK    1  A    between atoms: C_1  and  C_2
REMARK    2  A    between atoms: C_2  and  C_3
REMARK    3  A    between atoms: C_3  and  O_4
REMARK    4  A    between atoms: O_4  and  C_5
REMARK    5  A    between atoms: C_5  and  C_6
REMARK    6  A    between atoms: C_6  and  C_7
REMARK    7  A    between atoms: N_14  and  C1*_15
REMARK    8  A    between atoms: C4*_17  and  C5*_18
REMARK    9  A    between atoms: C5*_18  and  O5*_19
REMARK   10  A    between atoms: C3*_20  and  O3*_21
REMARK   11  A    between atoms: C2*_22  and  O2*_23
REMARK                            x       y       z     vdW  Elec       q    Type
REMARK                         _______ _______ _______ _____ _____    ______ ____
ROOT
ATOM      1  C   UNL     1       1.998   6.327  20.202  0.00  0.00    +0.000 A 
ATOM      2  N   UNL     1       1.282   5.312  20.751  0.00  0.00    +0.000 NA
ATOM      3  C   UNL     1       1.554   4.038  20.394  0.00  0.00    +0.000 A 
ATOM      4  N   UNL     1       0.858   3.007  21.009  0.00  0.00    +0.000 N 
ATOM      5  C   UNL     1       2.545   3.804  19.429  0.00  0.00    +0.000 A 
ATOM      6  N   UNL     1       3.021   2.658  18.834  0.00  0.00    +0.000 NA
ATOM      7  C   UNL     1       3.991   3.063  18.042  0.00  0.00    +0.000 A 
ATOM      8  N   UNL     1       4.158   4.426  18.098  0.00  0.00    +0.000 N 
ATOM      9  C   UNL     1       3.212   4.922  18.953  0.00  0.00    +0.000 A 
ATOM     10  N   UNL     1       2.988   6.203  19.288  0.00  0.00    +0.000 NA
ATOM     11  H   UNL     1      -0.011   3.296  21.433  0.00  0.00    +0.000 HD
ATOM     12  H   UNL     1       0.896   2.122  20.520  0.00  0.00    +0.000 HD
ENDROOT
BRANCH   8  13
ATOM     13  C1* UNL     1       5.181   5.172  17.400  0.00  0.00    +0.000 C 
ATOM     14  O4* UNL     1       4.720   5.466  16.063  0.00  0.00    +0.000 OA
ATOM     15  C4* UNL     1       5.807   5.242  15.132  0.00  0.00    +0.000 C 
ATOM     16  C3* UNL     1       7.062   5.006  15.974  0.00  0.00    +0.000 C 
ATOM     17  C2* UNL     1       6.521   4.450  17.282  0.00  0.00    +0.000 C 
BRANCH  16  18
ATOM     18  O3* UNL     1       7.746   6.241  16.268  0.00  0.00    +0.000 OA
ATOM     19  H3* UNL     1       8.615   6.040  16.662  0.00  0.00    +0.000 HD
ENDBRANCH  16  18
BRANCH  17  20
ATOM     20  O2* UNL     1       7.384   4.737  18.384  0.00  0.00    +0.000 OA
ATOM     21  H2* UNL     1       8.232   5.048  18.001  0.00  0.00    +0.000 HD
ENDBRANCH  17  20
BRANCH  15  22
ATOM     22  C5* UNL     1       5.464   4.064  14.213  0.00  0.00    +0.000 C 
BRANCH  22  23
ATOM     23  O5* UNL     1       6.613   3.645  13.481  0.00  0.00    +0.000 OA
ATOM     24  H5* UNL     1       7.298   4.326  13.625  0.00  0.00    +0.000 HD
ENDBRANCH  22  23
ENDBRANCH  15  22
ENDBRANCH   8  13
BRANCH   1  25
ATOM     25  C   UNL     1       1.670   7.720  20.673  0.00  0.00    +0.000 C 
BRANCH  25  26
ATOM     26  C   UNL     1       1.492   8.664  19.491  0.00  0.00    +0.000 C 
BRANCH  26  27
ATOM     27  O   UNL     1       1.006   9.939  19.932  0.00  0.00    +0.000 OA
BRANCH  27  28
ATOM     28  C   UNL     1      -0.402   9.876  20.173  0.00  0.00    +0.000 C 
BRANCH  28  30
ATOM     29  C   UNL     1      -1.398  10.232  17.902  0.00  0.00    +0.000 C 
ATOM     30  C   UNL     1      -1.135  10.854  19.265  0.00  0.00    +0.000 C 
ENDBRANCH  28  30
ENDBRANCH  27  28
ENDBRANCH  26  27
ENDBRANCH  25  26
ENDBRANCH   1  25
TORSDOF 10
ENDMDL
