MODEL 1
REMARK VINA RESULT:      -7.3      0.000      0.000
REMARK  Name = 
REMARK  1 active torsions:
REMARK  status: ('A' for Active; 'I' for Inactive)
REMARK    1  A    between atoms: C_4  and  C_5
REMARK                            x       y       z     vdW  Elec       q    Type
REMARK                         _______ _______ _______ _____ _____    ______ ____
ROOT
ATOM      1  C   UNL     1       4.423   4.511  18.828  0.00  0.00    +0.000 A 
ATOM      2  N   UNL     1       5.564   4.399  19.487  0.00  0.00    +0.000 NA
ATOM      3  C   UNL     1       6.355   5.372  18.934  0.00  0.00    +0.000 A 
ATOM      4  C   UNL     1       7.653   5.790  19.250  0.00  0.00    +0.000 A 
ATOM      5  C   UNL     1       8.195   6.864  18.528  0.00  0.00    +0.000 A 
ATOM      6  C   UNL     1       7.470   7.489  17.504  0.00  0.00    +0.000 A 
ATOM      7  C   UNL     1       6.177   7.069  17.164  0.00  0.00    +0.000 A 
ATOM      8  C   UNL     1       5.669   6.016  17.918  0.00  0.00    +0.000 A 
ATOM      9  O   UNL     1       4.429   5.456  17.831  0.00  0.00    +0.000 OA
ENDROOT
BRANCH   1  13
ATOM     10  C   UNL     1       0.606   2.728  19.541  0.00  0.00    +0.000 A 
ATOM     11  C   UNL     1       1.046   3.793  20.323  0.00  0.00    +0.000 A 
ATOM     12  C   UNL     1       2.311   4.343  20.104  0.00  0.00    +0.000 A 
ATOM     13  C   UNL     1       3.150   3.842  19.096  0.00  0.00    +0.000 A 
ATOM     14  C   UNL     1       2.703   2.753  18.333  0.00  0.00    +0.000 A 
ATOM     15  C   UNL     1       1.437   2.202  18.552  0.00  0.00    +0.000 A 
ENDBRANCH   1  13
TORSDOF 1
ENDMDL
MODEL 2
REMARK VINA RESULT:      -7.2      0.142      1.246
REMARK  Name = 
REMARK  1 active torsions:
REMARK  status: ('A' for Active; 'I' for Inactive)
REMARK    1  A    between atoms: C_4  and  C_5
REMARK                            x       y       z     vdW  Elec       q    Type
REMARK                         _______ _______ _______ _____ _____    ______ ____
ROOT
ATOM      1  C   UNL     1       4.339   4.626  18.817  0.00  0.00    +0.000 A 
ATOM      2  N   UNL     1       5.463   4.475  19.495  0.00  0.00    +0.000 NA
ATOM      3  C   UNL     1       6.301   5.410  18.947  0.00  0.00    +0.000 A 
ATOM      4  C   UNL     1       7.610   5.779  19.282  0.00  0.00    +0.000 A 
ATOM      5  C   UNL     1       8.206   6.824  18.559  0.00  0.00    +0.000 A 
ATOM      6  C   UNL     1       7.524   7.467  17.518  0.00  0.00    +0.000 A 
ATOM      7  C   UNL     1       6.220   7.096  17.160  0.00  0.00    +0.000 A 
ATOM      8  C   UNL     1       5.659   6.071  17.914  0.00  0.00    +0.000 A 
ATOM      9  O   UNL     1       4.399   5.561  17.811  0.00  0.00    +0.000 OA
ENDROOT
BRANCH   1  13
ATOM     10  C   UNL     1       0.631   2.649  19.591  0.00  0.00    +0.000 A 
ATOM     11  C   UNL     1       1.376   2.336  18.458  0.00  0.00    +0.000 A 
ATOM     12  C   UNL     1       2.568   3.015  18.196  0.00  0.00    +0.000 A 
ATOM     13  C   UNL     1       3.035   4.011  19.068  0.00  0.00    +0.000 A 
ATOM     14  C   UNL     1       2.262   4.333  20.193  0.00  0.00    +0.000 A 
ATOM     15  C   UNL     1       1.068   3.653  20.454  0.00  0.00    +0.000 A 
ENDBRANCH   1  13
TORSDOF 1
ENDMDL
MODEL 3
REMARK VINA RESULT:      -7.2      1.013      5.910
REMARK  Name = 
REMARK  1 active torsions:
REMARK  status: ('A' for Active; 'I' for Inactive)
REMARK    1  A    between atoms: C_4  and  C_5
REMARK                            x       y       z     vdW  Elec       q    Type
REMARK                         _______ _______ _______ _____ _____    ______ ____
ROOT
ATOM      1  C   UNL     1       4.633   4.701  18.655  0.00  0.00    +0.000 A 
ATOM      2  N   UNL     1       4.139   3.742  17.892  0.00  0.00    +0.000 NA
ATOM      3  C   UNL     1       2.958   3.414  18.505  0.00  0.00    +0.000 A 
ATOM      4  C   UNL     1       1.953   2.511  18.139  0.00  0.00    +0.000 A 
ATOM      5  C   UNL     1       0.815   2.423  18.956  0.00  0.00    +0.000 A 
ATOM      6  C   UNL     1       0.694   3.200  20.116  0.00  0.00    +0.000 A 
ATOM      7  C   UNL     1       1.700   4.095  20.504  0.00  0.00    +0.000 A 
ATOM      8  C   UNL     1       2.801   4.166  19.657  0.00  0.00    +0.000 A 
ATOM      9  O   UNL     1       3.884   4.987  19.772  0.00  0.00    +0.000 OA
ENDROOT
BRANCH   1  13
ATOM     10  C   UNL     1       7.923   7.347  18.000  0.00  0.00    +0.000 A 
ATOM     11  C   UNL     1       6.786   7.421  17.200  0.00  0.00    +0.000 A 
ATOM     12  C   UNL     1       5.732   6.527  17.400  0.00  0.00    +0.000 A 
ATOM     13  C   UNL     1       5.798   5.551  18.408  0.00  0.00    +0.000 A 
ATOM     14  C   UNL     1       6.960   5.472  19.188  0.00  0.00    +0.000 A 
ATOM     15  C   UNL     1       8.015   6.368  18.988  0.00  0.00    +0.000 A 
ENDBRANCH   1  13
TORSDOF 1
ENDMDL
MODEL 4
REMARK VINA RESULT:      -7.1      2.037      2.332
REMARK  Name = 
REMARK  1 active torsions:
REMARK  status: ('A' for Active; 'I' for Inactive)
REMARK    1  A    between atoms: C_4  and  C_5
REMARK                            x       y       z     vdW  Elec       q    Type
REMARK                         _______ _______ _______ _____ _____    ______ ____
ROOT
ATOM      1  C   UNL     1       4.252   3.634  18.416  0.00  0.00    +0.000 A 
ATOM      2  N   UNL     1       5.503   3.978  18.671  0.00  0.00    +0.000 NA
ATOM      3  C   UNL     1       6.011   4.292  17.439  0.00  0.00    +0.000 A 
ATOM      4  C   UNL     1       7.266   4.786  17.061  0.00  0.00    +0.000 A 
ATOM      5  C   UNL     1       7.485   5.063  15.703  0.00  0.00    +0.000 A 
ATOM      6  C   UNL     1       6.487   4.834  14.746  0.00  0.00    +0.000 A 
ATOM      7  C   UNL     1       5.232   4.324  15.107  0.00  0.00    +0.000 A 
ATOM      8  C   UNL     1       5.050   4.082  16.465  0.00  0.00    +0.000 A 
ATOM      9  O   UNL     1       3.918   3.641  17.083  0.00  0.00    +0.000 OA
ENDROOT
BRANCH   1  13
ATOM     10  C   UNL     1       1.187   2.966  21.317  0.00  0.00    +0.000 A 
ATOM     11  C   UNL     1       2.496   2.564  21.567  0.00  0.00    +0.000 A 
ATOM     12  C   UNL     1       3.482   2.755  20.596  0.00  0.00    +0.000 A 
ATOM     13  C   UNL     1       3.174   3.357  19.365  0.00  0.00    +0.000 A 
ATOM     14  C   UNL     1       1.846   3.733  19.118  0.00  0.00    +0.000 A 
ATOM     15  C   UNL     1       0.859   3.542  20.091  0.00  0.00    +0.000 A 
ENDBRANCH   1  13
TORSDOF 1
ENDMDL
MODEL 5
REMARK VINA RESULT:      -7.1      0.996      5.896
REMARK  Name = 
REMARK  1 active torsions:
REMARK  status: ('A' for Active; 'I' for Inactive)
REMARK    1  A    between atoms: C_4  and  C_5
REMARK                            x       y       z     vdW  Elec       q    Type
REMARK                         _______ _______ _______ _____ _____    ______ ____
ROOT
ATOM      1  C   UNL     1       4.535   4.742  18.692  0.00  0.00    +0.000 A 
ATOM      2  N   UNL     1       4.110   3.754  17.924  0.00  0.00    +0.000 NA
ATOM      3  C   UNL     1       2.925   3.381  18.501  0.00  0.00    +0.000 A 
ATOM      4  C   UNL     1       1.972   2.431  18.112  0.00  0.00    +0.000 A 
ATOM      5  C   UNL     1       0.812   2.302  18.891  0.00  0.00    +0.000 A 
ATOM      6  C   UNL     1       0.618   3.085  20.037  0.00  0.00    +0.000 A 
ATOM      7  C   UNL     1       1.570   4.027  20.448  0.00  0.00    +0.000 A 
ATOM      8  C   UNL     1       2.695   4.138  19.637  0.00  0.00    +0.000 A 
ATOM      9  O   UNL     1       3.737   5.006  19.779  0.00  0.00    +0.000 OA
ENDROOT
BRANCH   1  13
ATOM     10  C   UNL     1       7.959   7.199  17.986  0.00  0.00    +0.000 A 
ATOM     11  C   UNL     1       7.964   6.258  19.012  0.00  0.00    +0.000 A 
ATOM     12  C   UNL     1       6.825   5.487  19.257  0.00  0.00    +0.000 A 
ATOM     13  C   UNL     1       5.670   5.640  18.474  0.00  0.00    +0.000 A 
ATOM     14  C   UNL     1       5.672   6.609  17.460  0.00  0.00    +0.000 A 
ATOM     15  C   UNL     1       6.812   7.381  17.216  0.00  0.00    +0.000 A 
ENDBRANCH   1  13
TORSDOF 1
ENDMDL
MODEL 6
REMARK VINA RESULT:      -7.0      2.177      2.725
REMARK  Name = 
REMARK  1 active torsions:
REMARK  status: ('A' for Active; 'I' for Inactive)
REMARK    1  A    between atoms: C_4  and  C_5
REMARK                            x       y       z     vdW  Elec       q    Type
REMARK                         _______ _______ _______ _____ _____    ______ ____
ROOT
ATOM      1  C   UNL     1       3.862   3.911  18.220  0.00  0.00    +0.000 A 
ATOM      2  N   UNL     1       3.651   3.914  16.915  0.00  0.00    +0.000 NA
ATOM      3  C   UNL     1       4.879   4.217  16.388  0.00  0.00    +0.000 A 
ATOM      4  C   UNL     1       5.312   4.304  15.059  0.00  0.00    +0.000 A 
ATOM      5  C   UNL     1       6.665   4.591  14.824  0.00  0.00    +0.000 A 
ATOM      6  C   UNL     1       7.557   4.805  15.884  0.00  0.00    +0.000 A 
ATOM      7  C   UNL     1       7.133   4.738  17.219  0.00  0.00    +0.000 A 
ATOM      8  C   UNL     1       5.790   4.432  17.408  0.00  0.00    +0.000 A 
ATOM      9  O   UNL     1       5.140   4.255  18.594  0.00  0.00    +0.000 OA
ENDROOT
BRANCH   1  13
ATOM     10  C   UNL     1       1.296   2.834  21.461  0.00  0.00    +0.000 A 
ATOM     11  C   UNL     1       2.655   2.539  21.509  0.00  0.00    +0.000 A 
ATOM     12  C   UNL     1       3.477   2.863  20.427  0.00  0.00    +0.000 A 
ATOM     13  C   UNL     1       2.953   3.494  19.287  0.00  0.00    +0.000 A 
ATOM     14  C   UNL     1       1.577   3.761  19.244  0.00  0.00    +0.000 A 
ATOM     15  C   UNL     1       0.754   3.436  20.327  0.00  0.00    +0.000 A 
ENDBRANCH   1  13
TORSDOF 1
ENDMDL
MODEL 7
REMARK VINA RESULT:      -7.0      2.067      5.626
REMARK  Name = 
REMARK  1 active torsions:
REMARK  status: ('A' for Active; 'I' for Inactive)
REMARK    1  A    between atoms: C_4  and  C_5
REMARK                            x       y       z     vdW  Elec       q    Type
REMARK                         _______ _______ _______ _____ _____    ______ ____
ROOT
ATOM      1  C   UNL     1       4.488   3.946  18.242  0.00  0.00    +0.000 A 
ATOM      2  N   UNL     1       4.758   3.331  19.380  0.00  0.00    +0.000 NA
ATOM      3  C   UNL     1       3.535   3.219  19.987  0.00  0.00    +0.000 A 
ATOM      4  C   UNL     1       3.157   2.605  21.188  0.00  0.00    +0.000 A 
ATOM      5  C   UNL     1       1.797   2.611  21.533  0.00  0.00    +0.000 A 
ATOM      6  C   UNL     1       0.844   3.231  20.713  0.00  0.00    +0.000 A 
ATOM      7  C   UNL     1       1.210   3.866  19.518  0.00  0.00    +0.000 A 
ATOM      8  C   UNL     1       2.563   3.819  19.203  0.00  0.00    +0.000 A 
ATOM      9  O   UNL     1       3.171   4.306  18.084  0.00  0.00    +0.000 OA
ENDROOT
BRANCH   1  13
ATOM     10  C   UNL     1       6.978   4.832  14.885  0.00  0.00    +0.000 A 
ATOM     11  C   UNL     1       5.662   4.420  14.699  0.00  0.00    +0.000 A 
ATOM     12  C   UNL     1       4.869   4.098  15.803  0.00  0.00    +0.000 A 
ATOM     13  C   UNL     1       5.379   4.191  17.107  0.00  0.00    +0.000 A 
ATOM     14  C   UNL     1       6.715   4.583  17.277  0.00  0.00    +0.000 A 
ATOM     15  C   UNL     1       7.508   4.906  16.172  0.00  0.00    +0.000 A 
ENDBRANCH   1  13
TORSDOF 1
ENDMDL
MODEL 8
REMARK VINA RESULT:      -7.0      0.920      5.877
REMARK  Name = 
REMARK  1 active torsions:
REMARK  status: ('A' for Active; 'I' for Inactive)
REMARK    1  A    between atoms: C_4  and  C_5
REMARK                            x       y       z     vdW  Elec       q    Type
REMARK                         _______ _______ _______ _____ _____    ______ ____
ROOT
ATOM      1  C   UNL     1       4.263   5.152  18.729  0.00  0.00    +0.000 A 
ATOM      2  N   UNL     1       3.423   5.400  19.719  0.00  0.00    +0.000 NA
ATOM      3  C   UNL     1       2.465   4.429  19.583  0.00  0.00    +0.000 A 
ATOM      4  C   UNL     1       1.345   4.127  20.368  0.00  0.00    +0.000 A 
ATOM      5  C   UNL     1       0.560   3.024  20.000  0.00  0.00    +0.000 A 
ATOM      6  C   UNL     1       0.871   2.257  18.869  0.00  0.00    +0.000 A 
ATOM      7  C   UNL     1       1.978   2.559  18.064  0.00  0.00    +0.000 A 
ATOM      8  C   UNL     1       2.741   3.647  18.475  0.00  0.00    +0.000 A 
ATOM      9  O   UNL     1       3.889   4.116  17.907  0.00  0.00    +0.000 OA
ENDROOT
BRANCH   1  13
ATOM     10  C   UNL     1       7.993   7.117  18.037  0.00  0.00    +0.000 A 
ATOM     11  C   UNL     1       6.886   7.404  17.244  0.00  0.00    +0.000 A 
ATOM     12  C   UNL     1       5.682   6.728  17.456  0.00  0.00    +0.000 A 
ATOM     13  C   UNL     1       5.567   5.763  18.469  0.00  0.00    +0.000 A 
ATOM     14  C   UNL     1       6.698   5.467  19.244  0.00  0.00    +0.000 A 
ATOM     15  C   UNL     1       7.903   6.144  19.031  0.00  0.00    +0.000 A 
ENDBRANCH   1  13
TORSDOF 1
ENDMDL
MODEL 9
REMARK VINA RESULT:      -7.0      2.071      5.563
REMARK  Name = 
REMARK  1 active torsions:
REMARK  status: ('A' for Active; 'I' for Inactive)
REMARK    1  A    between atoms: C_4  and  C_5
REMARK                            x       y       z     vdW  Elec       q    Type
REMARK                         _______ _______ _______ _____ _____    ______ ____
ROOT
ATOM      1  C   UNL     1       4.443   4.029  18.244  0.00  0.00    +0.000 A 
ATOM      2  N   UNL     1       4.758   3.385  19.354  0.00  0.00    +0.000 NA
ATOM      3  C   UNL     1       3.556   3.230  19.992  0.00  0.00    +0.000 A 
ATOM      4  C   UNL     1       3.226   2.571  21.184  0.00  0.00    +0.000 A 
ATOM      5  C   UNL     1       1.877   2.538  21.568  0.00  0.00    +0.000 A 
ATOM      6  C   UNL     1       0.887   3.163  20.796  0.00  0.00    +0.000 A 
ATOM      7  C   UNL     1       1.205   3.842  19.612  0.00  0.00    +0.000 A 
ATOM      8  C   UNL     1       2.550   3.833  19.256  0.00  0.00    +0.000 A 
ATOM      9  O   UNL     1       3.115   4.366  18.136  0.00  0.00    +0.000 OA
ENDROOT
BRANCH   1  13
ATOM     10  C   UNL     1       7.033   4.721  14.918  0.00  0.00    +0.000 A 
ATOM     11  C   UNL     1       7.522   4.784  16.219  0.00  0.00    +0.000 A 
ATOM     12  C   UNL     1       6.658   4.592  17.300  0.00  0.00    +0.000 A 
ATOM     13  C   UNL     1       5.295   4.327  17.093  0.00  0.00    +0.000 A 
ATOM     14  C   UNL     1       4.812   4.293  15.777  0.00  0.00    +0.000 A 
ATOM     15  C   UNL     1       5.678   4.484  14.695  0.00  0.00    +0.000 A 
ENDBRANCH   1  13
TORSDOF 1
ENDMDL
