MODEL 1
REMARK VINA RESULT:      -7.6      0.000      0.000
REMARK  Name = 
REMARK  6 active torsions:
REMARK  status: ('A' for Active; 'I' for Inactive)
REMARK    1  A    between atoms: C_1  and  C_2
REMARK    2  A    between atoms: N_5  and  C_6
REMARK    3  A    between atoms: C_6  and  C_7
REMARK    4  A    between atoms: N_9  and  C_10
REMARK    5  A    between atoms: C_10  and  C_11
REMARK    6  A    between atoms: C_13  and  C_14
REMARK                            x       y       z     vdW  Elec       q    Type
REMARK                         _______ _______ _______ _____ _____    ______ ____
ROOT
ATOM      1  C   UNL     1       4.331   5.586  17.543  0.00  0.00    +0.000 C 
ATOM      2  C   UNL     1       5.002   6.760  16.788  0.00  0.00    +0.000 C 
ATOM      3  N   UNL     1       6.439   6.539  16.487  0.00  0.00    +0.000 NA
ATOM      4  C   UNL     1       6.568   5.235  15.799  0.00  0.00    +0.000 C 
ATOM      5  C   UNL     1       5.858   4.075  16.519  0.00  0.00    +0.000 C 
ATOM      6  O   UNL     1       4.479   4.371  16.772  0.00  0.00    +0.000 OA
ENDROOT
BRANCH   1   7
ATOM      7  C   UNL     1       2.832   5.816  17.752  0.00  0.00    +0.000 C 
BRANCH   7  12
ATOM      8  C   UNL     1       1.543   2.651  21.410  0.00  0.00    +0.000 C 
ATOM      9  C   UNL     1       1.638   3.379  20.126  0.00  0.00    +0.000 A 
ATOM     10  C   UNL     1       1.072   3.028  18.882  0.00  0.00    +0.000 A 
ATOM     11  N   UNL     1       1.407   3.870  17.902  0.00  0.00    +0.000 NA
ATOM     12  N   UNL     1       2.185   4.775  18.520  0.00  0.00    +0.000 N 
ATOM     13  C   UNL     1       2.304   4.557  19.863  0.00  0.00    +0.000 A 
ENDBRANCH   7  12
ENDBRANCH   1   7
BRANCH   3  14
ATOM     14  C   UNL     1       7.299   6.605  17.691  0.00  0.00    +0.000 C 
BRANCH  14  15
ATOM     15  C   UNL     1       7.887   7.960  17.930  0.00  0.00    +0.000 A 
ATOM     16  N   UNL     1       8.782   8.338  18.818  0.00  0.00    +0.000 NA
ATOM     17  C   UNL     1       8.825   9.701  18.617  0.00  0.00    +0.000 A 
ATOM     18  N   UNL     1       8.044  10.140  17.615  0.00  0.00    +0.000 NA
ATOM     19  O   UNL     1       7.417   8.979  17.161  0.00  0.00    +0.000 OA
BRANCH  17  20
ATOM     20  C   UNL     1       9.629  10.622  19.469  0.00  0.00    +0.000 A 
ATOM     21  C   UNL     1       9.218  11.183  20.663  0.00  0.00    +0.000 A 
ATOM     22  C   UNL     1      10.252  12.049  21.091  0.00  0.00    +0.000 A 
ATOM     23  C   UNL     1      11.253  11.934  20.156  0.00  0.00    +0.000 A 
ATOM     24  O   UNL     1      10.889  11.071  19.173  0.00  0.00    +0.000 OA
ENDBRANCH  17  20
ENDBRANCH  14  15
ENDBRANCH   3  14
TORSDOF 5
ENDMDL
MODEL 2
REMARK VINA RESULT:      -7.5      1.418      1.710
REMARK  Name = 
REMARK  6 active torsions:
REMARK  status: ('A' for Active; 'I' for Inactive)
REMARK    1  A    between atoms: C_1  and  C_2
REMARK    2  A    between atoms: N_5  and  C_6
REMARK    3  A    between atoms: C_6  and  C_7
REMARK    4  A    between atoms: N_9  and  C_10
REMARK    5  A    between atoms: C_10  and  C_11
REMARK    6  A    between atoms: C_13  and  C_14
REMARK                            x       y       z     vdW  Elec       q    Type
REMARK                         _______ _______ _______ _____ _____    ______ ____
ROOT
ATOM      1  C   UNL     1       4.157   5.433  17.395  0.00  0.00    +0.000 C 
ATOM      2  C   UNL     1       4.837   6.640  16.703  0.00  0.00    +0.000 C 
ATOM      3  N   UNL     1       6.205   6.354  16.201  0.00  0.00    +0.000 NA
ATOM      4  C   UNL     1       6.138   5.141  15.357  0.00  0.00    +0.000 C 
ATOM      5  C   UNL     1       5.417   3.954  16.021  0.00  0.00    +0.000 C 
ATOM      6  O   UNL     1       4.108   4.317  16.476  0.00  0.00    +0.000 OA
ENDROOT
BRANCH   1   7
ATOM      7  C   UNL     1       2.718   5.745  17.815  0.00  0.00    +0.000 C 
BRANCH   7  12
ATOM      8  C   UNL     1       1.893   2.701  21.703  0.00  0.00    +0.000 C 
ATOM      9  C   UNL     1       1.802   3.417  20.412  0.00  0.00    +0.000 A 
ATOM     10  C   UNL     1       0.987   3.110  19.302  0.00  0.00    +0.000 A 
ATOM     11  N   UNL     1       1.197   3.921  18.263  0.00  0.00    +0.000 NA
ATOM     12  N   UNL     1       2.147   4.761  18.709  0.00  0.00    +0.000 N 
ATOM     13  C   UNL     1       2.498   4.537  20.009  0.00  0.00    +0.000 A 
ENDBRANCH   7  12
ENDBRANCH   1   7
BRANCH   3  14
ATOM     14  C   UNL     1       7.200   6.205  17.288  0.00  0.00    +0.000 C 
BRANCH  14  15
ATOM     15  C   UNL     1       7.732   7.511  17.792  0.00  0.00    +0.000 A 
ATOM     16  N   UNL     1       7.586   8.720  17.294  0.00  0.00    +0.000 NA
ATOM     17  C   UNL     1       8.390   9.470  18.126  0.00  0.00    +0.000 A 
ATOM     18  N   UNL     1       8.957   8.773  19.126  0.00  0.00    +0.000 NA
ATOM     19  O   UNL     1       8.521   7.468  18.900  0.00  0.00    +0.000 OA
BRANCH  17  20
ATOM     20  C   UNL     1       8.652  10.921  17.910  0.00  0.00    +0.000 A 
ATOM     21  C   UNL     1       9.784  11.605  18.309  0.00  0.00    +0.000 A 
ATOM     22  C   UNL     1       9.583  12.966  17.977  0.00  0.00    +0.000 A 
ATOM     23  C   UNL     1       8.358  13.027  17.357  0.00  0.00    +0.000 A 
ATOM     24  O   UNL     1       7.788  11.796  17.306  0.00  0.00    +0.000 OA
ENDBRANCH  17  20
ENDBRANCH  14  15
ENDBRANCH   3  14
TORSDOF 5
ENDMDL
MODEL 3
REMARK VINA RESULT:      -7.3      4.676      7.341
REMARK  Name = 
REMARK  6 active torsions:
REMARK  status: ('A' for Active; 'I' for Inactive)
REMARK    1  A    between atoms: C_1  and  C_2
REMARK    2  A    between atoms: N_5  and  C_6
REMARK    3  A    between atoms: C_6  and  C_7
REMARK    4  A    between atoms: N_9  and  C_10
REMARK    5  A    between atoms: C_10  and  C_11
REMARK    6  A    between atoms: C_13  and  C_14
REMARK                            x       y       z     vdW  Elec       q    Type
REMARK                         _______ _______ _______ _____ _____    ______ ____
ROOT
ATOM      1  C   UNL     1       5.066   4.577  18.026  0.00  0.00    +0.000 C 
ATOM      2  C   UNL     1       4.891   5.550  19.217  0.00  0.00    +0.000 C 
ATOM      3  N   UNL     1       3.541   5.511  19.833  0.00  0.00    +0.000 NA
ATOM      4  C   UNL     1       3.227   4.103  20.161  0.00  0.00    +0.000 C 
ATOM      5  C   UNL     1       3.450   3.123  18.995  0.00  0.00    +0.000 C 
ATOM      6  O   UNL     1       4.775   3.228  18.460  0.00  0.00    +0.000 OA
ENDROOT
BRANCH   1   7
ATOM      7  C   UNL     1       6.497   4.584  17.480  0.00  0.00    +0.000 C 
BRANCH   7  12
ATOM      8  C   UNL     1       6.015   3.391  12.642  0.00  0.00    +0.000 C 
ATOM      9  C   UNL     1       6.367   4.056  13.916  0.00  0.00    +0.000 A 
ATOM     10  C   UNL     1       7.294   5.099  14.127  0.00  0.00    +0.000 A 
ATOM     11  N   UNL     1       7.424   5.426  15.414  0.00  0.00    +0.000 NA
ATOM     12  N   UNL     1       6.569   4.596  16.036  0.00  0.00    +0.000 N 
ATOM     13  C   UNL     1       5.869   3.799  15.176  0.00  0.00    +0.000 A 
ENDBRANCH   7  12
ENDBRANCH   1   7
BRANCH   3  14
ATOM     14  C   UNL     1       2.495   6.114  18.973  0.00  0.00    +0.000 C 
BRANCH  14  15
ATOM     15  C   UNL     1       1.980   7.421  19.489  0.00  0.00    +0.000 A 
ATOM     16  N   UNL     1       1.336   7.682  20.607  0.00  0.00    +0.000 NA
ATOM     17  C   UNL     1       1.038   9.020  20.458  0.00  0.00    +0.000 A 
ATOM     18  N   UNL     1       1.525   9.576  19.335  0.00  0.00    +0.000 NA
ATOM     19  O   UNL     1       2.149   8.508  18.689  0.00  0.00    +0.000 OA
BRANCH  17  20
ATOM     20  C   UNL     1       0.203   9.779  21.431  0.00  0.00    +0.000 A 
ATOM     21  C   UNL     1      -0.532  10.914  21.152  0.00  0.00    +0.000 A 
ATOM     22  C   UNL     1      -1.102  11.349  22.371  0.00  0.00    +0.000 A 
ATOM     23  C   UNL     1      -0.717  10.430  23.318  0.00  0.00    +0.000 A 
ATOM     24  O   UNL     1       0.069   9.473  22.760  0.00  0.00    +0.000 OA
ENDBRANCH  17  20
ENDBRANCH  14  15
ENDBRANCH   3  14
TORSDOF 5
ENDMDL
MODEL 4
REMARK VINA RESULT:      -7.2      4.590      7.126
REMARK  Name = 
REMARK  6 active torsions:
REMARK  status: ('A' for Active; 'I' for Inactive)
REMARK    1  A    between atoms: C_1  and  C_2
REMARK    2  A    between atoms: N_5  and  C_6
REMARK    3  A    between atoms: C_6  and  C_7
REMARK    4  A    between atoms: N_9  and  C_10
REMARK    5  A    between atoms: C_10  and  C_11
REMARK    6  A    between atoms: C_13  and  C_14
REMARK                            x       y       z     vdW  Elec       q    Type
REMARK                         _______ _______ _______ _____ _____    ______ ____
ROOT
ATOM      1  C   UNL     1       5.549   5.105  16.864  0.00  0.00    +0.000 C 
ATOM      2  C   UNL     1       5.366   6.163  17.979  0.00  0.00    +0.000 C 
ATOM      3  N   UNL     1       4.140   5.972  18.794  0.00  0.00    +0.000 NA
ATOM      4  C   UNL     1       4.130   4.578  19.287  0.00  0.00    +0.000 C 
ATOM      5  C   UNL     1       4.364   3.524  18.190  0.00  0.00    +0.000 C 
ATOM      6  O   UNL     1       5.564   3.784  17.452  0.00  0.00    +0.000 OA
ENDROOT
BRANCH   1   7
ATOM      7  C   UNL     1       6.869   5.285  16.108  0.00  0.00    +0.000 C 
BRANCH   7  12
ATOM      8  C   UNL     1       5.776   2.886  11.853  0.00  0.00    +0.000 C 
ATOM      9  C   UNL     1       6.331   3.817  12.859  0.00  0.00    +0.000 A 
ATOM     10  C   UNL     1       7.403   4.724  12.710  0.00  0.00    +0.000 A 
ATOM     11  N   UNL     1       7.696   5.371  13.840  0.00  0.00    +0.000 NA
ATOM     12  N   UNL     1       6.804   4.886  14.720  0.00  0.00    +0.000 N 
ATOM     13  C   UNL     1       5.927   3.998  14.166  0.00  0.00    +0.000 A 
ENDBRANCH   7  12
ENDBRANCH   1   7
BRANCH   3  14
ATOM     14  C   UNL     1       2.898   6.297  18.055  0.00  0.00    +0.000 C 
BRANCH  14  15
ATOM     15  C   UNL     1       2.356   7.657  18.367  0.00  0.00    +0.000 A 
ATOM     16  N   UNL     1       1.820   8.107  19.481  0.00  0.00    +0.000 NA
ATOM     17  C   UNL     1       1.420   9.374  19.113  0.00  0.00    +0.000 A 
ATOM     18  N   UNL     1       1.746   9.716  17.854  0.00  0.00    +0.000 NA
ATOM     19  O   UNL     1       2.366   8.569  17.358  0.00  0.00    +0.000 OA
BRANCH  17  20
ATOM     20  C   UNL     1       0.647  10.275  20.014  0.00  0.00    +0.000 A 
ATOM     21  C   UNL     1       0.156  11.522  19.681  0.00  0.00    +0.000 A 
ATOM     22  C   UNL     1      -0.439  12.057  20.848  0.00  0.00    +0.000 A 
ATOM     23  C   UNL     1      -0.314  11.088  21.815  0.00  0.00    +0.000 A 
ATOM     24  O   UNL     1       0.337  10.004  21.321  0.00  0.00    +0.000 OA
ENDBRANCH  17  20
ENDBRANCH  14  15
ENDBRANCH   3  14
TORSDOF 5
ENDMDL
MODEL 5
REMARK VINA RESULT:      -7.2      4.856      7.298
REMARK  Name = 
REMARK  6 active torsions:
REMARK  status: ('A' for Active; 'I' for Inactive)
REMARK    1  A    between atoms: C_1  and  C_2
REMARK    2  A    between atoms: N_5  and  C_6
REMARK    3  A    between atoms: C_6  and  C_7
REMARK    4  A    between atoms: N_9  and  C_10
REMARK    5  A    between atoms: C_10  and  C_11
REMARK    6  A    between atoms: C_13  and  C_14
REMARK                            x       y       z     vdW  Elec       q    Type
REMARK                         _______ _______ _______ _____ _____    ______ ____
ROOT
ATOM      1  C   UNL     1       4.706   4.754  17.848  0.00  0.00    +0.000 C 
ATOM      2  C   UNL     1       4.661   5.512  19.198  0.00  0.00    +0.000 C 
ATOM      3  N   UNL     1       3.286   5.792  19.685  0.00  0.00    +0.000 NA
ATOM      4  C   UNL     1       2.533   4.520  19.688  0.00  0.00    +0.000 C 
ATOM      5  C   UNL     1       2.618   3.738  18.365  0.00  0.00    +0.000 C 
ATOM      6  O   UNL     1       3.976   3.512  17.969  0.00  0.00    +0.000 OA
ENDROOT
BRANCH   1   7
ATOM      7  C   UNL     1       6.138   4.406  17.430  0.00  0.00    +0.000 C 
BRANCH   7  12
ATOM      8  C   UNL     1       6.200   3.452  12.517  0.00  0.00    +0.000 C 
ATOM      9  C   UNL     1       6.401   4.057  13.852  0.00  0.00    +0.000 A 
ATOM     10  C   UNL     1       7.283   5.098  14.213  0.00  0.00    +0.000 A 
ATOM     11  N   UNL     1       7.268   5.361  15.520  0.00  0.00    +0.000 NA
ATOM     12  N   UNL     1       6.365   4.492  16.005  0.00  0.00    +0.000 N 
ATOM     13  C   UNL     1       5.775   3.731  15.036  0.00  0.00    +0.000 A 
ENDBRANCH   7  12
ENDBRANCH   1   7
BRANCH   3  14
ATOM     14  C   UNL     1       2.593   6.832  18.889  0.00  0.00    +0.000 C 
BRANCH  14  15
ATOM     15  C   UNL     1       1.832   7.814  19.725  0.00  0.00    +0.000 A 
ATOM     16  N   UNL     1       1.352   8.994  19.397  0.00  0.00    +0.000 NA
ATOM     17  C   UNL     1       0.865   9.449  20.605  0.00  0.00    +0.000 A 
ATOM     18  N   UNL     1       0.980   8.570  21.616  0.00  0.00    +0.000 NA
ATOM     19  O   UNL     1       1.628   7.483  21.029  0.00  0.00    +0.000 OA
BRANCH  17  20
ATOM     20  C   UNL     1       0.303  10.816  20.790  0.00  0.00    +0.000 A 
ATOM     21  C   UNL     1      -0.749  11.360  20.079  0.00  0.00    +0.000 A 
ATOM     22  C   UNL     1      -0.898  12.697  20.518  0.00  0.00    +0.000 A 
ATOM     23  C   UNL     1       0.044  12.879  21.502  0.00  0.00    +0.000 A 
ATOM     24  O   UNL     1       0.773  11.748  21.678  0.00  0.00    +0.000 OA
ENDBRANCH  17  20
ENDBRANCH  14  15
ENDBRANCH   3  14
TORSDOF 5
ENDMDL
MODEL 6
REMARK VINA RESULT:      -7.1      3.804      6.710
REMARK  Name = 
REMARK  6 active torsions:
REMARK  status: ('A' for Active; 'I' for Inactive)
REMARK    1  A    between atoms: C_1  and  C_2
REMARK    2  A    between atoms: N_5  and  C_6
REMARK    3  A    between atoms: C_6  and  C_7
REMARK    4  A    between atoms: N_9  and  C_10
REMARK    5  A    between atoms: C_10  and  C_11
REMARK    6  A    between atoms: C_13  and  C_14
REMARK                            x       y       z     vdW  Elec       q    Type
REMARK                         _______ _______ _______ _____ _____    ______ ____
ROOT
ATOM      1  C   UNL     1       4.628   5.518  18.780  0.00  0.00    +0.000 C 
ATOM      2  C   UNL     1       6.098   5.855  19.129  0.00  0.00    +0.000 C 
ATOM      3  N   UNL     1       6.994   5.933  17.949  0.00  0.00    +0.000 NA
ATOM      4  C   UNL     1       6.385   6.861  16.971  0.00  0.00    +0.000 C 
ATOM      5  C   UNL     1       4.908   6.562  16.660  0.00  0.00    +0.000 C 
ATOM      6  O   UNL     1       4.116   6.503  17.852  0.00  0.00    +0.000 OA
ENDROOT
BRANCH   1   7
ATOM      7  C   UNL     1       3.722   5.537  20.015  0.00  0.00    +0.000 C 
BRANCH   7  12
ATOM      8  C   UNL     1       0.464   1.949  18.763  0.00  0.00    +0.000 C 
ATOM      9  C   UNL     1       1.343   2.875  19.509  0.00  0.00    +0.000 A 
ATOM     10  C   UNL     1       1.374   3.118  20.899  0.00  0.00    +0.000 A 
ATOM     11  N   UNL     1       2.244   4.070  21.241  0.00  0.00    +0.000 NA
ATOM     12  N   UNL     1       2.785   4.437  20.066  0.00  0.00    +0.000 N 
ATOM     13  C   UNL     1       2.321   3.709  19.008  0.00  0.00    +0.000 A 
ENDBRANCH   7  12
ENDBRANCH   1   7
BRANCH   3  14
ATOM     14  C   UNL     1       7.269   4.609  17.342  0.00  0.00    +0.000 C 
BRANCH  14  15
ATOM     15  C   UNL     1       7.004   4.561  15.870  0.00  0.00    +0.000 A 
ATOM     16  N   UNL     1       6.174   3.795  15.195  0.00  0.00    +0.000 NA
ATOM     17  C   UNL     1       6.465   4.138  13.891  0.00  0.00    +0.000 A 
ATOM     18  N   UNL     1       7.385   5.111  13.765  0.00  0.00    +0.000 NA
ATOM     19  O   UNL     1       7.745   5.389  15.084  0.00  0.00    +0.000 OA
BRANCH  17  20
ATOM     20  C   UNL     1       5.853   3.456  12.717  0.00  0.00    +0.000 A 
ATOM     21  C   UNL     1       4.619   3.744  12.169  0.00  0.00    +0.000 A 
ATOM     22  C   UNL     1       4.399   2.810  11.129  0.00  0.00    +0.000 A 
ATOM     23  C   UNL     1       5.531   2.032  11.074  0.00  0.00    +0.000 A 
ATOM     24  O   UNL     1       6.419   2.416  12.026  0.00  0.00    +0.000 OA
ENDBRANCH  17  20
ENDBRANCH  14  15
ENDBRANCH   3  14
TORSDOF 5
ENDMDL
MODEL 7
REMARK VINA RESULT:      -7.1      4.768      6.881
REMARK  Name = 
REMARK  6 active torsions:
REMARK  status: ('A' for Active; 'I' for Inactive)
REMARK    1  A    between atoms: C_1  and  C_2
REMARK    2  A    between atoms: N_5  and  C_6
REMARK    3  A    between atoms: C_6  and  C_7
REMARK    4  A    between atoms: N_9  and  C_10
REMARK    5  A    between atoms: C_10  and  C_11
REMARK    6  A    between atoms: C_13  and  C_14
REMARK                            x       y       z     vdW  Elec       q    Type
REMARK                         _______ _______ _______ _____ _____    ______ ____
ROOT
ATOM      1  C   UNL     1       4.850   4.722  17.591  0.00  0.00    +0.000 C 
ATOM      2  C   UNL     1       4.793   5.872  18.626  0.00  0.00    +0.000 C 
ATOM      3  N   UNL     1       3.432   6.134  19.160  0.00  0.00    +0.000 NA
ATOM      4  C   UNL     1       2.880   4.854  19.657  0.00  0.00    +0.000 C 
ATOM      5  C   UNL     1       2.982   3.695  18.650  0.00  0.00    +0.000 C 
ATOM      6  O   UNL     1       4.326   3.512  18.186  0.00  0.00    +0.000 OA
ENDROOT
BRANCH   1   7
ATOM      7  C   UNL     1       6.282   4.426  17.136  0.00  0.00    +0.000 C 
BRANCH   7  12
ATOM      8  C   UNL     1       6.065   3.376  12.247  0.00  0.00    +0.000 C 
ATOM      9  C   UNL     1       6.369   3.988  13.559  0.00  0.00    +0.000 A 
ATOM     10  C   UNL     1       7.347   4.959  13.861  0.00  0.00    +0.000 A 
ATOM     11  N   UNL     1       7.408   5.248  15.162  0.00  0.00    +0.000 NA
ATOM     12  N   UNL     1       6.456   4.466  15.701  0.00  0.00    +0.000 N 
ATOM     13  C   UNL     1       5.767   3.738  14.774  0.00  0.00    +0.000 A 
ENDBRANCH   7  12
ENDBRANCH   1   7
BRANCH   3  14
ATOM     14  C   UNL     1       2.532   6.764  18.165  0.00  0.00    +0.000 C 
BRANCH  14  15
ATOM     15  C   UNL     1       1.976   8.079  18.613  0.00  0.00    +0.000 A 
ATOM     16  N   UNL     1       1.952   9.234  17.983  0.00  0.00    +0.000 NA
ATOM     17  C   UNL     1       1.422  10.071  18.942  0.00  0.00    +0.000 A 
ATOM     18  N   UNL     1       1.078   9.457  20.087  0.00  0.00    +0.000 NA
ATOM     19  O   UNL     1       1.451   8.131  19.867  0.00  0.00    +0.000 OA
BRANCH  17  20
ATOM     20  C   UNL     1       1.288  11.543  18.749  0.00  0.00    +0.000 A 
ATOM     21  C   UNL     1       2.285  12.394  18.314  0.00  0.00    +0.000 A 
ATOM     22  C   UNL     1       1.755  13.706  18.353  0.00  0.00    +0.000 A 
ATOM     23  C   UNL     1       0.452  13.575  18.769  0.00  0.00    +0.000 A 
ATOM     24  O   UNL     1       0.157  12.271  19.008  0.00  0.00    +0.000 OA
ENDBRANCH  17  20
ENDBRANCH  14  15
ENDBRANCH   3  14
TORSDOF 5
ENDMDL
MODEL 8
REMARK VINA RESULT:      -7.1      5.052      7.373
REMARK  Name = 
REMARK  6 active torsions:
REMARK  status: ('A' for Active; 'I' for Inactive)
REMARK    1  A    between atoms: C_1  and  C_2
REMARK    2  A    between atoms: N_5  and  C_6
REMARK    3  A    between atoms: C_6  and  C_7
REMARK    4  A    between atoms: N_9  and  C_10
REMARK    5  A    between atoms: C_10  and  C_11
REMARK    6  A    between atoms: C_13  and  C_14
REMARK                            x       y       z     vdW  Elec       q    Type
REMARK                         _______ _______ _______ _____ _____    ______ ____
ROOT
ATOM      1  C   UNL     1       4.127   4.419  17.126  0.00  0.00    +0.000 C 
ATOM      2  C   UNL     1       4.352   5.250  18.413  0.00  0.00    +0.000 C 
ATOM      3  N   UNL     1       3.148   5.989  18.870  0.00  0.00    +0.000 NA
ATOM      4  C   UNL     1       2.028   5.027  18.967  0.00  0.00    +0.000 C 
ATOM      5  C   UNL     1       1.834   4.162  17.709  0.00  0.00    +0.000 C 
ATOM      6  O   UNL     1       3.042   3.486  17.339  0.00  0.00    +0.000 OA
ENDROOT
BRANCH   1   7
ATOM      7  C   UNL     1       5.365   3.602  16.744  0.00  0.00    +0.000 C 
BRANCH   7  12
ATOM      8  C   UNL     1       6.892   3.972  11.991  0.00  0.00    +0.000 C 
ATOM      9  C   UNL     1       6.678   4.191  13.438  0.00  0.00    +0.000 A 
ATOM     10  C   UNL     1       7.394   5.045  14.305  0.00  0.00    +0.000 A 
ATOM     11  N   UNL     1       6.989   4.956  15.573  0.00  0.00    +0.000 NA
ATOM     12  N   UNL     1       6.000   4.046  15.523  0.00  0.00    +0.000 N 
ATOM     13  C   UNL     1       5.737   3.604  14.258  0.00  0.00    +0.000 A 
ENDBRANCH   7  12
ENDBRANCH   1   7
BRANCH   3  14
ATOM     14  C   UNL     1       2.806   7.134  17.993  0.00  0.00    +0.000 C 
BRANCH  14  15
ATOM     15  C   UNL     1       2.030   8.208  18.690  0.00  0.00    +0.000 A 
ATOM     16  N   UNL     1       1.747   8.338  19.968  0.00  0.00    +0.000 NA
ATOM     17  C   UNL     1       0.925   9.445  19.967  0.00  0.00    +0.000 A 
ATOM     18  N   UNL     1       0.756  10.010  18.759  0.00  0.00    +0.000 NA
ATOM     19  O   UNL     1       1.490   9.182  17.909  0.00  0.00    +0.000 OA
BRANCH  17  20
ATOM     20  C   UNL     1       0.239   9.947  21.191  0.00  0.00    +0.000 A 
ATOM     21  C   UNL     1      -0.012   9.214  22.334  0.00  0.00    +0.000 A 
ATOM     22  C   UNL     1      -0.750  10.048  23.207  0.00  0.00    +0.000 A 
ATOM     23  C   UNL     1      -0.870  11.256  22.564  0.00  0.00    +0.000 A 
ATOM     24  O   UNL     1      -0.272  11.209  21.346  0.00  0.00    +0.000 OA
ENDBRANCH  17  20
ENDBRANCH  14  15
ENDBRANCH   3  14
TORSDOF 5
ENDMDL
MODEL 9
REMARK VINA RESULT:      -7.0      4.577      6.869
REMARK  Name = 
REMARK  6 active torsions:
REMARK  status: ('A' for Active; 'I' for Inactive)
REMARK    1  A    between atoms: C_1  and  C_2
REMARK    2  A    between atoms: N_5  and  C_6
REMARK    3  A    between atoms: C_6  and  C_7
REMARK    4  A    between atoms: N_9  and  C_10
REMARK    5  A    between atoms: C_10  and  C_11
REMARK    6  A    between atoms: C_13  and  C_14
REMARK                            x       y       z     vdW  Elec       q    Type
REMARK                         _______ _______ _______ _____ _____    ______ ____
ROOT
ATOM      1  C   UNL     1       5.131   4.868  17.762  0.00  0.00    +0.000 C 
ATOM      2  C   UNL     1       4.855   5.907  18.875  0.00  0.00    +0.000 C 
ATOM      3  N   UNL     1       3.547   5.729  19.554  0.00  0.00    +0.000 NA
ATOM      4  C   UNL     1       3.455   4.326  20.011  0.00  0.00    +0.000 C 
ATOM      5  C   UNL     1       3.779   3.289  18.921  0.00  0.00    +0.000 C 
ATOM      6  O   UNL     1       5.056   3.535  18.318  0.00  0.00    +0.000 OA
ENDROOT
BRANCH   1   7
ATOM      7  C   UNL     1       6.526   5.031  17.152  0.00  0.00    +0.000 C 
BRANCH   7  12
ATOM      8  C   UNL     1       5.604   3.404  12.509  0.00  0.00    +0.000 C 
ATOM      9  C   UNL     1       6.161   4.103  13.687  0.00  0.00    +0.000 A 
ATOM     10  C   UNL     1       7.350   4.859  13.770  0.00  0.00    +0.000 A 
ATOM     11  N   UNL     1       7.600   5.301  15.004  0.00  0.00    +0.000 NA
ATOM     12  N   UNL     1       6.562   4.835  15.720  0.00  0.00    +0.000 N 
ATOM     13  C   UNL     1       5.644   4.164  14.964  0.00  0.00    +0.000 A 
ENDBRANCH   7  12
ENDBRANCH   1   7
BRANCH   3  14
ATOM     14  C   UNL     1       2.396   6.098  18.697  0.00  0.00    +0.000 C 
BRANCH  14  15
ATOM     15  C   UNL     1       2.190   7.576  18.579  0.00  0.00    +0.000 A 
ATOM     16  N   UNL     1       1.618   8.410  19.421  0.00  0.00    +0.000 NA
ATOM     17  C   UNL     1       1.634   9.590  18.708  0.00  0.00    +0.000 A 
ATOM     18  N   UNL     1       2.241   9.508  17.511  0.00  0.00    +0.000 NA
ATOM     19  O   UNL     1       2.607   8.165  17.425  0.00  0.00    +0.000 OA
BRANCH  17  20
ATOM     20  C   UNL     1       0.989  10.842  19.197  0.00  0.00    +0.000 A 
ATOM     21  C   UNL     1       1.302  12.123  18.788  0.00  0.00    +0.000 A 
ATOM     22  C   UNL     1       0.512  13.008  19.560  0.00  0.00    +0.000 A 
ATOM     23  C   UNL     1      -0.268  12.213  20.366  0.00  0.00    +0.000 A 
ATOM     24  O   UNL     1       0.008  10.902  20.152  0.00  0.00    +0.000 OA
ENDBRANCH  17  20
ENDBRANCH  14  15
ENDBRANCH   3  14
TORSDOF 5
ENDMDL
