MODEL 1
REMARK VINA RESULT:      -6.7      0.000      0.000
REMARK  Name = 
REMARK  6 active torsions:
REMARK  status: ('A' for Active; 'I' for Inactive)
REMARK    1  A    between atoms: C_2  and  C_10
REMARK    2  A    between atoms: N_3  and  C_4
REMARK    3  A    between atoms: C_10  and  C_11
REMARK    4  A    between atoms: C_10  and  N_18
REMARK    5  A    between atoms: N_18  and  C_26
REMARK    6  A    between atoms: C_19  and  C_21
REMARK                            x       y       z     vdW  Elec       q    Type
REMARK                         _______ _______ _______ _____ _____    ______ ____
ROOT
ATOM      1  C   UNL     1      -2.043  11.853  19.743  0.00  0.00    +0.000 C 
ENDROOT
BRANCH   1   2
ATOM      2  C   UNL     1      -2.493  11.327  18.372  0.00  0.00    +0.000 A 
ATOM      3  C   UNL     1      -3.650  11.792  17.729  0.00  0.00    +0.000 A 
ATOM      4  C   UNL     1      -4.067  11.235  16.516  0.00  0.00    +0.000 A 
ATOM      5  C   UNL     1      -3.331  10.212  15.934  0.00  0.00    +0.000 A 
ATOM      6  F   UNL     1      -3.737   9.684  14.776  0.00  0.00    +0.000 F 
ATOM      7  C   UNL     1      -2.188   9.723  16.550  0.00  0.00    +0.000 A 
ATOM      8  C   UNL     1      -1.776  10.272  17.767  0.00  0.00    +0.000 A 
ENDBRANCH   1   2
BRANCH   1  10
ATOM      9  O   UNL     1      -2.874  13.813  20.958  0.00  0.00    +0.000 OA
ATOM     10  C   UNL     1      -3.153  12.791  20.334  0.00  0.00    +0.000 C 
ATOM     11  N   UNL     1      -4.448  12.322  20.234  0.00  0.00    +0.000 N 
ATOM     12  H   UNL     1      -4.585  11.530  19.610  0.00  0.00    +0.000 HD
BRANCH  11  13
ATOM     13  C   UNL     1      -5.604  12.938  20.860  0.00  0.00    +0.000 C 
ATOM     14  C   UNL     1      -5.990  14.200  20.083  0.00  0.00    +0.000 C 
ATOM     15  C   UNL     1      -6.529  13.871  18.690  0.00  0.00    +0.000 C 
ATOM     16  C   UNL     1      -7.704  12.901  18.739  0.00  0.00    +0.000 C 
ATOM     17  C   UNL     1      -7.442  11.665  19.598  0.00  0.00    +0.000 C 
ATOM     18  C   UNL     1      -6.801  11.980  20.950  0.00  0.00    +0.000 C 
ENDBRANCH  11  13
ENDBRANCH   1  10
BRANCH   1  19
ATOM     19  N   UNL     1      -0.575  12.158  19.838  0.00  0.00    +0.000 N 
ATOM     20  C   UNL     1       0.001  13.204  19.084  0.00  0.00    +0.000 C 
ATOM     21  O   UNL     1      -0.669  13.827  18.259  0.00  0.00    +0.000 OA
BRANCH  20  22
ATOM     22  C   UNL     1       1.429  13.571  19.246  0.00  0.00    +0.000 A 
ATOM     23  C   UNL     1       1.912  14.272  20.345  0.00  0.00    +0.000 A 
ATOM     24  S   UNL     1       3.604  14.475  20.152  0.00  0.00    +0.000 S 
ATOM     25  N   UNL     1       3.629  13.647  18.706  0.00  0.00    +0.000 NA
ATOM     26  N   UNL     1       2.435  13.205  18.353  0.00  0.00    +0.000 NA
ENDBRANCH  20  22
BRANCH  19  27
ATOM     27  C   UNL     1       0.266  11.251  20.646  0.00  0.00    +0.000 C 
ATOM     28  C   UNL     1      -0.461  10.726  21.884  0.00  0.00    +0.000 C 
ATOM     29  C   UNL     1       0.497   9.676  22.424  0.00  0.00    +0.000 C 
ATOM     30  C   UNL     1       1.142   9.047  21.192  0.00  0.00    +0.000 C 
ATOM     31  C   UNL     1       0.796   9.956  20.009  0.00  0.00    +0.000 C 
ENDBRANCH  19  27
ENDBRANCH   1  19
TORSDOF 6
ENDMDL
MODEL 2
REMARK VINA RESULT:      -6.7      1.815      2.228
REMARK  Name = 
REMARK  6 active torsions:
REMARK  status: ('A' for Active; 'I' for Inactive)
REMARK    1  A    between atoms: C_2  and  C_10
REMARK    2  A    between atoms: N_3  and  C_4
REMARK    3  A    between atoms: C_10  and  C_11
REMARK    4  A    between atoms: C_10  and  N_18
REMARK    5  A    between atoms: N_18  and  C_26
REMARK    6  A    between atoms: C_19  and  C_21
REMARK                            x       y       z     vdW  Elec       q    Type
REMARK                         _______ _______ _______ _____ _____    ______ ____
ROOT
ATOM      1  C   UNL     1      -2.703  12.127  20.867  0.00  0.00    +0.000 C 
ENDROOT
BRANCH   1   2
ATOM      2  C   UNL     1      -3.113  11.892  19.406  0.00  0.00    +0.000 A 
ATOM      3  C   UNL     1      -4.452  11.894  18.990  0.00  0.00    +0.000 A 
ATOM      4  C   UNL     1      -4.790  11.601  17.665  0.00  0.00    +0.000 A 
ATOM      5  C   UNL     1      -3.794  11.306  16.744  0.00  0.00    +0.000 A 
ATOM      6  F   UNL     1      -4.125  11.025  15.481  0.00  0.00    +0.000 F 
ATOM      7  C   UNL     1      -2.460  11.286  17.128  0.00  0.00    +0.000 A 
ATOM      8  C   UNL     1      -2.122  11.568  18.454  0.00  0.00    +0.000 A 
ENDBRANCH   1   2
BRANCH   1  10
ATOM      9  O   UNL     1      -4.445  12.462  22.558  0.00  0.00    +0.000 OA
ATOM     10  C   UNL     1      -3.829  12.933  21.604  0.00  0.00    +0.000 C 
ATOM     11  N   UNL     1      -4.179  14.137  21.026  0.00  0.00    +0.000 N 
ATOM     12  H   UNL     1      -3.543  14.487  20.313  0.00  0.00    +0.000 HD
BRANCH  11  13
ATOM     13  C   UNL     1      -5.304  14.959  21.436  0.00  0.00    +0.000 C 
ATOM     14  C   UNL     1      -4.889  16.433  21.414  0.00  0.00    +0.000 C 
ATOM     15  C   UNL     1      -4.638  16.936  19.991  0.00  0.00    +0.000 C 
ATOM     16  C   UNL     1      -5.839  16.711  19.080  0.00  0.00    +0.000 C 
ATOM     17  C   UNL     1      -6.391  15.288  19.134  0.00  0.00    +0.000 C 
ATOM     18  C   UNL     1      -6.541  14.739  20.554  0.00  0.00    +0.000 C 
ENDBRANCH  11  13
ENDBRANCH   1  10
BRANCH   1  19
ATOM     19  N   UNL     1      -1.238  12.398  21.062  0.00  0.00    +0.000 N 
ATOM     20  C   UNL     1      -0.664  13.622  20.654  0.00  0.00    +0.000 C 
ATOM     21  O   UNL     1      -1.331  14.457  20.041  0.00  0.00    +0.000 OA
BRANCH  20  22
ATOM     22  C   UNL     1       0.760  13.933  20.932  0.00  0.00    +0.000 A 
ATOM     23  C   UNL     1       1.752  13.879  19.960  0.00  0.00    +0.000 A 
ATOM     24  S   UNL     1       3.241  14.323  20.686  0.00  0.00    +0.000 S 
ATOM     25  N   UNL     1       2.541  14.579  22.176  0.00  0.00    +0.000 NA
ATOM     26  N   UNL     1       1.237  14.365  22.169  0.00  0.00    +0.000 NA
ENDBRANCH  20  22
BRANCH  19  27
ATOM     27  C   UNL     1      -0.397  11.298  21.578  0.00  0.00    +0.000 C 
ATOM     28  C   UNL     1      -0.875  10.783  22.935  0.00  0.00    +0.000 C 
ATOM     29  C   UNL     1      -0.014   9.549  23.155  0.00  0.00    +0.000 C 
ATOM     30  C   UNL     1       0.183   8.943  21.768  0.00  0.00    +0.000 C 
ATOM     31  C   UNL     1      -0.279  10.000  20.763  0.00  0.00    +0.000 C 
ENDBRANCH  19  27
ENDBRANCH   1  19
TORSDOF 6
ENDMDL
MODEL 3
REMARK VINA RESULT:      -6.6      3.327      6.598
REMARK  Name = 
REMARK  6 active torsions:
REMARK  status: ('A' for Active; 'I' for Inactive)
REMARK    1  A    between atoms: C_2  and  C_10
REMARK    2  A    between atoms: N_3  and  C_4
REMARK    3  A    between atoms: C_10  and  C_11
REMARK    4  A    between atoms: C_10  and  N_18
REMARK    5  A    between atoms: N_18  and  C_26
REMARK    6  A    between atoms: C_19  and  C_21
REMARK                            x       y       z     vdW  Elec       q    Type
REMARK                         _______ _______ _______ _____ _____    ______ ____
ROOT
ATOM      1  C   UNL     1      -1.367  12.364  19.547  0.00  0.00    +0.000 C 
ENDROOT
BRANCH   1   2
ATOM      2  C   UNL     1      -0.660  11.123  20.113  0.00  0.00    +0.000 A 
ATOM      3  C   UNL     1      -0.838  10.692  21.436  0.00  0.00    +0.000 A 
ATOM      4  C   UNL     1      -0.119   9.602  21.936  0.00  0.00    +0.000 A 
ATOM      5  C   UNL     1       0.780   8.931  21.119  0.00  0.00    +0.000 A 
ATOM      6  F   UNL     1       1.465   7.892  21.604  0.00  0.00    +0.000 F 
ATOM      7  C   UNL     1       0.986   9.340  19.808  0.00  0.00    +0.000 A 
ATOM      8  C   UNL     1       0.276  10.435  19.311  0.00  0.00    +0.000 A 
ENDBRANCH   1   2
BRANCH   1  10
ATOM      9  O   UNL     1      -0.381  13.641  21.392  0.00  0.00    +0.000 OA
ATOM     10  C   UNL     1      -0.794  13.652  20.234  0.00  0.00    +0.000 C 
ATOM     11  N   UNL     1      -0.917  14.821  19.510  0.00  0.00    +0.000 N 
ATOM     12  H   UNL     1      -1.168  14.710  18.530  0.00  0.00    +0.000 HD
BRANCH  11  13
ATOM     13  C   UNL     1      -0.615  16.148  20.017  0.00  0.00    +0.000 C 
ATOM     14  C   UNL     1       0.904  16.346  20.045  0.00  0.00    +0.000 C 
ATOM     15  C   UNL     1       1.499  16.408  18.637  0.00  0.00    +0.000 C 
ATOM     16  C   UNL     1       0.842  17.483  17.780  0.00  0.00    +0.000 C 
ATOM     17  C   UNL     1      -0.685  17.429  17.793  0.00  0.00    +0.000 C 
ATOM     18  C   UNL     1      -1.282  17.257  19.191  0.00  0.00    +0.000 C 
ENDBRANCH  11  13
ENDBRANCH   1  10
BRANCH   1  19
ATOM     19  N   UNL     1      -2.829  12.166  19.263  0.00  0.00    +0.000 N 
ATOM     20  C   UNL     1      -3.810  12.520  20.216  0.00  0.00    +0.000 C 
ATOM     21  O   UNL     1      -3.485  12.909  21.339  0.00  0.00    +0.000 OA
BRANCH  20  22
ATOM     22  C   UNL     1      -5.256  12.419  19.903  0.00  0.00    +0.000 A 
ATOM     23  C   UNL     1      -5.933  13.354  19.129  0.00  0.00    +0.000 A 
ATOM     24  S   UNL     1      -7.570  12.860  18.997  0.00  0.00    +0.000 S 
ATOM     25  N   UNL     1      -7.321  11.484  19.903  0.00  0.00    +0.000 NA
ATOM     26  N   UNL     1      -6.067  11.355  20.298  0.00  0.00    +0.000 NA
ENDBRANCH  20  22
BRANCH  19  27
ATOM     27  C   UNL     1      -3.201  11.477  18.011  0.00  0.00    +0.000 C 
ATOM     28  C   UNL     1      -2.208  11.743  16.879  0.00  0.00    +0.000 C 
ATOM     29  C   UNL     1      -2.665  10.785  15.791  0.00  0.00    +0.000 C 
ATOM     30  C   UNL     1      -3.168   9.547  16.528  0.00  0.00    +0.000 C 
ATOM     31  C   UNL     1      -3.297   9.942  18.001  0.00  0.00    +0.000 C 
ENDBRANCH  19  27
ENDBRANCH   1  19
TORSDOF 6
ENDMDL
MODEL 4
REMARK VINA RESULT:      -6.6      3.146      6.803
REMARK  Name = 
REMARK  6 active torsions:
REMARK  status: ('A' for Active; 'I' for Inactive)
REMARK    1  A    between atoms: C_2  and  C_10
REMARK    2  A    between atoms: N_3  and  C_4
REMARK    3  A    between atoms: C_10  and  C_11
REMARK    4  A    between atoms: C_10  and  N_18
REMARK    5  A    between atoms: N_18  and  C_26
REMARK    6  A    between atoms: C_19  and  C_21
REMARK                            x       y       z     vdW  Elec       q    Type
REMARK                         _______ _______ _______ _____ _____    ______ ____
ROOT
ATOM      1  C   UNL     1       0.379  11.912  19.582  0.00  0.00    +0.000 C 
ENDROOT
BRANCH   1   2
ATOM      2  C   UNL     1       0.850  10.456  19.725  0.00  0.00    +0.000 A 
ATOM      3  C   UNL     1       0.784   9.759  20.941  0.00  0.00    +0.000 A 
ATOM      4  C   UNL     1       1.291   8.461  21.050  0.00  0.00    +0.000 A 
ATOM      5  C   UNL     1       1.866   7.847  19.946  0.00  0.00    +0.000 A 
ATOM      6  F   UNL     1       2.351   6.607  20.058  0.00  0.00    +0.000 F 
ATOM      7  C   UNL     1       1.957   8.514  18.732  0.00  0.00    +0.000 A 
ATOM      8  C   UNL     1       1.459   9.815  18.625  0.00  0.00    +0.000 A 
ENDBRANCH   1   2
BRANCH   1  10
ATOM      9  O   UNL     1       2.204  12.608  21.063  0.00  0.00    +0.000 OA
ATOM     10  C   UNL     1       1.505  12.879  20.087  0.00  0.00    +0.000 C 
ATOM     11  N   UNL     1       1.565  14.108  19.460  0.00  0.00    +0.000 N 
ATOM     12  H   UNL     1       1.025  14.193  18.602  0.00  0.00    +0.000 HD
BRANCH  11  13
ATOM     13  C   UNL     1       2.407  15.213  19.879  0.00  0.00    +0.000 C 
ATOM     14  C   UNL     1       3.759  15.119  19.165  0.00  0.00    +0.000 C 
ATOM     15  C   UNL     1       3.632  15.376  17.662  0.00  0.00    +0.000 C 
ATOM     16  C   UNL     1       2.968  16.713  17.360  0.00  0.00    +0.000 C 
ATOM     17  C   UNL     1       1.666  16.938  18.128  0.00  0.00    +0.000 C 
ATOM     18  C   UNL     1       1.758  16.579  19.611  0.00  0.00    +0.000 C 
ENDBRANCH  11  13
ENDBRANCH   1  10
BRANCH   1  19
ATOM     19  N   UNL     1      -1.078  12.122  19.881  0.00  0.00    +0.000 N 
ATOM     20  C   UNL     1      -1.497  12.664  21.115  0.00  0.00    +0.000 C 
ATOM     21  O   UNL     1      -0.684  12.887  22.013  0.00  0.00    +0.000 OA
BRANCH  20  22
ATOM     22  C   UNL     1      -2.926  12.964  21.377  0.00  0.00    +0.000 A 
ATOM     23  C   UNL     1      -3.578  14.072  20.849  0.00  0.00    +0.000 A 
ATOM     24  S   UNL     1      -5.209  14.039  21.377  0.00  0.00    +0.000 S 
ATOM     25  N   UNL     1      -5.002  12.616  22.219  0.00  0.00    +0.000 NA
ATOM     26  N   UNL     1      -3.772  12.142  22.121  0.00  0.00    +0.000 NA
ENDBRANCH  20  22
BRANCH  19  27
ATOM     27  C   UNL     1      -2.061  11.629  18.894  0.00  0.00    +0.000 C 
ATOM     28  C   UNL     1      -1.667  11.964  17.456  0.00  0.00    +0.000 C 
ATOM     29  C   UNL     1      -2.684  11.191  16.633  0.00  0.00    +0.000 C 
ATOM     30  C   UNL     1      -2.948   9.909  17.418  0.00  0.00    +0.000 C 
ATOM     31  C   UNL     1      -2.342  10.119  18.808  0.00  0.00    +0.000 C 
ENDBRANCH  19  27
ENDBRANCH   1  19
TORSDOF 6
ENDMDL
MODEL 5
REMARK VINA RESULT:      -6.6      1.143      1.437
REMARK  Name = 
REMARK  6 active torsions:
REMARK  status: ('A' for Active; 'I' for Inactive)
REMARK    1  A    between atoms: C_2  and  C_10
REMARK    2  A    between atoms: N_3  and  C_4
REMARK    3  A    between atoms: C_10  and  C_11
REMARK    4  A    between atoms: C_10  and  N_18
REMARK    5  A    between atoms: N_18  and  C_26
REMARK    6  A    between atoms: C_19  and  C_21
REMARK                            x       y       z     vdW  Elec       q    Type
REMARK                         _______ _______ _______ _____ _____    ______ ____
ROOT
ATOM      1  C   UNL     1      -1.669  11.603  19.693  0.00  0.00    +0.000 C 
ENDROOT
BRANCH   1   2
ATOM      2  C   UNL     1      -2.276  11.070  18.387  0.00  0.00    +0.000 A 
ATOM      3  C   UNL     1      -2.956   9.845  18.316  0.00  0.00    +0.000 A 
ATOM      4  C   UNL     1      -3.429   9.359  17.094  0.00  0.00    +0.000 A 
ATOM      5  C   UNL     1      -3.231  10.093  15.932  0.00  0.00    +0.000 A 
ATOM      6  F   UNL     1      -3.685   9.620  14.768  0.00  0.00    +0.000 F 
ATOM      7  C   UNL     1      -2.554  11.303  15.967  0.00  0.00    +0.000 A 
ATOM      8  C   UNL     1      -2.071  11.785  17.187  0.00  0.00    +0.000 A 
ENDBRANCH   1   2
BRANCH   1  10
ATOM      9  O   UNL     1      -2.581  12.810  21.621  0.00  0.00    +0.000 OA
ATOM     10  C   UNL     1      -2.730  12.477  20.447  0.00  0.00    +0.000 C 
ATOM     11  N   UNL     1      -3.901  12.723  19.758  0.00  0.00    +0.000 N 
ATOM     12  H   UNL     1      -3.885  12.502  18.765  0.00  0.00    +0.000 HD
BRANCH  11  13
ATOM     13  C   UNL     1      -5.080  13.356  20.322  0.00  0.00    +0.000 C 
ATOM     14  C   UNL     1      -5.904  13.988  19.196  0.00  0.00    +0.000 C 
ATOM     15  C   UNL     1      -6.527  12.931  18.281  0.00  0.00    +0.000 C 
ATOM     16  C   UNL     1      -7.371  11.925  19.053  0.00  0.00    +0.000 C 
ATOM     17  C   UNL     1      -6.660  11.334  20.269  0.00  0.00    +0.000 C 
ATOM     18  C   UNL     1      -5.942  12.376  21.129  0.00  0.00    +0.000 C 
ENDBRANCH  11  13
ENDBRANCH   1  10
BRANCH   1  19
ATOM     19  N   UNL     1      -0.218  11.980  19.591  0.00  0.00    +0.000 N 
ATOM     20  C   UNL     1       0.172  13.320  19.379  0.00  0.00    +0.000 C 
ATOM     21  O   UNL     1      -0.670  14.196  19.175  0.00  0.00    +0.000 OA
BRANCH  20  22
ATOM     22  C   UNL     1       1.603  13.712  19.375  0.00  0.00    +0.000 A 
ATOM     23  C   UNL     1       2.313  13.980  18.210  0.00  0.00    +0.000 A 
ATOM     24  S   UNL     1       3.915  14.409  18.645  0.00  0.00    +0.000 S 
ATOM     25  N   UNL     1       3.611  14.255  20.276  0.00  0.00    +0.000 NA
ATOM     26  N   UNL     1       2.361  13.909  20.529  0.00  0.00    +0.000 NA
ENDBRANCH  20  22
BRANCH  19  27
ATOM     27  C   UNL     1       0.779  10.889  19.595  0.00  0.00    +0.000 C 
ATOM     28  C   UNL     1       0.360   9.716  20.480  0.00  0.00    +0.000 C 
ATOM     29  C   UNL     1       1.405   8.658  20.163  0.00  0.00    +0.000 C 
ATOM     30  C   UNL     1       1.730   8.844  18.684  0.00  0.00    +0.000 C 
ATOM     31  C   UNL     1       1.126  10.188  18.271  0.00  0.00    +0.000 C 
ENDBRANCH  19  27
ENDBRANCH   1  19
TORSDOF 6
ENDMDL
MODEL 6
REMARK VINA RESULT:      -6.6      3.452      6.221
REMARK  Name = 
REMARK  6 active torsions:
REMARK  status: ('A' for Active; 'I' for Inactive)
REMARK    1  A    between atoms: C_2  and  C_10
REMARK    2  A    between atoms: N_3  and  C_4
REMARK    3  A    between atoms: C_10  and  C_11
REMARK    4  A    between atoms: C_10  and  N_18
REMARK    5  A    between atoms: N_18  and  C_26
REMARK    6  A    between atoms: C_19  and  C_21
REMARK                            x       y       z     vdW  Elec       q    Type
REMARK                         _______ _______ _______ _____ _____    ______ ____
ROOT
ATOM      1  C   UNL     1      -1.296  12.322  19.436  0.00  0.00    +0.000 C 
ENDROOT
BRANCH   1   2
ATOM      2  C   UNL     1      -0.580  11.048  19.912  0.00  0.00    +0.000 A 
ATOM      3  C   UNL     1      -0.779  10.506  21.190  0.00  0.00    +0.000 A 
ATOM      4  C   UNL     1      -0.053   9.389  21.614  0.00  0.00    +0.000 A 
ATOM      5  C   UNL     1       0.875   8.802  20.764  0.00  0.00    +0.000 A 
ATOM      6  F   UNL     1       1.567   7.736  21.177  0.00  0.00    +0.000 F 
ATOM      7  C   UNL     1       1.102   9.322  19.497  0.00  0.00    +0.000 A 
ATOM      8  C   UNL     1       0.384  10.445  19.077  0.00  0.00    +0.000 A 
ENDBRANCH   1   2
BRANCH   1  10
ATOM      9  O   UNL     1       0.106  13.453  21.097  0.00  0.00    +0.000 OA
ATOM     10  C   UNL     1      -0.686  13.569  20.164  0.00  0.00    +0.000 C 
ATOM     11  N   UNL     1      -1.202  14.794  19.788  0.00  0.00    +0.000 N 
ATOM     12  H   UNL     1      -1.765  14.794  18.940  0.00  0.00    +0.000 HD
BRANCH  11  13
ATOM     13  C   UNL     1      -0.911  16.055  20.446  0.00  0.00    +0.000 C 
ATOM     14  C   UNL     1      -0.144  16.965  19.481  0.00  0.00    +0.000 C 
ATOM     15  C   UNL     1      -1.015  17.419  18.309  0.00  0.00    +0.000 C 
ATOM     16  C   UNL     1      -2.297  18.101  18.772  0.00  0.00    +0.000 C 
ATOM     17  C   UNL     1      -3.064  17.309  19.829  0.00  0.00    +0.000 C 
ATOM     18  C   UNL     1      -2.179  16.759  20.949  0.00  0.00    +0.000 C 
ENDBRANCH  11  13
ENDBRANCH   1  10
BRANCH   1  19
ATOM     19  N   UNL     1      -2.769  12.150  19.197  0.00  0.00    +0.000 N 
ATOM     20  C   UNL     1      -3.714  12.524  20.178  0.00  0.00    +0.000 C 
ATOM     21  O   UNL     1      -3.348  12.909  21.289  0.00  0.00    +0.000 OA
BRANCH  20  22
ATOM     22  C   UNL     1      -5.171  12.447  19.910  0.00  0.00    +0.000 A 
ATOM     23  C   UNL     1      -5.859  13.408  19.178  0.00  0.00    +0.000 A 
ATOM     24  S   UNL     1      -7.506  12.937  19.088  0.00  0.00    +0.000 S 
ATOM     25  N   UNL     1      -7.247  11.538  19.956  0.00  0.00    +0.000 NA
ATOM     26  N   UNL     1      -5.982  11.385  20.308  0.00  0.00    +0.000 NA
ENDBRANCH  20  22
BRANCH  19  27
ATOM     27  C   UNL     1      -3.191  11.463  17.958  0.00  0.00    +0.000 C 
ATOM     28  C   UNL     1      -2.242  11.728  16.790  0.00  0.00    +0.000 C 
ATOM     29  C   UNL     1      -2.743  10.773  15.719  0.00  0.00    +0.000 C 
ATOM     30  C   UNL     1      -3.223   9.536  16.473  0.00  0.00    +0.000 C 
ATOM     31  C   UNL     1      -3.293   9.929  17.951  0.00  0.00    +0.000 C 
ENDBRANCH  19  27
ENDBRANCH   1  19
TORSDOF 6
ENDMDL
MODEL 7
REMARK VINA RESULT:      -6.5      7.901     10.698
REMARK  Name = 
REMARK  6 active torsions:
REMARK  status: ('A' for Active; 'I' for Inactive)
REMARK    1  A    between atoms: C_2  and  C_10
REMARK    2  A    between atoms: N_3  and  C_4
REMARK    3  A    between atoms: C_10  and  C_11
REMARK    4  A    between atoms: C_10  and  N_18
REMARK    5  A    between atoms: N_18  and  C_26
REMARK    6  A    between atoms: C_19  and  C_21
REMARK                            x       y       z     vdW  Elec       q    Type
REMARK                         _______ _______ _______ _____ _____    ______ ____
ROOT
ATOM      1  C   UNL     1       5.240   4.303  17.487  0.00  0.00    +0.000 C 
ENDROOT
BRANCH   1   2
ATOM      2  C   UNL     1       5.684   4.171  16.022  0.00  0.00    +0.000 A 
ATOM      3  C   UNL     1       7.014   4.363  15.619  0.00  0.00    +0.000 A 
ATOM      4  C   UNL     1       7.366   4.309  14.267  0.00  0.00    +0.000 A 
ATOM      5  C   UNL     1       6.394   4.061  13.306  0.00  0.00    +0.000 A 
ATOM      6  F   UNL     1       6.737   4.014  12.017  0.00  0.00    +0.000 F 
ATOM      7  C   UNL     1       5.068   3.879  13.673  0.00  0.00    +0.000 A 
ATOM      8  C   UNL     1       4.714   3.942  15.023  0.00  0.00    +0.000 A 
ENDBRANCH   1   2
BRANCH   1  10
ATOM      9  O   UNL     1       4.333   2.049  17.162  0.00  0.00    +0.000 OA
ATOM     10  C   UNL     1       4.543   2.974  17.944  0.00  0.00    +0.000 C 
ATOM     11  N   UNL     1       4.055   2.969  19.236  0.00  0.00    +0.000 N 
ATOM     12  H   UNL     1       4.372   3.729  19.832  0.00  0.00    +0.000 HD
BRANCH  11  13
ATOM     13  C   UNL     1       3.230   1.919  19.807  0.00  0.00    +0.000 C 
ATOM     14  C   UNL     1       2.988   2.215  21.290  0.00  0.00    +0.000 C 
ATOM     15  C   UNL     1       2.106   3.449  21.492  0.00  0.00    +0.000 C 
ATOM     16  C   UNL     1       0.778   3.335  20.753  0.00  0.00    +0.000 C 
ATOM     17  C   UNL     1       0.925   2.925  19.289  0.00  0.00    +0.000 C 
ATOM     18  C   UNL     1       1.892   1.760  19.070  0.00  0.00    +0.000 C 
ENDBRANCH  11  13
ENDBRANCH   1  10
BRANCH   1  19
ATOM     19  N   UNL     1       4.732   5.666  17.859  0.00  0.00    +0.000 N 
ATOM     20  C   UNL     1       3.350   5.955  17.853  0.00  0.00    +0.000 C 
ATOM     21  O   UNL     1       2.535   5.123  17.449  0.00  0.00    +0.000 OA
BRANCH  20  22
ATOM     22  C   UNL     1       2.837   7.268  18.312  0.00  0.00    +0.000 A 
ATOM     23  C   UNL     1       2.738   8.377  17.480  0.00  0.00    +0.000 A 
ATOM     24  S   UNL     1       2.087   9.677  18.391  0.00  0.00    +0.000 S 
ATOM     25  N   UNL     1       1.947   8.756  19.773  0.00  0.00    +0.000 NA
ATOM     26  N   UNL     1       2.350   7.510  19.597  0.00  0.00    +0.000 NA
ENDBRANCH  20  22
BRANCH  19  27
ATOM     27  C   UNL     1       5.728   6.729  18.109  0.00  0.00    +0.000 C 
ATOM     28  C   UNL     1       7.040   6.181  18.670  0.00  0.00    +0.000 C 
ATOM     29  C   UNL     1       7.958   7.392  18.641  0.00  0.00    +0.000 C 
ATOM     30  C   UNL     1       7.549   8.177  17.398  0.00  0.00    +0.000 C 
ATOM     31  C   UNL     1       6.216   7.589  16.931  0.00  0.00    +0.000 C 
ENDBRANCH  19  27
ENDBRANCH   1  19
TORSDOF 6
ENDMDL
MODEL 8
REMARK VINA RESULT:      -6.5      3.541      6.436
REMARK  Name = 
REMARK  6 active torsions:
REMARK  status: ('A' for Active; 'I' for Inactive)
REMARK    1  A    between atoms: C_2  and  C_10
REMARK    2  A    between atoms: N_3  and  C_4
REMARK    3  A    between atoms: C_10  and  C_11
REMARK    4  A    between atoms: C_10  and  N_18
REMARK    5  A    between atoms: N_18  and  C_26
REMARK    6  A    between atoms: C_19  and  C_21
REMARK                            x       y       z     vdW  Elec       q    Type
REMARK                         _______ _______ _______ _____ _____    ______ ____
ROOT
ATOM      1  C   UNL     1      -1.534  12.184  19.378  0.00  0.00    +0.000 C 
ENDROOT
BRANCH   1   2
ATOM      2  C   UNL     1      -1.137  11.350  20.605  0.00  0.00    +0.000 A 
ATOM      3  C   UNL     1      -1.256  11.835  21.916  0.00  0.00    +0.000 A 
ATOM      4  C   UNL     1      -0.815  11.074  23.003  0.00  0.00    +0.000 A 
ATOM      5  C   UNL     1      -0.254   9.822  22.791  0.00  0.00    +0.000 A 
ATOM      6  F   UNL     1       0.167   9.102  23.835  0.00  0.00    +0.000 F 
ATOM      7  C   UNL     1      -0.113   9.319  21.505  0.00  0.00    +0.000 A 
ATOM      8  C   UNL     1      -0.544  10.083  20.418  0.00  0.00    +0.000 A 
ENDBRANCH   1   2
BRANCH   1  10
ATOM      9  O   UNL     1       0.434  13.635  19.205  0.00  0.00    +0.000 OA
ATOM     10  C   UNL     1      -0.776  13.557  19.411  0.00  0.00    +0.000 C 
ATOM     11  N   UNL     1      -1.522  14.643  19.825  0.00  0.00    +0.000 N 
ATOM     12  H   UNL     1      -2.528  14.498  19.865  0.00  0.00    +0.000 HD
BRANCH  11  13
ATOM     13  C   UNL     1      -0.985  15.965  20.093  0.00  0.00    +0.000 C 
ATOM     14  C   UNL     1      -2.105  17.002  19.967  0.00  0.00    +0.000 C 
ATOM     15  C   UNL     1      -3.147  16.857  21.077  0.00  0.00    +0.000 C 
ATOM     16  C   UNL     1      -2.523  16.921  22.466  0.00  0.00    +0.000 C 
ATOM     17  C   UNL     1      -1.318  15.998  22.639  0.00  0.00    +0.000 C 
ATOM     18  C   UNL     1      -0.325  16.059  21.477  0.00  0.00    +0.000 C 
ENDBRANCH  11  13
ENDBRANCH   1  10
BRANCH   1  19
ATOM     19  N   UNL     1      -2.976  12.052  18.981  0.00  0.00    +0.000 N 
ATOM     20  C   UNL     1      -4.008  12.536  19.815  0.00  0.00    +0.000 C 
ATOM     21  O   UNL     1      -3.753  12.990  20.932  0.00  0.00    +0.000 OA
BRANCH  20  22
ATOM     22  C   UNL     1      -5.427  12.496  19.384  0.00  0.00    +0.000 A 
ATOM     23  C   UNL     1      -6.024  13.511  18.646  0.00  0.00    +0.000 A 
ATOM     24  S   UNL     1      -7.654  13.069  18.344  0.00  0.00    +0.000 S 
ATOM     25  N   UNL     1      -7.501  11.614  19.141  0.00  0.00    +0.000 NA
ATOM     26  N   UNL     1      -6.284  11.421  19.619  0.00  0.00    +0.000 NA
ENDBRANCH  20  22
BRANCH  19  27
ATOM     27  C   UNL     1      -3.286  11.291  17.753  0.00  0.00    +0.000 C 
ATOM     28  C   UNL     1      -2.364  11.655  16.590  0.00  0.00    +0.000 C 
ATOM     29  C   UNL     1      -2.719  10.620  15.534  0.00  0.00    +0.000 C 
ATOM     30  C   UNL     1      -3.041   9.347  16.310  0.00  0.00    +0.000 C 
ATOM     31  C   UNL     1      -3.184   9.757  17.778  0.00  0.00    +0.000 C 
ENDBRANCH  19  27
ENDBRANCH   1  19
TORSDOF 6
ENDMDL
MODEL 9
REMARK VINA RESULT:      -6.5      3.362      6.544
REMARK  Name = 
REMARK  6 active torsions:
REMARK  status: ('A' for Active; 'I' for Inactive)
REMARK    1  A    between atoms: C_2  and  C_10
REMARK    2  A    between atoms: N_3  and  C_4
REMARK    3  A    between atoms: C_10  and  C_11
REMARK    4  A    between atoms: C_10  and  N_18
REMARK    5  A    between atoms: N_18  and  C_26
REMARK    6  A    between atoms: C_19  and  C_21
REMARK                            x       y       z     vdW  Elec       q    Type
REMARK                         _______ _______ _______ _____ _____    ______ ____
ROOT
ATOM      1  C   UNL     1      -1.181  12.453  19.274  0.00  0.00    +0.000 C 
ENDROOT
BRANCH   1   2
ATOM      2  C   UNL     1      -0.404  11.224  19.768  0.00  0.00    +0.000 A 
ATOM      3  C   UNL     1       0.530  10.551  18.965  0.00  0.00    +0.000 A 
ATOM      4  C   UNL     1       1.162   9.391  19.423  0.00  0.00    +0.000 A 
ATOM      5  C   UNL     1       0.870   8.894  20.686  0.00  0.00    +0.000 A 
ATOM      6  F   UNL     1       1.477   7.784  21.115  0.00  0.00    +0.000 F 
ATOM      7  C   UNL     1      -0.057   9.531  21.499  0.00  0.00    +0.000 A 
ATOM      8  C   UNL     1      -0.697  10.685  21.039  0.00  0.00    +0.000 A 
ENDBRANCH   1   2
BRANCH   1  10
ATOM      9  O   UNL     1      -0.102  13.712  21.079  0.00  0.00    +0.000 OA
ATOM     10  C   UNL     1      -0.612  13.743  19.960  0.00  0.00    +0.000 C 
ATOM     11  N   UNL     1      -0.849  14.930  19.294  0.00  0.00    +0.000 N 
ATOM     12  H   UNL     1      -1.176  14.841  18.335  0.00  0.00    +0.000 HD
BRANCH  11  13
ATOM     13  C   UNL     1      -0.566  16.251  19.826  0.00  0.00    +0.000 C 
ATOM     14  C   UNL     1       0.949  16.474  19.853  0.00  0.00    +0.000 C 
ATOM     15  C   UNL     1       1.538  16.572  18.445  0.00  0.00    +0.000 C 
ATOM     16  C   UNL     1       0.861  17.652  17.610  0.00  0.00    +0.000 C 
ATOM     17  C   UNL     1      -0.665  17.573  17.628  0.00  0.00    +0.000 C 
ATOM     18  C   UNL     1      -1.254  17.365  19.023  0.00  0.00    +0.000 C 
ENDBRANCH  11  13
ENDBRANCH   1  10
BRANCH   1  19
ATOM     19  N   UNL     1      -2.649  12.214  19.067  0.00  0.00    +0.000 N 
ATOM     20  C   UNL     1      -3.597  12.624  20.031  0.00  0.00    +0.000 C 
ATOM     21  O   UNL     1      -3.233  13.100  21.107  0.00  0.00    +0.000 OA
BRANCH  20  22
ATOM     22  C   UNL     1      -5.053  12.477  19.788  0.00  0.00    +0.000 A 
ATOM     23  C   UNL     1      -5.936  11.986  20.742  0.00  0.00    +0.000 A 
ATOM     24  S   UNL     1      -7.514  11.995  20.069  0.00  0.00    +0.000 S 
ATOM     25  N   UNL     1      -6.992  12.641  18.624  0.00  0.00    +0.000 NA
ATOM     26  N   UNL     1      -5.690  12.870  18.611  0.00  0.00    +0.000 NA
ENDBRANCH  20  22
BRANCH  19  27
ATOM     27  C   UNL     1      -3.059  11.426  17.886  0.00  0.00    +0.000 C 
ATOM     28  C   UNL     1      -2.189  11.710  16.662  0.00  0.00    +0.000 C 
ATOM     29  C   UNL     1      -2.646  10.658  15.665  0.00  0.00    +0.000 C 
ATOM     30  C   UNL     1      -2.978   9.426  16.503  0.00  0.00    +0.000 C 
ATOM     31  C   UNL     1      -3.021   9.891  17.960  0.00  0.00    +0.000 C 
ENDBRANCH  19  27
ENDBRANCH   1  19
TORSDOF 6
ENDMDL
