MODEL 1
REMARK VINA RESULT:      -7.8      0.000      0.000
REMARK  Name = 
REMARK  2 active torsions:
REMARK  status: ('A' for Active; 'I' for Inactive)
REMARK    1  A    between atoms: C_4  and  C_5
REMARK    2  A    between atoms: C_13  and  C_14
REMARK                            x       y       z     vdW  Elec       q    Type
REMARK                         _______ _______ _______ _____ _____    ______ ____
ROOT
ATOM      1  C   UNL     1       2.030   8.252  18.563  0.00  0.00    +0.000 A 
ATOM      2  C   UNL     1       3.066   8.373  17.656  0.00  0.00    +0.000 A 
ATOM      3  C   UNL     1       3.914   7.292  17.430  0.00  0.00    +0.000 A 
ATOM      4  C   UNL     1       3.775   6.067  18.130  0.00  0.00    +0.000 A 
ATOM      5  C   UNL     1       2.680   5.915  19.038  0.00  0.00    +0.000 A 
ATOM      6  C   UNL     1       1.834   7.040  19.224  0.00  0.00    +0.000 A 
ENDROOT
BRANCH   4   7
ATOM      7  C   UNL     1       4.813   4.967  17.867  0.00  0.00    +0.000 C 
ATOM      8  C   UNL     1       6.309   5.431  17.665  0.00  0.00    +0.000 C 
ATOM      9  C   UNL     1       6.556   5.145  16.234  0.00  0.00    +0.000 A 
ATOM     10  N   UNL     1       7.526   5.336  15.379  0.00  0.00    +0.000 NA
ATOM     11  C   UNL     1       7.080   4.710  14.223  0.00  0.00    +0.000 A 
ATOM     12  C   UNL     1       5.830   4.146  14.399  0.00  0.00    +0.000 A 
ATOM     13  N   UNL     1       5.534   4.459  15.675  0.00  0.00    +0.000 N 
ATOM     14  C   UNL     1       4.461   4.156  16.585  0.00  0.00    +0.000 C 
ENDBRANCH   4   7
BRANCH   5  15
ATOM     15  C   UNL     1       2.330   4.679  19.793  0.00  0.00    +0.000 A 
ATOM     16  C   UNL     1       2.504   4.554  21.168  0.00  0.00    +0.000 A 
ATOM     17  N   UNL     1       2.119   3.492  21.919  0.00  0.00    +0.000 NA
ATOM     18  C   UNL     1       1.538   2.489  21.254  0.00  0.00    +0.000 A 
ATOM     19  N   UNL     1       1.310   2.466  19.937  0.00  0.00    +0.000 NA
ATOM     20  C   UNL     1       1.694   3.573  19.258  0.00  0.00    +0.000 A 
ENDBRANCH   5  15
TORSDOF 2
ENDMDL
MODEL 2
REMARK VINA RESULT:      -7.8      0.229      1.065
REMARK  Name = 
REMARK  2 active torsions:
REMARK  status: ('A' for Active; 'I' for Inactive)
REMARK    1  A    between atoms: C_4  and  C_5
REMARK    2  A    between atoms: C_13  and  C_14
REMARK                            x       y       z     vdW  Elec       q    Type
REMARK                         _______ _______ _______ _____ _____    ______ ____
ROOT
ATOM      1  C   UNL     1       1.909   8.383  18.649  0.00  0.00    +0.000 A 
ATOM      2  C   UNL     1       2.943   8.460  17.737  0.00  0.00    +0.000 A 
ATOM      3  C   UNL     1       3.761   7.353  17.528  0.00  0.00    +0.000 A 
ATOM      4  C   UNL     1       3.594   6.146  18.252  0.00  0.00    +0.000 A 
ATOM      5  C   UNL     1       2.499   6.040  19.166  0.00  0.00    +0.000 A 
ATOM      6  C   UNL     1       1.683   7.190  19.334  0.00  0.00    +0.000 A 
ENDROOT
BRANCH   4   7
ATOM      7  C   UNL     1       4.600   5.014  18.005  0.00  0.00    +0.000 C 
ATOM      8  C   UNL     1       6.119   5.427  17.868  0.00  0.00    +0.000 C 
ATOM      9  C   UNL     1       6.410   5.159  16.442  0.00  0.00    +0.000 A 
ATOM     10  N   UNL     1       7.418   5.331  15.628  0.00  0.00    +0.000 NA
ATOM     11  C   UNL     1       6.995   4.744  14.444  0.00  0.00    +0.000 A 
ATOM     12  C   UNL     1       5.719   4.222  14.561  0.00  0.00    +0.000 A 
ATOM     13  N   UNL     1       5.387   4.521  15.831  0.00  0.00    +0.000 N 
ATOM     14  C   UNL     1       4.269   4.240  16.694  0.00  0.00    +0.000 C 
ENDBRANCH   4   7
BRANCH   5  15
ATOM     15  C   UNL     1       2.119   4.828  19.946  0.00  0.00    +0.000 A 
ATOM     16  C   UNL     1       1.433   3.751  19.392  0.00  0.00    +0.000 A 
ATOM     17  N   UNL     1       1.144   2.588  20.026  0.00  0.00    +0.000 NA
ATOM     18  C   UNL     1       1.552   2.502  21.296  0.00  0.00    +0.000 A 
ATOM     19  N   UNL     1       2.214   3.453  21.961  0.00  0.00    +0.000 NA
ATOM     20  C   UNL     1       2.493   4.574  21.254  0.00  0.00    +0.000 A 
ENDBRANCH   5  15
TORSDOF 2
ENDMDL
MODEL 3
REMARK VINA RESULT:      -7.3      0.905      1.325
REMARK  Name = 
REMARK  2 active torsions:
REMARK  status: ('A' for Active; 'I' for Inactive)
REMARK    1  A    between atoms: C_4  and  C_5
REMARK    2  A    between atoms: C_13  and  C_14
REMARK                            x       y       z     vdW  Elec       q    Type
REMARK                         _______ _______ _______ _____ _____    ______ ____
ROOT
ATOM      1  C   UNL     1       2.182   8.132  18.188  0.00  0.00    +0.000 A 
ATOM      2  C   UNL     1       3.344   8.389  17.486  0.00  0.00    +0.000 A 
ATOM      3  C   UNL     1       4.242   7.353  17.237  0.00  0.00    +0.000 A 
ATOM      4  C   UNL     1       4.023   6.037  17.715  0.00  0.00    +0.000 A 
ATOM      5  C   UNL     1       2.803   5.750  18.404  0.00  0.00    +0.000 A 
ATOM      6  C   UNL     1       1.912   6.834  18.620  0.00  0.00    +0.000 A 
ENDROOT
BRANCH   4   7
ATOM      7  C   UNL     1       5.115   4.989  17.457  0.00  0.00    +0.000 C 
ATOM      8  C   UNL     1       6.567   5.530  17.154  0.00  0.00    +0.000 C 
ATOM      9  C   UNL     1       6.762   5.180  15.729  0.00  0.00    +0.000 A 
ATOM     10  N   UNL     1       7.676   5.381  14.816  0.00  0.00    +0.000 NA
ATOM     11  C   UNL     1       7.216   4.665  13.721  0.00  0.00    +0.000 A 
ATOM     12  C   UNL     1       6.013   4.037  13.990  0.00  0.00    +0.000 A 
ATOM     13  N   UNL     1       5.761   4.403  15.261  0.00  0.00    +0.000 N 
ATOM     14  C   UNL     1       4.754   4.086  16.240  0.00  0.00    +0.000 C 
ENDBRANCH   4   7
BRANCH   5  15
ATOM     15  C   UNL     1       2.367   4.413  18.900  0.00  0.00    +0.000 A 
ATOM     16  C   UNL     1       1.379   3.657  18.277  0.00  0.00    +0.000 A 
ATOM     17  N   UNL     1       1.008   2.401  18.628  0.00  0.00    +0.000 NA
ATOM     18  C   UNL     1       1.653   1.874  19.673  0.00  0.00    +0.000 A 
ATOM     19  N   UNL     1       2.617   2.481  20.370  0.00  0.00    +0.000 NA
ATOM     20  C   UNL     1       2.955   3.721  19.943  0.00  0.00    +0.000 A 
ENDBRANCH   5  15
TORSDOF 2
ENDMDL
MODEL 4
REMARK VINA RESULT:      -7.2      2.250      5.824
REMARK  Name = 
REMARK  2 active torsions:
REMARK  status: ('A' for Active; 'I' for Inactive)
REMARK    1  A    between atoms: C_4  and  C_5
REMARK    2  A    between atoms: C_13  and  C_14
REMARK                            x       y       z     vdW  Elec       q    Type
REMARK                         _______ _______ _______ _____ _____    ______ ____
ROOT
ATOM      1  C   UNL     1       1.609   2.151  18.375  0.00  0.00    +0.000 A 
ATOM      2  C   UNL     1       0.881   3.064  19.114  0.00  0.00    +0.000 A 
ATOM      3  C   UNL     1       1.408   4.330  19.356  0.00  0.00    +0.000 A 
ATOM      4  C   UNL     1       2.694   4.711  18.898  0.00  0.00    +0.000 A 
ATOM      5  C   UNL     1       3.437   3.790  18.095  0.00  0.00    +0.000 A 
ATOM      6  C   UNL     1       2.853   2.516  17.863  0.00  0.00    +0.000 A 
ENDROOT
BRANCH   4   7
ATOM      7  C   UNL     1       3.214   6.101  19.290  0.00  0.00    +0.000 C 
ATOM      8  C   UNL     1       2.394   6.887  20.387  0.00  0.00    +0.000 C 
ATOM      9  C   UNL     1       1.801   8.006  19.622  0.00  0.00    +0.000 A 
ATOM     10  N   UNL     1       0.968   8.985  19.859  0.00  0.00    +0.000 NA
ATOM     11  C   UNL     1       0.955   9.706  18.673  0.00  0.00    +0.000 A 
ATOM     12  C   UNL     1       1.787   9.142  17.724  0.00  0.00    +0.000 A 
ATOM     13  N   UNL     1       2.286   8.066  18.362  0.00  0.00    +0.000 N 
ATOM     14  C   UNL     1       3.262   7.052  18.058  0.00  0.00    +0.000 C 
ENDBRANCH   4   7
BRANCH   5  15
ATOM     15  C   UNL     1       4.761   4.047  17.460  0.00  0.00    +0.000 A 
ATOM     16  C   UNL     1       4.935   4.157  16.084  0.00  0.00    +0.000 A 
ATOM     17  N   UNL     1       6.094   4.481  15.458  0.00  0.00    +0.000 NA
ATOM     18  C   UNL     1       7.146   4.692  16.255  0.00  0.00    +0.000 A 
ATOM     19  N   UNL     1       7.132   4.616  17.589  0.00  0.00    +0.000 NA
ATOM     20  C   UNL     1       5.933   4.318  18.144  0.00  0.00    +0.000 A 
ENDBRANCH   5  15
TORSDOF 2
ENDMDL
MODEL 5
REMARK VINA RESULT:      -7.2      2.261      5.766
REMARK  Name = 
REMARK  2 active torsions:
REMARK  status: ('A' for Active; 'I' for Inactive)
REMARK    1  A    between atoms: C_4  and  C_5
REMARK    2  A    between atoms: C_13  and  C_14
REMARK                            x       y       z     vdW  Elec       q    Type
REMARK                         _______ _______ _______ _____ _____    ______ ____
ROOT
ATOM      1  C   UNL     1       1.655   2.226  18.375  0.00  0.00    +0.000 A 
ATOM      2  C   UNL     1       0.924   3.108  19.147  0.00  0.00    +0.000 A 
ATOM      3  C   UNL     1       1.427   4.381  19.402  0.00  0.00    +0.000 A 
ATOM      4  C   UNL     1       2.693   4.800  18.923  0.00  0.00    +0.000 A 
ATOM      5  C   UNL     1       3.439   3.912  18.085  0.00  0.00    +0.000 A 
ATOM      6  C   UNL     1       2.878   2.630  17.841  0.00  0.00    +0.000 A 
ENDROOT
BRANCH   4   7
ATOM      7  C   UNL     1       3.191   6.194  19.329  0.00  0.00    +0.000 C 
ATOM      8  C   UNL     1       2.347   6.963  20.421  0.00  0.00    +0.000 C 
ATOM      9  C   UNL     1       1.749   8.079  19.655  0.00  0.00    +0.000 A 
ATOM     10  N   UNL     1       0.901   9.046  19.888  0.00  0.00    +0.000 NA
ATOM     11  C   UNL     1       0.892   9.774  18.707  0.00  0.00    +0.000 A 
ATOM     12  C   UNL     1       1.743   9.227  17.765  0.00  0.00    +0.000 A 
ATOM     13  N   UNL     1       2.248   8.153  18.402  0.00  0.00    +0.000 N 
ATOM     14  C   UNL     1       3.241   7.154  18.104  0.00  0.00    +0.000 C 
ENDBRANCH   4   7
BRANCH   5  15
ATOM     15  C   UNL     1       4.741   4.212  17.425  0.00  0.00    +0.000 A 
ATOM     16  C   UNL     1       5.925   4.403  18.132  0.00  0.00    +0.000 A 
ATOM     17  N   UNL     1       7.151   4.586  17.583  0.00  0.00    +0.000 NA
ATOM     18  C   UNL     1       7.195   4.594  16.247  0.00  0.00    +0.000 A 
ATOM     19  N   UNL     1       6.144   4.429  15.439  0.00  0.00    +0.000 NA
ATOM     20  C   UNL     1       4.958   4.221  16.059  0.00  0.00    +0.000 A 
ENDBRANCH   5  15
TORSDOF 2
ENDMDL
MODEL 6
REMARK VINA RESULT:      -7.0      2.360      3.968
REMARK  Name = 
REMARK  2 active torsions:
REMARK  status: ('A' for Active; 'I' for Inactive)
REMARK    1  A    between atoms: C_4  and  C_5
REMARK    2  A    between atoms: C_13  and  C_14
REMARK                            x       y       z     vdW  Elec       q    Type
REMARK                         _______ _______ _______ _____ _____    ______ ____
ROOT
ATOM      1  C   UNL     1       1.496   3.444  20.421  0.00  0.00    +0.000 A 
ATOM      2  C   UNL     1       2.713   2.940  20.004  0.00  0.00    +0.000 A 
ATOM      3  C   UNL     1       3.699   3.812  19.549  0.00  0.00    +0.000 A 
ATOM      4  C   UNL     1       3.487   5.210  19.462  0.00  0.00    +0.000 A 
ATOM      5  C   UNL     1       2.248   5.747  19.934  0.00  0.00    +0.000 A 
ATOM      6  C   UNL     1       1.279   4.821  20.403  0.00  0.00    +0.000 A 
ENDROOT
BRANCH   4   7
ATOM      7  C   UNL     1       4.610   6.072  18.869  0.00  0.00    +0.000 C 
ATOM      8  C   UNL     1       4.430   6.550  17.375  0.00  0.00    +0.000 C 
ATOM      9  C   UNL     1       5.476   5.791  16.653  0.00  0.00    +0.000 A 
ATOM     10  N   UNL     1       5.850   5.632  15.412  0.00  0.00    +0.000 NA
ATOM     11  C   UNL     1       6.983   4.836  15.504  0.00  0.00    +0.000 A 
ATOM     12  C   UNL     1       7.277   4.518  16.818  0.00  0.00    +0.000 A 
ATOM     13  N   UNL     1       6.292   5.129  17.503  0.00  0.00    +0.000 N 
ATOM     14  C   UNL     1       5.973   5.318  18.894  0.00  0.00    +0.000 C 
ENDBRANCH   4   7
BRANCH   5  15
ATOM     15  C   UNL     1       1.884   7.191  19.999  0.00  0.00    +0.000 A 
ATOM     16  C   UNL     1       1.867   8.021  18.883  0.00  0.00    +0.000 A 
ATOM     17  N   UNL     1       1.457   9.314  18.866  0.00  0.00    +0.000 NA
ATOM     18  C   UNL     1       1.053   9.811  20.040  0.00  0.00    +0.000 A 
ATOM     19  N   UNL     1       1.019   9.137  21.193  0.00  0.00    +0.000 NA
ATOM     20  C   UNL     1       1.415   7.843  21.125  0.00  0.00    +0.000 A 
ENDBRANCH   5  15
TORSDOF 2
ENDMDL
MODEL 7
REMARK VINA RESULT:      -7.0      1.140      5.818
REMARK  Name = 
REMARK  2 active torsions:
REMARK  status: ('A' for Active; 'I' for Inactive)
REMARK    1  A    between atoms: C_4  and  C_5
REMARK    2  A    between atoms: C_13  and  C_14
REMARK                            x       y       z     vdW  Elec       q    Type
REMARK                         _______ _______ _______ _____ _____    ______ ____
ROOT
ATOM      1  C   UNL     1       3.156   8.578  17.633  0.00  0.00    +0.000 A 
ATOM      2  C   UNL     1       2.224   7.975  18.456  0.00  0.00    +0.000 A 
ATOM      3  C   UNL     1       2.234   6.591  18.611  0.00  0.00    +0.000 A 
ATOM      4  C   UNL     1       3.153   5.763  17.919  0.00  0.00    +0.000 A 
ATOM      5  C   UNL     1       4.151   6.380  17.099  0.00  0.00    +0.000 A 
ATOM      6  C   UNL     1       4.109   7.795  16.985  0.00  0.00    +0.000 A 
ENDROOT
BRANCH   4   7
ATOM      7  C   UNL     1       3.026   4.244  18.095  0.00  0.00    +0.000 C 
ATOM      8  C   UNL     1       1.570   3.669  18.302  0.00  0.00    +0.000 C 
ATOM      9  C   UNL     1       1.591   3.207  19.708  0.00  0.00    +0.000 A 
ATOM     10  N   UNL     1       0.733   2.706  20.558  0.00  0.00    +0.000 NA
ATOM     11  C   UNL     1       1.501   2.422  21.678  0.00  0.00    +0.000 A 
ATOM     12  C   UNL     1       2.827   2.765  21.488  0.00  0.00    +0.000 A 
ATOM     13  N   UNL     1       2.832   3.269  20.239  0.00  0.00    +0.000 N 
ATOM     14  C   UNL     1       3.838   3.750  19.329  0.00  0.00    +0.000 C 
ENDBRANCH   4   7
BRANCH   5  15
ATOM     15  C   UNL     1       5.244   5.678  16.368  0.00  0.00    +0.000 A 
ATOM     16  C   UNL     1       5.066   5.083  15.124  0.00  0.00    +0.000 A 
ATOM     17  N   UNL     1       6.042   4.514  14.374  0.00  0.00    +0.000 NA
ATOM     18  C   UNL     1       7.268   4.528  14.907  0.00  0.00    +0.000 A 
ATOM     19  N   UNL     1       7.589   5.057  16.091  0.00  0.00    +0.000 NA
ATOM     20  C   UNL     1       6.568   5.634  16.769  0.00  0.00    +0.000 A 
ENDBRANCH   5  15
TORSDOF 2
ENDMDL
MODEL 8
REMARK VINA RESULT:      -6.9      1.682      2.097
REMARK  Name = 
REMARK  2 active torsions:
REMARK  status: ('A' for Active; 'I' for Inactive)
REMARK    1  A    between atoms: C_4  and  C_5
REMARK    2  A    between atoms: C_13  and  C_14
REMARK                            x       y       z     vdW  Elec       q    Type
REMARK                         _______ _______ _______ _____ _____    ______ ____
ROOT
ATOM      1  C   UNL     1       1.222   8.715  20.136  0.00  0.00    +0.000 A 
ATOM      2  C   UNL     1       1.879   9.094  18.981  0.00  0.00    +0.000 A 
ATOM      3  C   UNL     1       2.558   8.138  18.229  0.00  0.00    +0.000 A 
ATOM      4  C   UNL     1       2.632   6.780  18.629  0.00  0.00    +0.000 A 
ATOM      5  C   UNL     1       1.919   6.368  19.798  0.00  0.00    +0.000 A 
ATOM      6  C   UNL     1       1.229   7.376  20.523  0.00  0.00    +0.000 A 
ENDROOT
BRANCH   4   7
ATOM      7  C   UNL     1       3.475   5.824  17.773  0.00  0.00    +0.000 C 
ATOM      8  C   UNL     1       4.264   4.690  18.537  0.00  0.00    +0.000 C 
ATOM      9  C   UNL     1       5.678   5.095  18.368  0.00  0.00    +0.000 A 
ATOM     10  N   UNL     1       6.843   4.680  18.788  0.00  0.00    +0.000 NA
ATOM     11  C   UNL     1       7.747   5.505  18.135  0.00  0.00    +0.000 A 
ATOM     12  C   UNL     1       7.104   6.422  17.323  0.00  0.00    +0.000 A 
ATOM     13  N   UNL     1       5.803   6.135  17.515  0.00  0.00    +0.000 N 
ATOM     14  C   UNL     1       4.556   6.598  16.962  0.00  0.00    +0.000 C 
ENDBRANCH   4   7
BRANCH   5  15
ATOM     15  C   UNL     1       1.813   4.976  20.319  0.00  0.00    +0.000 A 
ATOM     16  C   UNL     1       2.432   4.554  21.492  0.00  0.00    +0.000 A 
ATOM     17  N   UNL     1       2.297   3.330  22.060  0.00  0.00    +0.000 NA
ATOM     18  C   UNL     1       1.507   2.471  21.409  0.00  0.00    +0.000 A 
ATOM     19  N   UNL     1       0.854   2.731  20.272  0.00  0.00    +0.000 NA
ATOM     20  C   UNL     1       1.014   3.983  19.781  0.00  0.00    +0.000 A 
ENDBRANCH   5  15
TORSDOF 2
ENDMDL
MODEL 9
REMARK VINA RESULT:      -6.9      1.209      5.660
REMARK  Name = 
REMARK  2 active torsions:
REMARK  status: ('A' for Active; 'I' for Inactive)
REMARK    1  A    between atoms: C_4  and  C_5
REMARK    2  A    between atoms: C_13  and  C_14
REMARK                            x       y       z     vdW  Elec       q    Type
REMARK                         _______ _______ _______ _____ _____    ______ ____
ROOT
ATOM      1  C   UNL     1       2.941   8.742  17.748  0.00  0.00    +0.000 A 
ATOM      2  C   UNL     1       1.998   8.082  18.512  0.00  0.00    +0.000 A 
ATOM      3  C   UNL     1       2.065   6.697  18.644  0.00  0.00    +0.000 A 
ATOM      4  C   UNL     1       3.056   5.925  17.988  0.00  0.00    +0.000 A 
ATOM      5  C   UNL     1       4.064   6.602  17.231  0.00  0.00    +0.000 A 
ATOM      6  C   UNL     1       3.962   8.015  17.137  0.00  0.00    +0.000 A 
ENDROOT
BRANCH   4   7
ATOM      7  C   UNL     1       2.991   4.399  18.133  0.00  0.00    +0.000 C 
ATOM      8  C   UNL     1       1.557   3.756  18.290  0.00  0.00    +0.000 C 
ATOM      9  C   UNL     1       1.561   3.269  19.687  0.00  0.00    +0.000 A 
ATOM     10  N   UNL     1       0.704   2.714  20.504  0.00  0.00    +0.000 NA
ATOM     11  C   UNL     1       1.454   2.443  21.639  0.00  0.00    +0.000 A 
ATOM     12  C   UNL     1       2.768   2.847  21.491  0.00  0.00    +0.000 A 
ATOM     13  N   UNL     1       2.784   3.374  20.253  0.00  0.00    +0.000 N 
ATOM     14  C   UNL     1       3.792   3.916  19.379  0.00  0.00    +0.000 C 
ENDBRANCH   4   7
BRANCH   5  15
ATOM     15  C   UNL     1       5.225   5.965  16.547  0.00  0.00    +0.000 A 
ATOM     16  C   UNL     1       6.406   5.635  17.204  0.00  0.00    +0.000 A 
ATOM     17  N   UNL     1       7.456   4.974  16.656  0.00  0.00    +0.000 NA
ATOM     18  C   UNL     1       7.323   4.635  15.370  0.00  0.00    +0.000 A 
ATOM     19  N   UNL     1       6.253   4.889  14.612  0.00  0.00    +0.000 NA
ATOM     20  C   UNL     1       5.233   5.526  15.235  0.00  0.00    +0.000 A 
ENDBRANCH   5  15
TORSDOF 2
ENDMDL
