MODEL 1
REMARK VINA RESULT:      -8.1      0.000      0.000
REMARK  Name = 
REMARK  6 active torsions:
REMARK  status: ('A' for Active; 'I' for Inactive)
REMARK    1  A    between atoms: S_2  and  N_4
REMARK    2  A    between atoms: S_2  and  C_20
REMARK    3  A    between atoms: N_4  and  C_5
REMARK    4  A    between atoms: C_5  and  C_6
REMARK    5  A    between atoms: C_6  and  C_7
REMARK    6  A    between atoms: C_6  and  N_13
REMARK                            x       y       z     vdW  Elec       q    Type
REMARK                         _______ _______ _______ _____ _____    ______ ____
ROOT
ATOM      1  C   UNL     1       2.226   6.943  18.109  0.00  0.00    +0.000 C 
ENDROOT
BRANCH   1   2
ATOM      2  N   UNL     1       2.079   8.163  18.932  0.00  0.00    +0.000 NA
ATOM      3  H   UNL     1       1.868   7.989  19.915  0.00  0.00    +0.000 HD
BRANCH   2   5
ATOM      4  O   UNL     1       2.338  10.463  17.928  0.00  0.00    +0.000 OA
ATOM      5  S   UNL     1       1.320   9.495  18.263  0.00  0.00    +0.000 S 
ATOM      6  O   UNL     1       0.343   9.034  17.304  0.00  0.00    +0.000 OA
BRANCH   5   7
ATOM      7  C   UNL     1       0.457  10.134  19.672  0.00  0.00    +0.000 A 
ATOM      8  C   UNL     1      -0.397  11.226  19.486  0.00  0.00    +0.000 A 
ATOM      9  C   UNL     1      -1.059  11.758  20.584  0.00  0.00    +0.000 A 
ATOM     10 CL   UNL     1      -2.080  13.125  20.378  0.00  0.00    +0.000 Cl
ATOM     11  C   UNL     1      -0.889  11.202  21.850  0.00  0.00    +0.000 A 
ATOM     12  C   UNL     1      -0.047  10.102  22.014  0.00  0.00    +0.000 A 
ATOM     13 CL   UNL     1       0.160   9.416  23.578  0.00  0.00    +0.000 Cl
ATOM     14  C   UNL     1       0.635   9.557  20.930  0.00  0.00    +0.000 A 
ENDBRANCH   5   7
ENDBRANCH   2   5
ENDBRANCH   1   2
BRANCH   1  15
ATOM     15  C   UNL     1       3.240   5.930  18.750  0.00  0.00    +0.000 C 
BRANCH  15  16
ATOM     16  N   UNL     1       4.268   5.382  17.788  0.00  0.00    +0.000 NA
ATOM     17  C   UNL     1       4.740   6.431  16.864  0.00  0.00    +0.000 C 
ATOM     18  C   UNL     1       5.425   5.897  15.601  0.00  0.00    +0.000 C 
ATOM     19  C   UNL     1       6.912   5.606  15.743  0.00  0.00    +0.000 C 
ATOM     20  C   UNL     1       7.238   4.541  16.775  0.00  0.00    +0.000 C 
ATOM     21  C   UNL     1       6.835   4.955  18.180  0.00  0.00    +0.000 C 
ATOM     22  C   UNL     1       5.363   4.696  18.518  0.00  0.00    +0.000 C 
ENDBRANCH  15  16
BRANCH  15  23
ATOM     23  C   UNL     1       2.426   4.859  19.502  0.00  0.00    +0.000 A 
ATOM     24  C   UNL     1       2.540   4.666  20.888  0.00  0.00    +0.000 A 
ATOM     25  C   UNL     1       1.844   3.639  21.528  0.00  0.00    +0.000 A 
ATOM     26  C   UNL     1       0.996   2.811  20.798  0.00  0.00    +0.000 A 
ATOM     27  C   UNL     1       0.836   3.015  19.429  0.00  0.00    +0.000 A 
ATOM     28  C   UNL     1       1.548   4.028  18.785  0.00  0.00    +0.000 A 
ENDBRANCH  15  23
ENDBRANCH   1  15
TORSDOF 6
ENDMDL
MODEL 2
REMARK VINA RESULT:      -8.0      0.269      1.757
REMARK  Name = 
REMARK  6 active torsions:
REMARK  status: ('A' for Active; 'I' for Inactive)
REMARK    1  A    between atoms: S_2  and  N_4
REMARK    2  A    between atoms: S_2  and  C_20
REMARK    3  A    between atoms: N_4  and  C_5
REMARK    4  A    between atoms: C_5  and  C_6
REMARK    5  A    between atoms: C_6  and  C_7
REMARK    6  A    between atoms: C_6  and  N_13
REMARK                            x       y       z     vdW  Elec       q    Type
REMARK                         _______ _______ _______ _____ _____    ______ ____
ROOT
ATOM      1  C   UNL     1       2.264   6.885  18.260  0.00  0.00    +0.000 C 
ENDROOT
BRANCH   1   2
ATOM      2  N   UNL     1       2.184   8.194  18.944  0.00  0.00    +0.000 NA
ATOM      3  H   UNL     1       2.034   8.137  19.952  0.00  0.00    +0.000 HD
BRANCH   2   5
ATOM      4  O   UNL     1       2.398  10.408  17.755  0.00  0.00    +0.000 OA
ATOM      5  S   UNL     1       1.398   9.454  18.174  0.00  0.00    +0.000 S 
ATOM      6  O   UNL     1       0.424   8.900  17.263  0.00  0.00    +0.000 OA
BRANCH   5   7
ATOM      7  C   UNL     1       0.532  10.191  19.533  0.00  0.00    +0.000 A 
ATOM      8  C   UNL     1       0.663   9.606  20.796  0.00  0.00    +0.000 A 
ATOM      9  C   UNL     1      -0.032  10.153  21.867  0.00  0.00    +0.000 A 
ATOM     10 CL   UNL     1       0.087   9.421  23.417  0.00  0.00    +0.000 Cl
ATOM     11  C   UNL     1      -0.833  11.279  21.689  0.00  0.00    +0.000 A 
ATOM     12  C   UNL     1      -0.937  11.860  20.425  0.00  0.00    +0.000 A 
ATOM     13 CL   UNL     1      -1.926  13.251  20.208  0.00  0.00    +0.000 Cl
ATOM     14  C   UNL     1      -0.258  11.324  19.335  0.00  0.00    +0.000 A 
ENDBRANCH   5   7
ENDBRANCH   2   5
ENDBRANCH   1   2
BRANCH   1  15
ATOM     15  C   UNL     1       3.271   5.916  18.977  0.00  0.00    +0.000 C 
BRANCH  15  16
ATOM     16  N   UNL     1       4.387   5.409  18.092  0.00  0.00    +0.000 NA
ATOM     17  C   UNL     1       4.749   6.409  17.071  0.00  0.00    +0.000 C 
ATOM     18  C   UNL     1       5.531   5.841  15.881  0.00  0.00    +0.000 C 
ATOM     19  C   UNL     1       7.038   5.759  16.075  0.00  0.00    +0.000 C 
ATOM     20  C   UNL     1       7.466   4.855  17.217  0.00  0.00    +0.000 C 
ATOM     21  C   UNL     1       6.975   5.355  18.565  0.00  0.00    +0.000 C 
ATOM     22  C   UNL     1       5.538   4.947  18.906  0.00  0.00    +0.000 C 
ENDBRANCH  15  16
BRANCH  15  23
ATOM     23  C   UNL     1       2.452   4.816  19.676  0.00  0.00    +0.000 A 
ATOM     24  C   UNL     1       2.600   4.522  21.041  0.00  0.00    +0.000 A 
ATOM     25  C   UNL     1       1.895   3.470  21.629  0.00  0.00    +0.000 A 
ATOM     26  C   UNL     1       1.006   2.716  20.869  0.00  0.00    +0.000 A 
ATOM     27  C   UNL     1       0.813   3.020  19.523  0.00  0.00    +0.000 A 
ATOM     28  C   UNL     1       1.533   4.058  18.930  0.00  0.00    +0.000 A 
ENDBRANCH  15  23
ENDBRANCH   1  15
TORSDOF 6
ENDMDL
MODEL 3
REMARK VINA RESULT:      -8.0      1.859      2.962
REMARK  Name = 
REMARK  6 active torsions:
REMARK  status: ('A' for Active; 'I' for Inactive)
REMARK    1  A    between atoms: S_2  and  N_4
REMARK    2  A    between atoms: S_2  and  C_20
REMARK    3  A    between atoms: N_4  and  C_5
REMARK    4  A    between atoms: C_5  and  C_6
REMARK    5  A    between atoms: C_6  and  C_7
REMARK    6  A    between atoms: C_6  and  N_13
REMARK                            x       y       z     vdW  Elec       q    Type
REMARK                         _______ _______ _______ _____ _____    ______ ____
ROOT
ATOM      1  C   UNL     1       2.424   7.770  17.693  0.00  0.00    +0.000 C 
ENDROOT
BRANCH   1   2
ATOM      2  N   UNL     1       1.233   8.274  18.410  0.00  0.00    +0.000 NA
ATOM      3  H   UNL     1       0.344   7.912  18.062  0.00  0.00    +0.000 HD
BRANCH   2   5
ATOM      4  O   UNL     1       1.257   9.890  20.347  0.00  0.00    +0.000 OA
ATOM      5  S   UNL     1       1.210   9.872  18.903  0.00  0.00    +0.000 S 
ATOM      6  O   UNL     1       2.139  10.619  18.087  0.00  0.00    +0.000 OA
BRANCH   5   7
ATOM      7  C   UNL     1      -0.435  10.343  18.445  0.00  0.00    +0.000 A 
ATOM      8  C   UNL     1      -1.133  11.214  19.287  0.00  0.00    +0.000 A 
ATOM      9  C   UNL     1      -2.434  11.570  18.958  0.00  0.00    +0.000 A 
ATOM     10 CL   UNL     1      -3.319  12.608  20.005  0.00  0.00    +0.000 Cl
ATOM     11  C   UNL     1      -3.030  11.082  17.798  0.00  0.00    +0.000 A 
ATOM     12  C   UNL     1      -2.312  10.228  16.960  0.00  0.00    +0.000 A 
ATOM     13 CL   UNL     1      -3.049   9.627  15.526  0.00  0.00    +0.000 Cl
ATOM     14  C   UNL     1      -1.010   9.848  17.273  0.00  0.00    +0.000 A 
ENDBRANCH   5   7
ENDBRANCH   2   5
ENDBRANCH   1   2
BRANCH   1  15
ATOM     15  C   UNL     1       3.304   6.846  18.607  0.00  0.00    +0.000 C 
BRANCH  15  16
ATOM     16  N   UNL     1       4.692   6.576  18.072  0.00  0.00    +0.000 NA
ATOM     17  C   UNL     1       5.314   5.433  18.766  0.00  0.00    +0.000 C 
ATOM     18  C   UNL     1       6.838   5.360  18.619  0.00  0.00    +0.000 C 
ATOM     19  C   UNL     1       7.336   4.643  17.372  0.00  0.00    +0.000 C 
ATOM     20  C   UNL     1       6.907   5.296  16.071  0.00  0.00    +0.000 C 
ATOM     21  C   UNL     1       5.399   5.288  15.889  0.00  0.00    +0.000 C 
ATOM     22  C   UNL     1       4.671   6.437  16.595  0.00  0.00    +0.000 C 
ENDBRANCH  15  16
BRANCH  15  23
ATOM     23  C   UNL     1       2.483   5.585  18.934  0.00  0.00    +0.000 A 
ATOM     24  C   UNL     1       2.054   4.690  17.941  0.00  0.00    +0.000 A 
ATOM     25  C   UNL     1       1.249   3.595  18.261  0.00  0.00    +0.000 A 
ATOM     26  C   UNL     1       0.890   3.358  19.585  0.00  0.00    +0.000 A 
ATOM     27  C   UNL     1       1.342   4.209  20.590  0.00  0.00    +0.000 A 
ATOM     28  C   UNL     1       2.129   5.316  20.268  0.00  0.00    +0.000 A 
ENDBRANCH  15  23
ENDBRANCH   1  15
TORSDOF 6
ENDMDL
MODEL 4
REMARK VINA RESULT:      -8.0      1.870      2.933
REMARK  Name = 
REMARK  6 active torsions:
REMARK  status: ('A' for Active; 'I' for Inactive)
REMARK    1  A    between atoms: S_2  and  N_4
REMARK    2  A    between atoms: S_2  and  C_20
REMARK    3  A    between atoms: N_4  and  C_5
REMARK    4  A    between atoms: C_5  and  C_6
REMARK    5  A    between atoms: C_6  and  C_7
REMARK    6  A    between atoms: C_6  and  N_13
REMARK                            x       y       z     vdW  Elec       q    Type
REMARK                         _______ _______ _______ _____ _____    ______ ____
ROOT
ATOM      1  C   UNL     1       2.405   7.850  17.786  0.00  0.00    +0.000 C 
ENDROOT
BRANCH   1   2
ATOM      2  N   UNL     1       1.220   8.350  18.517  0.00  0.00    +0.000 NA
ATOM      3  H   UNL     1       0.330   7.967  18.195  0.00  0.00    +0.000 HD
BRANCH   2   5
ATOM      4  O   UNL     1       1.256  10.005  20.421  0.00  0.00    +0.000 OA
ATOM      5  S   UNL     1       1.181   9.957  18.979  0.00  0.00    +0.000 S 
ATOM      6  O   UNL     1       2.083  10.701  18.131  0.00  0.00    +0.000 OA
BRANCH   5   7
ATOM      7  C   UNL     1      -0.479  10.393  18.543  0.00  0.00    +0.000 A 
ATOM      8  C   UNL     1      -1.011   9.872  17.359  0.00  0.00    +0.000 A 
ATOM      9  C   UNL     1      -2.301  10.227  16.986  0.00  0.00    +0.000 A 
ATOM     10 CL   UNL     1      -2.953   9.626  15.514  0.00  0.00    +0.000 Cl
ATOM     11  C   UNL     1      -3.061  11.075  17.788  0.00  0.00    +0.000 A 
ATOM     12  C   UNL     1      -2.520  11.571  18.975  0.00  0.00    +0.000 A 
ATOM     13 CL   UNL     1      -3.461  12.618  19.965  0.00  0.00    +0.000 Cl
ATOM     14  C   UNL     1      -1.226  11.238  19.365  0.00  0.00    +0.000 A 
ENDBRANCH   5   7
ENDBRANCH   2   5
ENDBRANCH   1   2
BRANCH   1  15
ATOM     15  C   UNL     1       3.277   6.897  18.678  0.00  0.00    +0.000 C 
BRANCH  15  16
ATOM     16  N   UNL     1       4.665   6.633  18.139  0.00  0.00    +0.000 NA
ATOM     17  C   UNL     1       5.277   5.466  18.802  0.00  0.00    +0.000 C 
ATOM     18  C   UNL     1       6.801   5.387  18.657  0.00  0.00    +0.000 C 
ATOM     19  C   UNL     1       7.298   4.703  17.392  0.00  0.00    +0.000 C 
ATOM     20  C   UNL     1       6.877   5.396  16.108  0.00  0.00    +0.000 C 
ATOM     21  C   UNL     1       5.370   5.403  15.923  0.00  0.00    +0.000 C 
ATOM     22  C   UNL     1       4.647   6.536  16.659  0.00  0.00    +0.000 C 
ENDBRANCH  15  16
BRANCH  15  23
ATOM     23  C   UNL     1       2.448   5.632  18.969  0.00  0.00    +0.000 A 
ATOM     24  C   UNL     1       2.025   4.761  17.952  0.00  0.00    +0.000 A 
ATOM     25  C   UNL     1       1.214   3.663  18.241  0.00  0.00    +0.000 A 
ATOM     26  C   UNL     1       0.839   3.399  19.555  0.00  0.00    +0.000 A 
ATOM     27  C   UNL     1       1.284   4.227  20.583  0.00  0.00    +0.000 A 
ATOM     28  C   UNL     1       2.078   5.337  20.293  0.00  0.00    +0.000 A 
ENDBRANCH  15  23
ENDBRANCH   1  15
TORSDOF 6
ENDMDL
MODEL 5
REMARK VINA RESULT:      -8.0      0.431      1.021
REMARK  Name = 
REMARK  6 active torsions:
REMARK  status: ('A' for Active; 'I' for Inactive)
REMARK    1  A    between atoms: S_2  and  N_4
REMARK    2  A    between atoms: S_2  and  C_20
REMARK    3  A    between atoms: N_4  and  C_5
REMARK    4  A    between atoms: C_5  and  C_6
REMARK    5  A    between atoms: C_6  and  C_7
REMARK    6  A    between atoms: C_6  and  N_13
REMARK                            x       y       z     vdW  Elec       q    Type
REMARK                         _______ _______ _______ _____ _____    ______ ____
ROOT
ATOM      1  C   UNL     1       2.380   6.792  18.095  0.00  0.00    +0.000 C 
ENDROOT
BRANCH   1   2
ATOM      2  N   UNL     1       2.217   8.031  18.886  0.00  0.00    +0.000 NA
ATOM      3  H   UNL     1       1.979   7.880  19.867  0.00  0.00    +0.000 HD
BRANCH   2   5
ATOM      4  O   UNL     1       2.524  10.222  17.672  0.00  0.00    +0.000 OA
ATOM      5  S   UNL     1       1.483   9.351  18.166  0.00  0.00    +0.000 S 
ATOM      6  O   UNL     1       0.406   8.878  17.329  0.00  0.00    +0.000 OA
BRANCH   5   7
ATOM      7  C   UNL     1       0.778  10.156  19.578  0.00  0.00    +0.000 A 
ATOM      8  C   UNL     1       0.290  11.457  19.423  0.00  0.00    +0.000 A 
ATOM      9  C   UNL     1      -0.240  12.114  20.526  0.00  0.00    +0.000 A 
ATOM     10 CL   UNL     1      -0.806  13.728  20.360  0.00  0.00    +0.000 Cl
ATOM     11  C   UNL     1      -0.301  11.480  21.765  0.00  0.00    +0.000 A 
ATOM     12  C   UNL     1       0.174  10.174  21.896  0.00  0.00    +0.000 A 
ATOM     13 CL   UNL     1       0.096   9.393  23.427  0.00  0.00    +0.000 Cl
ATOM     14  C   UNL     1       0.718   9.499  20.808  0.00  0.00    +0.000 A 
ENDBRANCH   5   7
ENDBRANCH   2   5
ENDBRANCH   1   2
BRANCH   1  15
ATOM     15  C   UNL     1       3.380   5.794  18.780  0.00  0.00    +0.000 C 
BRANCH  15  16
ATOM     16  N   UNL     1       4.438   5.237  17.855  0.00  0.00    +0.000 NA
ATOM     17  C   UNL     1       4.772   6.203  16.791  0.00  0.00    +0.000 C 
ATOM     18  C   UNL     1       5.481   5.585  15.580  0.00  0.00    +0.000 C 
ATOM     19  C   UNL     1       6.993   5.471  15.702  0.00  0.00    +0.000 C 
ATOM     20  C   UNL     1       7.456   4.586  16.846  0.00  0.00    +0.000 C 
ATOM     21  C   UNL     1       7.045   5.131  18.202  0.00  0.00    +0.000 C 
ATOM     22  C   UNL     1       5.617   4.767  18.624  0.00  0.00    +0.000 C 
ENDBRANCH  15  16
BRANCH  15  23
ATOM     23  C   UNL     1       2.551   4.731  19.524  0.00  0.00    +0.000 A 
ATOM     24  C   UNL     1       1.562   3.966  18.885  0.00  0.00    +0.000 A 
ATOM     25  C   UNL     1       0.779   3.062  19.604  0.00  0.00    +0.000 A 
ATOM     26  C   UNL     1       0.993   2.884  20.967  0.00  0.00    +0.000 A 
ATOM     27  C   UNL     1       1.998   3.602  21.611  0.00  0.00    +0.000 A 
ATOM     28  C   UNL     1       2.768   4.521  20.897  0.00  0.00    +0.000 A 
ENDBRANCH  15  23
ENDBRANCH   1  15
TORSDOF 6
ENDMDL
MODEL 6
REMARK VINA RESULT:      -7.9      0.862      2.340
REMARK  Name = 
REMARK  6 active torsions:
REMARK  status: ('A' for Active; 'I' for Inactive)
REMARK    1  A    between atoms: S_2  and  N_4
REMARK    2  A    between atoms: S_2  and  C_20
REMARK    3  A    between atoms: N_4  and  C_5
REMARK    4  A    between atoms: C_5  and  C_6
REMARK    5  A    between atoms: C_6  and  C_7
REMARK    6  A    between atoms: C_6  and  N_13
REMARK                            x       y       z     vdW  Elec       q    Type
REMARK                         _______ _______ _______ _____ _____    ______ ____
ROOT
ATOM      1  C   UNL     1       2.416   7.298  18.105  0.00  0.00    +0.000 C 
ENDROOT
BRANCH   1   2
ATOM      2  N   UNL     1       2.020   8.444  18.951  0.00  0.00    +0.000 NA
ATOM      3  H   UNL     1       1.648   8.187  19.866  0.00  0.00    +0.000 HD
BRANCH   2   5
ATOM      4  O   UNL     1       2.323  10.579  17.641  0.00  0.00    +0.000 OA
ATOM      5  S   UNL     1       1.286   9.760  18.225  0.00  0.00    +0.000 S 
ATOM      6  O   UNL     1       0.149   9.293  17.467  0.00  0.00    +0.000 OA
BRANCH   5   7
ATOM      7  C   UNL     1       0.686  10.637  19.643  0.00  0.00    +0.000 A 
ATOM      8  C   UNL     1       0.531   9.930  20.840  0.00  0.00    +0.000 A 
ATOM      9  C   UNL     1       0.034  10.595  21.954  0.00  0.00    +0.000 A 
ATOM     10 CL   UNL     1      -0.200   9.730  23.421  0.00  0.00    +0.000 Cl
ATOM     11  C   UNL     1      -0.287  11.948  21.886  0.00  0.00    +0.000 A 
ATOM     12  C   UNL     1      -0.108  12.641  20.687  0.00  0.00    +0.000 A 
ATOM     13 CL   UNL     1      -0.504  14.313  20.606  0.00  0.00    +0.000 Cl
ATOM     14  C   UNL     1       0.379  11.995  19.555  0.00  0.00    +0.000 A 
ENDBRANCH   5   7
ENDBRANCH   2   5
ENDBRANCH   1   2
BRANCH   1  15
ATOM     15  C   UNL     1       3.360   6.307  18.875  0.00  0.00    +0.000 C 
BRANCH  15  16
ATOM     16  N   UNL     1       4.720   6.121  18.243  0.00  0.00    +0.000 NA
ATOM     17  C   UNL     1       5.602   5.320  19.113  0.00  0.00    +0.000 C 
ATOM     18  C   UNL     1       7.095   5.448  18.785  0.00  0.00    +0.000 C 
ATOM     19  C   UNL     1       7.604   4.506  17.704  0.00  0.00    +0.000 C 
ATOM     20  C   UNL     1       6.948   4.705  16.350  0.00  0.00    +0.000 C 
ATOM     21  C   UNL     1       5.458   4.414  16.381  0.00  0.00    +0.000 C 
ATOM     22  C   UNL     1       4.595   5.584  16.866  0.00  0.00    +0.000 C 
ENDBRANCH  15  16
BRANCH  15  23
ATOM     23  C   UNL     1       2.578   5.002  19.118  0.00  0.00    +0.000 A 
ATOM     24  C   UNL     1       2.019   4.255  18.069  0.00  0.00    +0.000 A 
ATOM     25  C   UNL     1       1.254   3.117  18.327  0.00  0.00    +0.000 A 
ATOM     26  C   UNL     1       1.065   2.687  19.637  0.00  0.00    +0.000 A 
ATOM     27  C   UNL     1       1.647   3.390  20.689  0.00  0.00    +0.000 A 
ATOM     28  C   UNL     1       2.394   4.540  20.433  0.00  0.00    +0.000 A 
ENDBRANCH  15  23
ENDBRANCH   1  15
TORSDOF 6
ENDMDL
MODEL 7
REMARK VINA RESULT:      -7.9      0.682      1.331
REMARK  Name = 
REMARK  6 active torsions:
REMARK  status: ('A' for Active; 'I' for Inactive)
REMARK    1  A    between atoms: S_2  and  N_4
REMARK    2  A    between atoms: S_2  and  C_20
REMARK    3  A    between atoms: N_4  and  C_5
REMARK    4  A    between atoms: C_5  and  C_6
REMARK    5  A    between atoms: C_6  and  C_7
REMARK    6  A    between atoms: C_6  and  N_13
REMARK                            x       y       z     vdW  Elec       q    Type
REMARK                         _______ _______ _______ _____ _____    ______ ____
ROOT
ATOM      1  C   UNL     1       2.443   7.577  18.106  0.00  0.00    +0.000 C 
ENDROOT
BRANCH   1   2
ATOM      2  N   UNL     1       1.790   8.509  19.050  0.00  0.00    +0.000 NA
ATOM      3  H   UNL     1       1.287   8.056  19.814  0.00  0.00    +0.000 HD
BRANCH   2   5
ATOM      4  O   UNL     1       2.122  10.826  18.107  0.00  0.00    +0.000 OA
ATOM      5  S   UNL     1       1.071   9.893  18.443  0.00  0.00    +0.000 S 
ATOM      6  O   UNL     1       0.049   9.504  17.499  0.00  0.00    +0.000 OA
BRANCH   5   7
ATOM      7  C   UNL     1       0.277  10.525  19.894  0.00  0.00    +0.000 A 
ATOM      8  C   UNL     1      -0.431  11.727  19.791  0.00  0.00    +0.000 A 
ATOM      9  C   UNL     1      -1.035  12.252  20.925  0.00  0.00    +0.000 A 
ATOM     10 CL   UNL     1      -1.874  13.749  20.822  0.00  0.00    +0.000 Cl
ATOM     11  C   UNL     1      -0.954  11.583  22.144  0.00  0.00    +0.000 A 
ATOM     12  C   UNL     1      -0.259  10.376  22.224  0.00  0.00    +0.000 A 
ATOM     13 CL   UNL     1      -0.161   9.551  23.731  0.00  0.00    +0.000 Cl
ATOM     14  C   UNL     1       0.364   9.834  21.104  0.00  0.00    +0.000 A 
ENDBRANCH   5   7
ENDBRANCH   2   5
ENDBRANCH   1   2
BRANCH   1  15
ATOM     15  C   UNL     1       3.362   6.545  18.852  0.00  0.00    +0.000 C 
BRANCH  15  16
ATOM     16  N   UNL     1       4.711   6.329  18.207  0.00  0.00    +0.000 NA
ATOM     17  C   UNL     1       5.484   5.301  18.928  0.00  0.00    +0.000 C 
ATOM     18  C   UNL     1       6.990   5.325  18.638  0.00  0.00    +0.000 C 
ATOM     19  C   UNL     1       7.427   4.537  17.413  0.00  0.00    +0.000 C 
ATOM     20  C   UNL     1       6.829   5.037  16.110  0.00  0.00    +0.000 C 
ATOM     21  C   UNL     1       5.316   4.904  16.079  0.00  0.00    +0.000 C 
ATOM     22  C   UNL     1       4.566   6.056  16.756  0.00  0.00    +0.000 C 
ENDBRANCH  15  16
BRANCH  15  23
ATOM     23  C   UNL     1       2.542   5.260  19.078  0.00  0.00    +0.000 A 
ATOM     24  C   UNL     1       2.281   4.753  20.361  0.00  0.00    +0.000 A 
ATOM     25  C   UNL     1       1.597   3.547  20.529  0.00  0.00    +0.000 A 
ATOM     26  C   UNL     1       1.135   2.847  19.419  0.00  0.00    +0.000 A 
ATOM     27  C   UNL     1       1.347   3.357  18.140  0.00  0.00    +0.000 A 
ATOM     28  C   UNL     1       2.048   4.551  17.970  0.00  0.00    +0.000 A 
ENDBRANCH  15  23
ENDBRANCH   1  15
TORSDOF 6
ENDMDL
MODEL 8
REMARK VINA RESULT:      -7.8      0.716      1.562
REMARK  Name = 
REMARK  6 active torsions:
REMARK  status: ('A' for Active; 'I' for Inactive)
REMARK    1  A    between atoms: S_2  and  N_4
REMARK    2  A    between atoms: S_2  and  C_20
REMARK    3  A    between atoms: N_4  and  C_5
REMARK    4  A    between atoms: C_5  and  C_6
REMARK    5  A    between atoms: C_6  and  C_7
REMARK    6  A    between atoms: C_6  and  N_13
REMARK                            x       y       z     vdW  Elec       q    Type
REMARK                         _______ _______ _______ _____ _____    ______ ____
ROOT
ATOM      1  C   UNL     1       2.383   7.199  18.167  0.00  0.00    +0.000 C 
ENDROOT
BRANCH   1   2
ATOM      2  N   UNL     1       2.256   8.484  18.889  0.00  0.00    +0.000 NA
ATOM      3  H   UNL     1       2.186   8.395  19.903  0.00  0.00    +0.000 HD
BRANCH   2   5
ATOM      4  O   UNL     1       2.216  10.703  17.689  0.00  0.00    +0.000 OA
ATOM      5  S   UNL     1       1.323   9.695  18.211  0.00  0.00    +0.000 S 
ATOM      6  O   UNL     1       0.288   9.085  17.408  0.00  0.00    +0.000 OA
BRANCH   5   7
ATOM      7  C   UNL     1       0.568  10.388  19.657  0.00  0.00    +0.000 A 
ATOM      8  C   UNL     1      -0.047  11.639  19.546  0.00  0.00    +0.000 A 
ATOM      9  C   UNL     1      -0.618  12.211  20.676  0.00  0.00    +0.000 A 
ATOM     10 CL   UNL     1      -1.342  13.765  20.566  0.00  0.00    +0.000 Cl
ATOM     11  C   UNL     1      -0.594  11.540  21.897  0.00  0.00    +0.000 A 
ATOM     12  C   UNL     1       0.009  10.284  21.983  0.00  0.00    +0.000 A 
ATOM     13 CL   UNL     1       0.036   9.458  23.492  0.00  0.00    +0.000 Cl
ATOM     14  C   UNL     1       0.596   9.696  20.868  0.00  0.00    +0.000 A 
ENDBRANCH   5   7
ENDBRANCH   2   5
ENDBRANCH   1   2
BRANCH   1  15
ATOM     15  C   UNL     1       3.349   6.209  18.910  0.00  0.00    +0.000 C 
BRANCH  15  16
ATOM     16  N   UNL     1       4.704   6.053  18.261  0.00  0.00    +0.000 NA
ATOM     17  C   UNL     1       5.625   5.300  19.132  0.00  0.00    +0.000 C 
ATOM     18  C   UNL     1       7.107   5.468  18.778  0.00  0.00    +0.000 C 
ATOM     19  C   UNL     1       7.630   4.519  17.709  0.00  0.00    +0.000 C 
ATOM     20  C   UNL     1       6.947   4.669  16.361  0.00  0.00    +0.000 C 
ATOM     21  C   UNL     1       5.468   4.332  16.423  0.00  0.00    +0.000 C 
ATOM     22  C   UNL     1       4.575   5.483  16.897  0.00  0.00    +0.000 C 
ENDBRANCH  15  16
BRANCH  15  23
ATOM     23  C   UNL     1       2.588   4.890  19.139  0.00  0.00    +0.000 A 
ATOM     24  C   UNL     1       1.964   4.191  18.093  0.00  0.00    +0.000 A 
ATOM     25  C   UNL     1       1.221   3.037  18.345  0.00  0.00    +0.000 A 
ATOM     26  C   UNL     1       1.118   2.543  19.642  0.00  0.00    +0.000 A 
ATOM     27  C   UNL     1       1.766   3.197  20.687  0.00  0.00    +0.000 A 
ATOM     28  C   UNL     1       2.491   4.364  20.439  0.00  0.00    +0.000 A 
ENDBRANCH  15  23
ENDBRANCH   1  15
TORSDOF 6
ENDMDL
MODEL 9
REMARK VINA RESULT:      -7.7      1.045      3.841
REMARK  Name = 
REMARK  6 active torsions:
REMARK  status: ('A' for Active; 'I' for Inactive)
REMARK    1  A    between atoms: S_2  and  N_4
REMARK    2  A    between atoms: S_2  and  C_20
REMARK    3  A    between atoms: N_4  and  C_5
REMARK    4  A    between atoms: C_5  and  C_6
REMARK    5  A    between atoms: C_6  and  C_7
REMARK    6  A    between atoms: C_6  and  N_13
REMARK                            x       y       z     vdW  Elec       q    Type
REMARK                         _______ _______ _______ _____ _____    ______ ____
ROOT
ATOM      1  C   UNL     1       3.280   7.533  18.120  0.00  0.00    +0.000 C 
ENDROOT
BRANCH   1   2
ATOM      2  N   UNL     1       2.064   8.066  18.772  0.00  0.00    +0.000 NA
ATOM      3  H   UNL     1       1.431   7.353  19.137  0.00  0.00    +0.000 HD
BRANCH   2   5
ATOM      4  O   UNL     1       2.353  10.353  17.748  0.00  0.00    +0.000 OA
ATOM      5  S   UNL     1       1.321   9.409  18.107  0.00  0.00    +0.000 S 
ATOM      6  O   UNL     1       0.317   8.962  17.169  0.00  0.00    +0.000 OA
BRANCH   5   7
ATOM      7  C   UNL     1       0.497  10.076  19.527  0.00  0.00    +0.000 A 
ATOM      8  C   UNL     1      -0.332  11.188  19.349  0.00  0.00    +0.000 A 
ATOM      9  C   UNL     1      -0.962  11.742  20.456  0.00  0.00    +0.000 A 
ATOM     10 CL   UNL     1      -1.951  13.134  20.259  0.00  0.00    +0.000 Cl
ATOM     11  C   UNL     1      -0.787  11.187  21.721  0.00  0.00    +0.000 A 
ATOM     12  C   UNL     1       0.029  10.066  21.876  0.00  0.00    +0.000 A 
ATOM     13 CL   UNL     1       0.243   9.382  23.440  0.00  0.00    +0.000 Cl
ATOM     14  C   UNL     1       0.680   9.499  20.785  0.00  0.00    +0.000 A 
ENDBRANCH   5   7
ENDBRANCH   2   5
ENDBRANCH   1   2
BRANCH   1  15
ATOM     15  C   UNL     1       3.195   5.978  17.918  0.00  0.00    +0.000 C 
BRANCH  15  16
ATOM     16  N   UNL     1       2.787   5.209  19.154  0.00  0.00    +0.000 NA
ATOM     17  C   UNL     1       1.590   4.387  18.895  0.00  0.00    +0.000 C 
ATOM     18  C   UNL     1       0.852   3.932  20.159  0.00  0.00    +0.000 C 
ATOM     19  C   UNL     1       1.374   2.649  20.789  0.00  0.00    +0.000 C 
ATOM     20  C   UNL     1       2.817   2.733  21.256  0.00  0.00    +0.000 C 
ATOM     21  C   UNL     1       3.784   2.968  20.109  0.00  0.00    +0.000 C 
ATOM     22  C   UNL     1       3.931   4.437  19.698  0.00  0.00    +0.000 C 
ENDBRANCH  15  16
BRANCH  15  23
ATOM     23  C   UNL     1       4.515   5.512  17.276  0.00  0.00    +0.000 A 
ATOM     24  C   UNL     1       5.712   6.233  17.413  0.00  0.00    +0.000 A 
ATOM     25  C   UNL     1       6.875   5.823  16.758  0.00  0.00    +0.000 A 
ATOM     26  C   UNL     1       6.868   4.667  15.982  0.00  0.00    +0.000 A 
ATOM     27  C   UNL     1       5.700   3.915  15.869  0.00  0.00    +0.000 A 
ATOM     28  C   UNL     1       4.532   4.336  16.506  0.00  0.00    +0.000 A 
ENDBRANCH  15  23
ENDBRANCH   1  15
TORSDOF 6
ENDMDL
