MODEL 1
REMARK VINA RESULT:      -5.7      0.000      0.000
REMARK  Name = 
REMARK  18 active torsions:
REMARK  status: ('A' for Active; 'I' for Inactive)
REMARK    1  A    between atoms: C_1  and  C_2
REMARK    2  A    between atoms: C_2  and  C_3
REMARK    3  A    between atoms: C_3  and  C_4
REMARK    4  A    between atoms: C_4  and  C_5
REMARK    5  A    between atoms: C_5  and  C_6
REMARK    6  A    between atoms: C_6  and  C_7
REMARK    7  A    between atoms: C_7  and  C_8
REMARK    8  A    between atoms: C_8  and  C_9
REMARK    9  A    between atoms: C_9  and  C_10
REMARK   10  A    between atoms: C_10  and  C_11
REMARK   11  A    between atoms: C_11  and  C_12
REMARK   12  A    between atoms: C_12  and  N_13
REMARK   13  A    between atoms: C_14  and  C_16
REMARK   14  A    between atoms: C_16  and  N_17
REMARK   15  A    between atoms: C_16  and  C_18
REMARK   16  A    between atoms: C_18  and  C_19
REMARK   17  A    between atoms: C_19  and  C_20
REMARK   18  A    between atoms: C_20  and  N_21
REMARK                            x       y       z     vdW  Elec       q    Type
REMARK                         _______ _______ _______ _____ _____    ______ ____
ROOT
ATOM      1  N   UNL     1       5.625   4.213  16.891  0.00  0.00    +0.000 N 
ATOM      2  C   UNL     1       6.799   4.475  16.214  0.00  0.00    +0.000 C 
ATOM      3  O   UNL     1       7.901   4.459  16.762  0.00  0.00    +0.000 OA
ATOM      4  H   UNL     1       4.739   4.314  16.410  0.00  0.00    +0.000 HD
ENDROOT
BRANCH   2   5
ATOM      5  C   UNL     1       6.646   4.793  14.715  0.00  0.00    +0.000 C 
BRANCH   5   6
ATOM      6  N   UNL     1       7.919   5.336  14.179  0.00  0.00    +0.000 NA
ATOM      7  H   UNL     1       8.579   5.470  14.945  0.00  0.00    +0.000 HD
ATOM      8  H   UNL     1       7.730   6.275  13.813  0.00  0.00    +0.000 HD
ENDBRANCH   5   6
BRANCH   5   9
ATOM      9  C   UNL     1       6.255   3.541  13.925  0.00  0.00    +0.000 C 
BRANCH   9  10
ATOM     10  C   UNL     1       6.202   3.803  12.416  0.00  0.00    +0.000 C 
BRANCH  10  11
ATOM     11  C   UNL     1       5.362   2.744  11.710  0.00  0.00    +0.000 C 
BRANCH  11  12
ATOM     12  N   UNL     1       4.066   3.300  11.350  0.00  0.00    +0.000 NA
ATOM     13  H   UNL     1       3.453   3.308  12.164  0.00  0.00    +0.000 HD
ATOM     14  H   UNL     1       3.619   2.701  10.657  0.00  0.00    +0.000 HD
ENDBRANCH  11  12
ENDBRANCH  10  11
ENDBRANCH   9  10
ENDBRANCH   5   9
ENDBRANCH   2   5
BRANCH   1  15
ATOM     15  C   UNL     1       5.636   3.912  18.305  0.00  0.00    +0.000 C 
BRANCH  15  16
ATOM     16  C   UNL     1       4.404   3.130  18.749  0.00  0.00    +0.000 C 
BRANCH  16  17
ATOM     17  C   UNL     1       3.249   3.362  17.778  0.00  0.00    +0.000 C 
BRANCH  17  18
ATOM     18  C   UNL     1       2.360   2.129  17.700  0.00  0.00    +0.000 C 
BRANCH  18  19
ATOM     19  C   UNL     1       1.727   1.843  19.053  0.00  0.00    +0.000 C 
BRANCH  19  20
ATOM     20  C   UNL     1       1.106   3.111  19.616  0.00  0.00    +0.000 C 
BRANCH  20  21
ATOM     21  C   UNL     1       1.533   3.303  21.061  0.00  0.00    +0.000 C 
BRANCH  21  22
ATOM     22  C   UNL     1       2.011   4.728  21.279  0.00  0.00    +0.000 C 
BRANCH  22  23
ATOM     23  C   UNL     1       1.612   5.598  20.099  0.00  0.00    +0.000 C 
BRANCH  23  24
ATOM     24  C   UNL     1       2.791   6.447  19.653  0.00  0.00    +0.000 C 
BRANCH  24  26
ATOM     25  C   UNL     1       3.803   7.182  17.497  0.00  0.00    +0.000 C 
ATOM     26  C   UNL     1       2.517   7.065  18.291  0.00  0.00    +0.000 C 
ENDBRANCH  24  26
ENDBRANCH  23  24
ENDBRANCH  22  23
ENDBRANCH  21  22
ENDBRANCH  20  21
ENDBRANCH  19  20
ENDBRANCH  18  19
ENDBRANCH  17  18
ENDBRANCH  16  17
ENDBRANCH  15  16
ENDBRANCH   1  15
TORSDOF 17
ENDMDL
MODEL 2
REMARK VINA RESULT:      -5.6      2.220      3.263
REMARK  Name = 
REMARK  18 active torsions:
REMARK  status: ('A' for Active; 'I' for Inactive)
REMARK    1  A    between atoms: C_1  and  C_2
REMARK    2  A    between atoms: C_2  and  C_3
REMARK    3  A    between atoms: C_3  and  C_4
REMARK    4  A    between atoms: C_4  and  C_5
REMARK    5  A    between atoms: C_5  and  C_6
REMARK    6  A    between atoms: C_6  and  C_7
REMARK    7  A    between atoms: C_7  and  C_8
REMARK    8  A    between atoms: C_8  and  C_9
REMARK    9  A    between atoms: C_9  and  C_10
REMARK   10  A    between atoms: C_10  and  C_11
REMARK   11  A    between atoms: C_11  and  C_12
REMARK   12  A    between atoms: C_12  and  N_13
REMARK   13  A    between atoms: C_14  and  C_16
REMARK   14  A    between atoms: C_16  and  N_17
REMARK   15  A    between atoms: C_16  and  C_18
REMARK   16  A    between atoms: C_18  and  C_19
REMARK   17  A    between atoms: C_19  and  C_20
REMARK   18  A    between atoms: C_20  and  N_21
REMARK                            x       y       z     vdW  Elec       q    Type
REMARK                         _______ _______ _______ _____ _____    ______ ____
ROOT
ATOM      1  N   UNL     1       5.513   3.510  18.675  0.00  0.00    +0.000 N 
ATOM      2  C   UNL     1       5.805   4.800  19.073  0.00  0.00    +0.000 C 
ATOM      3  O   UNL     1       5.114   5.419  19.881  0.00  0.00    +0.000 OA
ATOM      4  H   UNL     1       6.071   3.074  17.951  0.00  0.00    +0.000 HD
ENDROOT
BRANCH   2   5
ATOM      5  C   UNL     1       7.061   5.423  18.437  0.00  0.00    +0.000 C 
BRANCH   5   6
ATOM      6  N   UNL     1       8.153   5.501  19.440  0.00  0.00    +0.000 NA
ATOM      7  H   UNL     1       8.818   4.745  19.275  0.00  0.00    +0.000 HD
ATOM      8  H   UNL     1       7.746   5.312  20.362  0.00  0.00    +0.000 HD
ENDBRANCH   5   6
BRANCH   5   9
ATOM      9  C   UNL     1       7.534   4.601  17.234  0.00  0.00    +0.000 C 
BRANCH   9  10
ATOM     10  C   UNL     1       7.131   5.243  15.902  0.00  0.00    +0.000 C 
BRANCH  10  11
ATOM     11  C   UNL     1       5.937   4.516  15.290  0.00  0.00    +0.000 C 
BRANCH  11  12
ATOM     12  N   UNL     1       5.985   3.104  15.641  0.00  0.00    +0.000 NA
ATOM     13  H   UNL     1       5.582   2.546  14.889  0.00  0.00    +0.000 HD
ATOM     14  H   UNL     1       5.410   2.938  16.466  0.00  0.00    +0.000 HD
ENDBRANCH  11  12
ENDBRANCH  10  11
ENDBRANCH   9  10
ENDBRANCH   5   9
ENDBRANCH   2   5
BRANCH   1  15
ATOM     15  C   UNL     1       4.354   2.820  19.194  0.00  0.00    +0.000 C 
BRANCH  15  16
ATOM     16  C   UNL     1       3.659   1.965  18.139  0.00  0.00    +0.000 C 
BRANCH  16  17
ATOM     17  C   UNL     1       2.320   2.585  17.750  0.00  0.00    +0.000 C 
BRANCH  17  18
ATOM     18  C   UNL     1       1.230   2.159  18.723  0.00  0.00    +0.000 C 
BRANCH  18  19
ATOM     19  C   UNL     1       0.735   3.353  19.524  0.00  0.00    +0.000 C 
BRANCH  19  20
ATOM     20  C   UNL     1       1.347   3.336  20.916  0.00  0.00    +0.000 C 
BRANCH  20  21
ATOM     21  C   UNL     1       2.033   4.661  21.200  0.00  0.00    +0.000 C 
BRANCH  21  22
ATOM     22  C   UNL     1       1.217   5.805  20.623  0.00  0.00    +0.000 C 
BRANCH  22  23
ATOM     23  C   UNL     1       2.135   6.937  20.195  0.00  0.00    +0.000 C 
BRANCH  23  24
ATOM     24  C   UNL     1       1.396   8.263  20.259  0.00  0.00    +0.000 C 
BRANCH  24  26
ATOM     25  C   UNL     1      -0.276   8.881  22.002  0.00  0.00    +0.000 C 
ATOM     26  C   UNL     1       1.199   8.694  21.704  0.00  0.00    +0.000 C 
ENDBRANCH  24  26
ENDBRANCH  23  24
ENDBRANCH  22  23
ENDBRANCH  21  22
ENDBRANCH  20  21
ENDBRANCH  19  20
ENDBRANCH  18  19
ENDBRANCH  17  18
ENDBRANCH  16  17
ENDBRANCH  15  16
ENDBRANCH   1  15
TORSDOF 17
ENDMDL
MODEL 3
REMARK VINA RESULT:      -5.6      2.961      6.897
REMARK  Name = 
REMARK  18 active torsions:
REMARK  status: ('A' for Active; 'I' for Inactive)
REMARK    1  A    between atoms: C_1  and  C_2
REMARK    2  A    between atoms: C_2  and  C_3
REMARK    3  A    between atoms: C_3  and  C_4
REMARK    4  A    between atoms: C_4  and  C_5
REMARK    5  A    between atoms: C_5  and  C_6
REMARK    6  A    between atoms: C_6  and  C_7
REMARK    7  A    between atoms: C_7  and  C_8
REMARK    8  A    between atoms: C_8  and  C_9
REMARK    9  A    between atoms: C_9  and  C_10
REMARK   10  A    between atoms: C_10  and  C_11
REMARK   11  A    between atoms: C_11  and  C_12
REMARK   12  A    between atoms: C_12  and  N_13
REMARK   13  A    between atoms: C_14  and  C_16
REMARK   14  A    between atoms: C_16  and  N_17
REMARK   15  A    between atoms: C_16  and  C_18
REMARK   16  A    between atoms: C_18  and  C_19
REMARK   17  A    between atoms: C_19  and  C_20
REMARK   18  A    between atoms: C_20  and  N_21
REMARK                            x       y       z     vdW  Elec       q    Type
REMARK                         _______ _______ _______ _____ _____    ______ ____
ROOT
ATOM      1  N   UNL     1       5.992   4.203  19.289  0.00  0.00    +0.000 N 
ATOM      2  C   UNL     1       4.685   3.856  19.010  0.00  0.00    +0.000 C 
ATOM      3  O   UNL     1       3.811   4.690  18.775  0.00  0.00    +0.000 OA
ATOM      4  H   UNL     1       6.654   3.483  19.550  0.00  0.00    +0.000 HD
ENDROOT
BRANCH   2   5
ATOM      5  C   UNL     1       4.383   2.346  19.014  0.00  0.00    +0.000 C 
BRANCH   5   6
ATOM      6  N   UNL     1       4.911   1.727  20.256  0.00  0.00    +0.000 NA
ATOM      7  H   UNL     1       4.284   0.980  20.555  0.00  0.00    +0.000 HD
ATOM      8  H   UNL     1       4.872   2.432  21.000  0.00  0.00    +0.000 HD
ENDBRANCH   5   6
BRANCH   5   9
ATOM      9  C   UNL     1       2.877   2.086  18.917  0.00  0.00    +0.000 C 
BRANCH   9  10
ATOM     10  C   UNL     1       2.151   2.401  20.229  0.00  0.00    +0.000 C 
BRANCH  10  11
ATOM     11  C   UNL     1       0.785   3.021  19.956  0.00  0.00    +0.000 C 
BRANCH  11  12
ATOM     12  N   UNL     1       0.271   2.544  18.680  0.00  0.00    +0.000 NA
ATOM     13  H   UNL     1      -0.313   3.261  18.251  0.00  0.00    +0.000 HD
ATOM     14  H   UNL     1      -0.331   1.736  18.836  0.00  0.00    +0.000 HD
ENDBRANCH  11  12
ENDBRANCH  10  11
ENDBRANCH   9  10
ENDBRANCH   5   9
ENDBRANCH   2   5
BRANCH   1  15
ATOM     15  C   UNL     1       6.398   5.591  19.326  0.00  0.00    +0.000 C 
BRANCH  15  16
ATOM     16  C   UNL     1       7.664   5.853  18.517  0.00  0.00    +0.000 C 
BRANCH  16  17
ATOM     17  C   UNL     1       7.312   6.177  17.068  0.00  0.00    +0.000 C 
BRANCH  17  18
ATOM     18  C   UNL     1       6.001   6.948  16.995  0.00  0.00    +0.000 C 
BRANCH  18  19
ATOM     19  C   UNL     1       5.114   6.385  15.896  0.00  0.00    +0.000 C 
BRANCH  19  20
ATOM     20  C   UNL     1       5.305   4.881  15.790  0.00  0.00    +0.000 C 
BRANCH  20  21
ATOM     21  C   UNL     1       5.092   4.428  14.356  0.00  0.00    +0.000 C 
BRANCH  21  22
ATOM     22  C   UNL     1       6.392   3.892  13.780  0.00  0.00    +0.000 C 
BRANCH  22  23
ATOM     23  C   UNL     1       6.121   3.160  12.476  0.00  0.00    +0.000 C 
BRANCH  23  24
ATOM     24  C   UNL     1       5.079   3.909  11.662  0.00  0.00    +0.000 C 
BRANCH  24  26
ATOM     25  C   UNL     1       3.173   3.631  10.079  0.00  0.00    +0.000 C 
ATOM     26  C   UNL     1       4.028   2.948  11.128  0.00  0.00    +0.000 C 
ENDBRANCH  24  26
ENDBRANCH  23  24
ENDBRANCH  22  23
ENDBRANCH  21  22
ENDBRANCH  20  21
ENDBRANCH  19  20
ENDBRANCH  18  19
ENDBRANCH  17  18
ENDBRANCH  16  17
ENDBRANCH  15  16
ENDBRANCH   1  15
TORSDOF 17
ENDMDL
MODEL 4
REMARK VINA RESULT:      -5.5      2.573      4.317
REMARK  Name = 
REMARK  18 active torsions:
REMARK  status: ('A' for Active; 'I' for Inactive)
REMARK    1  A    between atoms: C_1  and  C_2
REMARK    2  A    between atoms: C_2  and  C_3
REMARK    3  A    between atoms: C_3  and  C_4
REMARK    4  A    between atoms: C_4  and  C_5
REMARK    5  A    between atoms: C_5  and  C_6
REMARK    6  A    between atoms: C_6  and  C_7
REMARK    7  A    between atoms: C_7  and  C_8
REMARK    8  A    between atoms: C_8  and  C_9
REMARK    9  A    between atoms: C_9  and  C_10
REMARK   10  A    between atoms: C_10  and  C_11
REMARK   11  A    between atoms: C_11  and  C_12
REMARK   12  A    between atoms: C_12  and  N_13
REMARK   13  A    between atoms: C_14  and  C_16
REMARK   14  A    between atoms: C_16  and  N_17
REMARK   15  A    between atoms: C_16  and  C_18
REMARK   16  A    between atoms: C_18  and  C_19
REMARK   17  A    between atoms: C_19  and  C_20
REMARK   18  A    between atoms: C_20  and  N_21
REMARK                            x       y       z     vdW  Elec       q    Type
REMARK                         _______ _______ _______ _____ _____    ______ ____
ROOT
ATOM      1  N   UNL     1       4.827   3.355  17.545  0.00  0.00    +0.000 N 
ATOM      2  C   UNL     1       4.771   4.678  17.152  0.00  0.00    +0.000 C 
ATOM      3  O   UNL     1       3.864   5.436  17.494  0.00  0.00    +0.000 OA
ATOM      4  H   UNL     1       5.553   2.755  17.175  0.00  0.00    +0.000 HD
ENDROOT
BRANCH   2   5
ATOM      5  C   UNL     1       5.924   5.151  16.248  0.00  0.00    +0.000 C 
BRANCH   5   6
ATOM      6  N   UNL     1       5.717   6.570  15.863  0.00  0.00    +0.000 NA
ATOM      7  H   UNL     1       4.927   6.950  16.385  0.00  0.00    +0.000 HD
ATOM      8  H   UNL     1       5.430   6.590  14.879  0.00  0.00    +0.000 HD
ENDBRANCH   5   6
BRANCH   5   9
ATOM      9  C   UNL     1       7.273   5.008  16.958  0.00  0.00    +0.000 C 
BRANCH   9  10
ATOM     10  C   UNL     1       7.467   6.068  18.048  0.00  0.00    +0.000 C 
BRANCH  10  11
ATOM     11  C   UNL     1       7.012   5.539  19.404  0.00  0.00    +0.000 C 
BRANCH  11  12
ATOM     12  N   UNL     1       8.138   5.511  20.327  0.00  0.00    +0.000 NA
ATOM     13  H   UNL     1       8.387   6.461  20.600  0.00  0.00    +0.000 HD
ATOM     14  H   UNL     1       8.954   5.121  19.857  0.00  0.00    +0.000 HD
ENDBRANCH  11  12
ENDBRANCH  10  11
ENDBRANCH   9  10
ENDBRANCH   5   9
ENDBRANCH   2   5
BRANCH   1  15
ATOM     15  C   UNL     1       3.796   2.789  18.387  0.00  0.00    +0.000 C 
BRANCH  15  16
ATOM     16  C   UNL     1       2.501   2.520  17.629  0.00  0.00    +0.000 C 
BRANCH  16  17
ATOM     17  C   UNL     1       1.338   2.356  18.603  0.00  0.00    +0.000 C 
BRANCH  17  18
ATOM     18  C   UNL     1       1.853   2.129  20.018  0.00  0.00    +0.000 C 
BRANCH  18  19
ATOM     19  C   UNL     1       1.154   3.060  20.995  0.00  0.00    +0.000 C 
BRANCH  19  20
ATOM     20  C   UNL     1       0.992   4.439  20.376  0.00  0.00    +0.000 C 
BRANCH  20  21
ATOM     21  C   UNL     1       2.219   5.287  20.663  0.00  0.00    +0.000 C 
BRANCH  21  22
ATOM     22  C   UNL     1       1.973   6.723  20.231  0.00  0.00    +0.000 C 
BRANCH  22  23
ATOM     23  C   UNL     1       1.004   7.396  21.188  0.00  0.00    +0.000 C 
BRANCH  23  24
ATOM     24  C   UNL     1       1.247   8.896  21.209  0.00  0.00    +0.000 C 
BRANCH  24  26
ATOM     25  C   UNL     1      -0.121   9.543  23.191  0.00  0.00    +0.000 C 
ATOM     26  C   UNL     1       0.002   9.631  21.682  0.00  0.00    +0.000 C 
ENDBRANCH  24  26
ENDBRANCH  23  24
ENDBRANCH  22  23
ENDBRANCH  21  22
ENDBRANCH  20  21
ENDBRANCH  19  20
ENDBRANCH  18  19
ENDBRANCH  17  18
ENDBRANCH  16  17
ENDBRANCH  15  16
ENDBRANCH   1  15
TORSDOF 17
ENDMDL
MODEL 5
REMARK VINA RESULT:      -5.5      1.868      2.391
REMARK  Name = 
REMARK  18 active torsions:
REMARK  status: ('A' for Active; 'I' for Inactive)
REMARK    1  A    between atoms: C_1  and  C_2
REMARK    2  A    between atoms: C_2  and  C_3
REMARK    3  A    between atoms: C_3  and  C_4
REMARK    4  A    between atoms: C_4  and  C_5
REMARK    5  A    between atoms: C_5  and  C_6
REMARK    6  A    between atoms: C_6  and  C_7
REMARK    7  A    between atoms: C_7  and  C_8
REMARK    8  A    between atoms: C_8  and  C_9
REMARK    9  A    between atoms: C_9  and  C_10
REMARK   10  A    between atoms: C_10  and  C_11
REMARK   11  A    between atoms: C_11  and  C_12
REMARK   12  A    between atoms: C_12  and  N_13
REMARK   13  A    between atoms: C_14  and  C_16
REMARK   14  A    between atoms: C_16  and  N_17
REMARK   15  A    between atoms: C_16  and  C_18
REMARK   16  A    between atoms: C_18  and  C_19
REMARK   17  A    between atoms: C_19  and  C_20
REMARK   18  A    between atoms: C_20  and  N_21
REMARK                            x       y       z     vdW  Elec       q    Type
REMARK                         _______ _______ _______ _____ _____    ______ ____
ROOT
ATOM      1  N   UNL     1       4.916   4.385  18.389  0.00  0.00    +0.000 N 
ATOM      2  C   UNL     1       6.072   5.137  18.326  0.00  0.00    +0.000 C 
ATOM      3  O   UNL     1       7.049   4.916  19.041  0.00  0.00    +0.000 OA
ATOM      4  H   UNL     1       4.114   4.656  17.833  0.00  0.00    +0.000 HD
ENDROOT
BRANCH   2   5
ATOM      5  C   UNL     1       6.064   6.283  17.298  0.00  0.00    +0.000 C 
BRANCH   5   6
ATOM      6  N   UNL     1       7.456   6.649  16.935  0.00  0.00    +0.000 NA
ATOM      7  H   UNL     1       8.066   6.496  17.738  0.00  0.00    +0.000 HD
ATOM      8  H   UNL     1       7.480   7.659  16.760  0.00  0.00    +0.000 HD
ENDBRANCH   5   6
BRANCH   5   9
ATOM      9  C   UNL     1       5.298   5.882  16.034  0.00  0.00    +0.000 C 
BRANCH   9  10
ATOM     10  C   UNL     1       6.238   5.486  14.890  0.00  0.00    +0.000 C 
BRANCH  10  11
ATOM     11  C   UNL     1       6.800   4.086  15.111  0.00  0.00    +0.000 C 
BRANCH  11  12
ATOM     12  N   UNL     1       5.739   3.190  15.547  0.00  0.00    +0.000 NA
ATOM     13  H   UNL     1       6.139   2.387  16.030  0.00  0.00    +0.000 HD
ATOM     14  H   UNL     1       5.248   2.822  14.733  0.00  0.00    +0.000 HD
ENDBRANCH  11  12
ENDBRANCH  10  11
ENDBRANCH   9  10
ENDBRANCH   5   9
ENDBRANCH   2   5
BRANCH   1  15
ATOM     15  C   UNL     1       4.796   3.287  19.323  0.00  0.00    +0.000 C 
BRANCH  15  16
ATOM     16  C   UNL     1       3.954   2.140  18.775  0.00  0.00    +0.000 C 
BRANCH  16  17
ATOM     17  C   UNL     1       2.651   2.671  18.185  0.00  0.00    +0.000 C 
BRANCH  17  18
ATOM     18  C   UNL     1       1.453   2.048  18.887  0.00  0.00    +0.000 C 
BRANCH  18  19
ATOM     19  C   UNL     1       0.775   3.068  19.788  0.00  0.00    +0.000 C 
BRANCH  19  20
ATOM     20  C   UNL     1       1.542   3.201  21.094  0.00  0.00    +0.000 C 
BRANCH  20  21
ATOM     21  C   UNL     1       2.056   4.621  21.253  0.00  0.00    +0.000 C 
BRANCH  21  22
ATOM     22  C   UNL     1       1.460   5.516  20.180  0.00  0.00    +0.000 C 
BRANCH  22  23
ATOM     23  C   UNL     1       2.505   6.498  19.679  0.00  0.00    +0.000 C 
BRANCH  23  24
ATOM     24  C   UNL     1       2.346   6.713  18.183  0.00  0.00    +0.000 C 
BRANCH  24  26
ATOM     25  C   UNL     1       1.692   9.042  18.786  0.00  0.00    +0.000 C 
ATOM     26  C   UNL     1       2.507   8.185  17.837  0.00  0.00    +0.000 C 
ENDBRANCH  24  26
ENDBRANCH  23  24
ENDBRANCH  22  23
ENDBRANCH  21  22
ENDBRANCH  20  21
ENDBRANCH  19  20
ENDBRANCH  18  19
ENDBRANCH  17  18
ENDBRANCH  16  17
ENDBRANCH  15  16
ENDBRANCH   1  15
TORSDOF 17
ENDMDL
MODEL 6
REMARK VINA RESULT:      -5.4      1.255      1.479
REMARK  Name = 
REMARK  18 active torsions:
REMARK  status: ('A' for Active; 'I' for Inactive)
REMARK    1  A    between atoms: C_1  and  C_2
REMARK    2  A    between atoms: C_2  and  C_3
REMARK    3  A    between atoms: C_3  and  C_4
REMARK    4  A    between atoms: C_4  and  C_5
REMARK    5  A    between atoms: C_5  and  C_6
REMARK    6  A    between atoms: C_6  and  C_7
REMARK    7  A    between atoms: C_7  and  C_8
REMARK    8  A    between atoms: C_8  and  C_9
REMARK    9  A    between atoms: C_9  and  C_10
REMARK   10  A    between atoms: C_10  and  C_11
REMARK   11  A    between atoms: C_11  and  C_12
REMARK   12  A    between atoms: C_12  and  N_13
REMARK   13  A    between atoms: C_14  and  C_16
REMARK   14  A    between atoms: C_16  and  N_17
REMARK   15  A    between atoms: C_16  and  C_18
REMARK   16  A    between atoms: C_18  and  C_19
REMARK   17  A    between atoms: C_19  and  C_20
REMARK   18  A    between atoms: C_20  and  N_21
REMARK                            x       y       z     vdW  Elec       q    Type
REMARK                         _______ _______ _______ _____ _____    ______ ____
ROOT
ATOM      1  N   UNL     1       5.497   4.548  18.159  0.00  0.00    +0.000 N 
ATOM      2  C   UNL     1       6.724   4.759  17.564  0.00  0.00    +0.000 C 
ATOM      3  O   UNL     1       7.767   4.270  17.997  0.00  0.00    +0.000 OA
ATOM      4  H   UNL     1       4.682   5.034  17.808  0.00  0.00    +0.000 HD
ENDROOT
BRANCH   2   5
ATOM      5  C   UNL     1       6.710   5.655  16.311  0.00  0.00    +0.000 C 
BRANCH   5   6
ATOM      6  N   UNL     1       7.661   6.782  16.483  0.00  0.00    +0.000 NA
ATOM      7  H   UNL     1       7.408   7.315  17.315  0.00  0.00    +0.000 HD
ATOM      8  H   UNL     1       7.530   7.426  15.696  0.00  0.00    +0.000 HD
ENDBRANCH   5   6
BRANCH   5   9
ATOM      9  C   UNL     1       7.087   4.857  15.060  0.00  0.00    +0.000 C 
BRANCH   9  10
ATOM     10  C   UNL     1       6.054   3.773  14.733  0.00  0.00    +0.000 C 
BRANCH  10  11
ATOM     11  C   UNL     1       5.583   3.893  13.288  0.00  0.00    +0.000 C 
BRANCH  11  12
ATOM     12  N   UNL     1       6.439   3.097  12.420  0.00  0.00    +0.000 NA
ATOM     13  H   UNL     1       6.297   2.105  12.608  0.00  0.00    +0.000 HD
ATOM     14  H   UNL     1       7.417   3.294  12.631  0.00  0.00    +0.000 HD
ENDBRANCH  11  12
ENDBRANCH  10  11
ENDBRANCH   9  10
ENDBRANCH   5   9
ENDBRANCH   2   5
BRANCH   1  15
ATOM     15  C   UNL     1       5.381   3.733  19.348  0.00  0.00    +0.000 C 
BRANCH  15  16
ATOM     16  C   UNL     1       4.216   2.751  19.276  0.00  0.00    +0.000 C 
BRANCH  16  17
ATOM     17  C   UNL     1       3.761   2.572  17.831  0.00  0.00    +0.000 C 
BRANCH  17  18
ATOM     18  C   UNL     1       2.244   2.463  17.757  0.00  0.00    +0.000 C 
BRANCH  18  19
ATOM     19  C   UNL     1       1.710   1.673  18.942  0.00  0.00    +0.000 C 
BRANCH  19  20
ATOM     20  C   UNL     1       0.677   2.496  19.694  0.00  0.00    +0.000 C 
BRANCH  20  21
ATOM     21  C   UNL     1       0.852   3.970  19.375  0.00  0.00    +0.000 C 
BRANCH  21  22
ATOM     22  C   UNL     1       1.397   4.705  20.588  0.00  0.00    +0.000 C 
BRANCH  22  23
ATOM     23  C   UNL     1       2.245   5.885  20.146  0.00  0.00    +0.000 C 
BRANCH  23  24
ATOM     24  C   UNL     1       2.282   5.963  18.628  0.00  0.00    +0.000 C 
BRANCH  24  26
ATOM     25  C   UNL     1       3.748   7.567  17.406  0.00  0.00    +0.000 C 
ATOM     26  C   UNL     1       2.451   7.404  18.173  0.00  0.00    +0.000 C 
ENDBRANCH  24  26
ENDBRANCH  23  24
ENDBRANCH  22  23
ENDBRANCH  21  22
ENDBRANCH  20  21
ENDBRANCH  19  20
ENDBRANCH  18  19
ENDBRANCH  17  18
ENDBRANCH  16  17
ENDBRANCH  15  16
ENDBRANCH   1  15
TORSDOF 17
ENDMDL
MODEL 7
REMARK VINA RESULT:      -5.4      1.197      1.292
REMARK  Name = 
REMARK  18 active torsions:
REMARK  status: ('A' for Active; 'I' for Inactive)
REMARK    1  A    between atoms: C_1  and  C_2
REMARK    2  A    between atoms: C_2  and  C_3
REMARK    3  A    between atoms: C_3  and  C_4
REMARK    4  A    between atoms: C_4  and  C_5
REMARK    5  A    between atoms: C_5  and  C_6
REMARK    6  A    between atoms: C_6  and  C_7
REMARK    7  A    between atoms: C_7  and  C_8
REMARK    8  A    between atoms: C_8  and  C_9
REMARK    9  A    between atoms: C_9  and  C_10
REMARK   10  A    between atoms: C_10  and  C_11
REMARK   11  A    between atoms: C_11  and  C_12
REMARK   12  A    between atoms: C_12  and  N_13
REMARK   13  A    between atoms: C_14  and  C_16
REMARK   14  A    between atoms: C_16  and  N_17
REMARK   15  A    between atoms: C_16  and  C_18
REMARK   16  A    between atoms: C_18  and  C_19
REMARK   17  A    between atoms: C_19  and  C_20
REMARK   18  A    between atoms: C_20  and  N_21
REMARK                            x       y       z     vdW  Elec       q    Type
REMARK                         _______ _______ _______ _____ _____    ______ ____
ROOT
ATOM      1  N   UNL     1       6.312   4.764  17.049  0.00  0.00    +0.000 N 
ATOM      2  C   UNL     1       5.821   5.587  16.056  0.00  0.00    +0.000 C 
ATOM      3  O   UNL     1       5.084   6.545  16.289  0.00  0.00    +0.000 OA
ATOM      4  H   UNL     1       6.852   3.945  16.797  0.00  0.00    +0.000 HD
ENDROOT
BRANCH   2   5
ATOM      5  C   UNL     1       6.252   5.228  14.622  0.00  0.00    +0.000 C 
BRANCH   5   6
ATOM      6  N   UNL     1       7.733   5.252  14.517  0.00  0.00    +0.000 NA
ATOM      7  H   UNL     1       8.089   6.106  14.948  0.00  0.00    +0.000 HD
ATOM      8  H   UNL     1       7.977   5.325  13.524  0.00  0.00    +0.000 HD
ENDBRANCH   5   6
BRANCH   5   9
ATOM      9  C   UNL     1       5.737   3.842  14.223  0.00  0.00    +0.000 C 
BRANCH   9  10
ATOM     10  C   UNL     1       6.186   3.443  12.813  0.00  0.00    +0.000 C 
BRANCH  10  11
ATOM     11  C   UNL     1       5.121   3.804  11.783  0.00  0.00    +0.000 C 
BRANCH  11  12
ATOM     12  N   UNL     1       4.454   2.597  11.317  0.00  0.00    +0.000 NA
ATOM     13  H   UNL     1       5.121   1.826  11.276  0.00  0.00    +0.000 HD
ATOM     14  H   UNL     1       4.117   2.739  10.365  0.00  0.00    +0.000 HD
ENDBRANCH  11  12
ENDBRANCH  10  11
ENDBRANCH   9  10
ENDBRANCH   5   9
ENDBRANCH   2   5
BRANCH   1  15
ATOM     15  C   UNL     1       5.970   4.991  18.436  0.00  0.00    +0.000 C 
BRANCH  15  16
ATOM     16  C   UNL     1       5.107   3.876  19.017  0.00  0.00    +0.000 C 
BRANCH  16  17
ATOM     17  C   UNL     1       4.354   3.151  17.906  0.00  0.00    +0.000 C 
BRANCH  17  18
ATOM     18  C   UNL     1       3.248   2.282  18.487  0.00  0.00    +0.000 C 
BRANCH  18  19
ATOM     19  C   UNL     1       1.897   2.690  17.920  0.00  0.00    +0.000 C 
BRANCH  19  20
ATOM     20  C   UNL     1       0.795   2.366  18.915  0.00  0.00    +0.000 C 
BRANCH  20  21
ATOM     21  C   UNL     1       1.181   2.858  20.299  0.00  0.00    +0.000 C 
BRANCH  21  22
ATOM     22  C   UNL     1       0.920   4.350  20.415  0.00  0.00    +0.000 C 
BRANCH  22  23
ATOM     23  C   UNL     1       2.201   5.075  20.788  0.00  0.00    +0.000 C 
BRANCH  23  24
ATOM     24  C   UNL     1       2.209   6.469  20.180  0.00  0.00    +0.000 C 
BRANCH  24  26
ATOM     25  C   UNL     1       2.330   7.770  18.057  0.00  0.00    +0.000 C 
ATOM     26  C   UNL     1       2.460   6.395  18.682  0.00  0.00    +0.000 C 
ENDBRANCH  24  26
ENDBRANCH  23  24
ENDBRANCH  22  23
ENDBRANCH  21  22
ENDBRANCH  20  21
ENDBRANCH  19  20
ENDBRANCH  18  19
ENDBRANCH  17  18
ENDBRANCH  16  17
ENDBRANCH  15  16
ENDBRANCH   1  15
TORSDOF 17
ENDMDL
MODEL 8
REMARK VINA RESULT:      -5.4      3.133      6.083
REMARK  Name = 
REMARK  18 active torsions:
REMARK  status: ('A' for Active; 'I' for Inactive)
REMARK    1  A    between atoms: C_1  and  C_2
REMARK    2  A    between atoms: C_2  and  C_3
REMARK    3  A    between atoms: C_3  and  C_4
REMARK    4  A    between atoms: C_4  and  C_5
REMARK    5  A    between atoms: C_5  and  C_6
REMARK    6  A    between atoms: C_6  and  C_7
REMARK    7  A    between atoms: C_7  and  C_8
REMARK    8  A    between atoms: C_8  and  C_9
REMARK    9  A    between atoms: C_9  and  C_10
REMARK   10  A    between atoms: C_10  and  C_11
REMARK   11  A    between atoms: C_11  and  C_12
REMARK   12  A    between atoms: C_12  and  N_13
REMARK   13  A    between atoms: C_14  and  C_16
REMARK   14  A    between atoms: C_16  and  N_17
REMARK   15  A    between atoms: C_16  and  C_18
REMARK   16  A    between atoms: C_18  and  C_19
REMARK   17  A    between atoms: C_19  and  C_20
REMARK   18  A    between atoms: C_20  and  N_21
REMARK                            x       y       z     vdW  Elec       q    Type
REMARK                         _______ _______ _______ _____ _____    ______ ____
ROOT
ATOM      1  N   UNL     1       4.381   3.754  16.640  0.00  0.00    +0.000 N 
ATOM      2  C   UNL     1       3.877   3.255  17.824  0.00  0.00    +0.000 C 
ATOM      3  O   UNL     1       4.498   3.303  18.885  0.00  0.00    +0.000 OA
ATOM      4  H   UNL     1       3.861   3.622  15.781  0.00  0.00    +0.000 HD
ENDROOT
BRANCH   2   5
ATOM      5  C   UNL     1       2.474   2.626  17.736  0.00  0.00    +0.000 C 
BRANCH   5   6
ATOM      6  N   UNL     1       2.431   1.370  18.527  0.00  0.00    +0.000 NA
ATOM      7  H   UNL     1       2.005   0.632  17.967  0.00  0.00    +0.000 HD
ATOM      8  H   UNL     1       1.793   1.518  19.316  0.00  0.00    +0.000 HD
ENDBRANCH   5   6
BRANCH   5   9
ATOM      9  C   UNL     1       1.405   3.591  18.256  0.00  0.00    +0.000 C 
BRANCH   9  10
ATOM     10  C   UNL     1       0.823   3.138  19.600  0.00  0.00    +0.000 C 
BRANCH  10  11
ATOM     11  C   UNL     1       1.480   3.887  20.754  0.00  0.00    +0.000 C 
BRANCH  11  12
ATOM     12  N   UNL     1       2.529   3.067  21.343  0.00  0.00    +0.000 NA
ATOM     13  H   UNL     1       2.229   2.721  22.254  0.00  0.00    +0.000 HD
ATOM     14  H   UNL     1       3.356   3.639  21.509  0.00  0.00    +0.000 HD
ENDBRANCH  11  12
ENDBRANCH  10  11
ENDBRANCH   9  10
ENDBRANCH   5   9
ENDBRANCH   2   5
BRANCH   1  15
ATOM     15  C   UNL     1       5.693   4.361  16.591  0.00  0.00    +0.000 C 
BRANCH  15  16
ATOM     16  C   UNL     1       5.640   5.848  16.257  0.00  0.00    +0.000 C 
BRANCH  16  17
ATOM     17  C   UNL     1       5.202   6.652  17.478  0.00  0.00    +0.000 C 
BRANCH  17  18
ATOM     18  C   UNL     1       3.730   7.025  17.372  0.00  0.00    +0.000 C 
BRANCH  18  19
ATOM     19  C   UNL     1       3.017   6.756  18.688  0.00  0.00    +0.000 C 
BRANCH  19  20
ATOM     20  C   UNL     1       2.039   7.880  18.991  0.00  0.00    +0.000 C 
BRANCH  20  21
ATOM     21  C   UNL     1       1.975   8.844  17.819  0.00  0.00    +0.000 C 
BRANCH  21  22
ATOM     22  C   UNL     1       1.498  10.207  18.292  0.00  0.00    +0.000 C 
BRANCH  22  23
ATOM     23  C   UNL     1       0.151  10.078  18.982  0.00  0.00    +0.000 C 
BRANCH  23  24
ATOM     24  C   UNL     1      -0.698  11.308  18.706  0.00  0.00    +0.000 C 
BRANCH  24  26
ATOM     25  C   UNL     1      -1.895   9.900  17.033  0.00  0.00    +0.000 C 
ATOM     26  C   UNL     1      -2.057  10.905  18.157  0.00  0.00    +0.000 C 
ENDBRANCH  24  26
ENDBRANCH  23  24
ENDBRANCH  22  23
ENDBRANCH  21  22
ENDBRANCH  20  21
ENDBRANCH  19  20
ENDBRANCH  18  19
ENDBRANCH  17  18
ENDBRANCH  16  17
ENDBRANCH  15  16
ENDBRANCH   1  15
TORSDOF 17
ENDMDL
MODEL 9
REMARK VINA RESULT:      -5.4      2.276      4.016
REMARK  Name = 
REMARK  18 active torsions:
REMARK  status: ('A' for Active; 'I' for Inactive)
REMARK    1  A    between atoms: C_1  and  C_2
REMARK    2  A    between atoms: C_2  and  C_3
REMARK    3  A    between atoms: C_3  and  C_4
REMARK    4  A    between atoms: C_4  and  C_5
REMARK    5  A    between atoms: C_5  and  C_6
REMARK    6  A    between atoms: C_6  and  C_7
REMARK    7  A    between atoms: C_7  and  C_8
REMARK    8  A    between atoms: C_8  and  C_9
REMARK    9  A    between atoms: C_9  and  C_10
REMARK   10  A    between atoms: C_10  and  C_11
REMARK   11  A    between atoms: C_11  and  C_12
REMARK   12  A    between atoms: C_12  and  N_13
REMARK   13  A    between atoms: C_14  and  C_16
REMARK   14  A    between atoms: C_16  and  N_17
REMARK   15  A    between atoms: C_16  and  C_18
REMARK   16  A    between atoms: C_18  and  C_19
REMARK   17  A    between atoms: C_19  and  C_20
REMARK   18  A    between atoms: C_20  and  N_21
REMARK                            x       y       z     vdW  Elec       q    Type
REMARK                         _______ _______ _______ _____ _____    ______ ____
ROOT
ATOM      1  N   UNL     1       5.108   3.470  17.263  0.00  0.00    +0.000 N 
ATOM      2  C   UNL     1       5.575   4.264  16.235  0.00  0.00    +0.000 C 
ATOM      3  O   UNL     1       4.956   4.424  15.184  0.00  0.00    +0.000 OA
ATOM      4  H   UNL     1       5.691   3.311  18.075  0.00  0.00    +0.000 HD
ENDROOT
BRANCH   2   5
ATOM      5  C   UNL     1       6.934   4.943  16.485  0.00  0.00    +0.000 C 
BRANCH   5   6
ATOM      6  N   UNL     1       7.651   5.131  15.199  0.00  0.00    +0.000 NA
ATOM      7  H   UNL     1       8.312   5.903  15.289  0.00  0.00    +0.000 HD
ATOM      8  H   UNL     1       6.966   5.437  14.499  0.00  0.00    +0.000 HD
ENDBRANCH   5   6
BRANCH   5   9
ATOM      9  C   UNL     1       6.753   6.301  17.169  0.00  0.00    +0.000 C 
BRANCH   9  10
ATOM     10  C   UNL     1       7.795   6.537  18.268  0.00  0.00    +0.000 C 
BRANCH  10  11
ATOM     11  C   UNL     1       7.446   5.749  19.525  0.00  0.00    +0.000 C 
BRANCH  11  12
ATOM     12  N   UNL     1       8.658   5.206  20.122  0.00  0.00    +0.000 NA
ATOM     13  H   UNL     1       9.056   4.494  19.511  0.00  0.00    +0.000 HD
ATOM     14  H   UNL     1       8.428   4.740  20.998  0.00  0.00    +0.000 HD
ENDBRANCH  11  12
ENDBRANCH  10  11
ENDBRANCH   9  10
ENDBRANCH   5   9
ENDBRANCH   2   5
BRANCH   1  15
ATOM     15  C   UNL     1       3.848   2.770  17.145  0.00  0.00    +0.000 C 
BRANCH  15  16
ATOM     16  C   UNL     1       3.633   1.755  18.262  0.00  0.00    +0.000 C 
BRANCH  16  17
ATOM     17  C   UNL     1       2.456   2.171  19.140  0.00  0.00    +0.000 C 
BRANCH  17  18
ATOM     18  C   UNL     1       2.951   2.797  20.436  0.00  0.00    +0.000 C 
BRANCH  18  19
ATOM     19  C   UNL     1       1.818   3.524  21.143  0.00  0.00    +0.000 C 
BRANCH  19  20
ATOM     20  C   UNL     1       2.019   5.028  21.041  0.00  0.00    +0.000 C 
BRANCH  20  21
ATOM     21  C   UNL     1       2.154   5.438  19.585  0.00  0.00    +0.000 C 
BRANCH  21  22
ATOM     22  C   UNL     1       3.516   6.066  19.345  0.00  0.00    +0.000 C 
BRANCH  22  23
ATOM     23  C   UNL     1       3.493   6.891  18.069  0.00  0.00    +0.000 C 
BRANCH  23  24
ATOM     24  C   UNL     1       2.099   7.450  17.834  0.00  0.00    +0.000 C 
BRANCH  24  26
ATOM     25  C   UNL     1       1.138   9.594  18.666  0.00  0.00    +0.000 C 
ATOM     26  C   UNL     1       2.145   8.966  17.723  0.00  0.00    +0.000 C 
ENDBRANCH  24  26
ENDBRANCH  23  24
ENDBRANCH  22  23
ENDBRANCH  21  22
ENDBRANCH  20  21
ENDBRANCH  19  20
ENDBRANCH  18  19
ENDBRANCH  17  18
ENDBRANCH  16  17
ENDBRANCH  15  16
ENDBRANCH   1  15
TORSDOF 17
ENDMDL
