MODEL 1
REMARK VINA RESULT:      -7.1      0.000      0.000
REMARK  Name = 
REMARK  11 active torsions:
REMARK  status: ('A' for Active; 'I' for Inactive)
REMARK    1  A    between atoms: C_1  and  C_2
REMARK    2  A    between atoms: C_2  and  O_3
REMARK    3  A    between atoms: O_3  and  C_4
REMARK    4  A    between atoms: C_4  and  C_6
REMARK    5  A    between atoms: C_9  and  C_10
REMARK    6  A    between atoms: C_10  and  N_11
REMARK    7  A    between atoms: C_14  and  O_15
REMARK    8  A    between atoms: O_15  and  C_16
REMARK    9  A    between atoms: C_17  and  O_18
REMARK   10  A    between atoms: O_18  and  C_19
REMARK   11  A    between atoms: C_19  and  C_20
REMARK                            x       y       z     vdW  Elec       q    Type
REMARK                         _______ _______ _______ _____ _____    ______ ____
ROOT
ATOM      1  C   UNL     1       4.257   3.595  18.093  0.00  0.00    +0.000 A 
ATOM      2  C   UNL     1       4.650   3.860  19.421  0.00  0.00    +0.000 A 
ATOM      3  N   UNL     1       5.775   4.547  19.704  0.00  0.00    +0.000 NA
ATOM      4  C   UNL     1       6.606   5.029  18.752  0.00  0.00    +0.000 A 
ATOM      5  C   UNL     1       6.284   4.821  17.384  0.00  0.00    +0.000 A 
ATOM      6  C   UNL     1       7.107   5.333  16.363  0.00  0.00    +0.000 A 
ATOM      7  C   UNL     1       6.781   5.171  15.004  0.00  0.00    +0.000 A 
ATOM      8  C   UNL     1       5.605   4.469  14.657  0.00  0.00    +0.000 A 
ATOM      9  C   UNL     1       4.798   3.933  15.672  0.00  0.00    +0.000 A 
ATOM     10  C   UNL     1       5.098   4.098  17.043  0.00  0.00    +0.000 A 
ENDROOT
BRANCH   1  11
ATOM     11  C   UNL     1       2.975   2.806  17.939  0.00  0.00    +0.000 C 
ATOM     12  O   UNL     1       3.059   1.631  17.603  0.00  0.00    +0.000 OA
BRANCH  11  13
ATOM     13  O   UNL     1       1.737   3.344  18.119  0.00  0.00    +0.000 OA
BRANCH  13  15
ATOM     14  C   UNL     1       0.929   3.948  20.296  0.00  0.00    +0.000 C 
ATOM     15  C   UNL     1       0.860   2.971  19.132  0.00  0.00    +0.000 C 
ENDBRANCH  13  15
ENDBRANCH  11  13
ENDBRANCH   1  11
BRANCH   7  16
ATOM     16  O   UNL     1       7.582   5.677  14.027  0.00  0.00    +0.000 OA
ATOM     17  C   UNL     1       8.170   4.977  12.992  0.00  0.00    +0.000 C 
ENDBRANCH   7  16
BRANCH   4  18
ATOM     18  C   UNL     1       7.816   5.796  19.238  0.00  0.00    +0.000 C 
BRANCH  18  19
ATOM     19  N   UNL     1       8.214   5.370  20.576  0.00  0.00    +0.000 NA
ATOM     20  H   UNL     1       7.380   5.411  21.205  0.00  0.00    +0.000 HD
ATOM     21  H   UNL     1       8.911   6.061  20.939  0.00  0.00    +0.000 HD
ENDBRANCH  18  19
ENDBRANCH   4  18
BRANCH   8  22
ATOM     22  O   UNL     1       5.176   4.282  13.374  0.00  0.00    +0.000 OA
BRANCH  22  23
ATOM     23  C   UNL     1       5.399   3.181  12.565  0.00  0.00    +0.000 C 
ATOM     24  C   UNL     1       4.393   3.157  11.422  0.00  0.00    +0.000 C 
ENDBRANCH  22  23
ENDBRANCH   8  22
TORSDOF 8
ENDMDL
MODEL 2
REMARK VINA RESULT:      -6.7      3.225      4.868
REMARK  Name = 
REMARK  11 active torsions:
REMARK  status: ('A' for Active; 'I' for Inactive)
REMARK    1  A    between atoms: C_1  and  C_2
REMARK    2  A    between atoms: C_2  and  O_3
REMARK    3  A    between atoms: O_3  and  C_4
REMARK    4  A    between atoms: C_4  and  C_6
REMARK    5  A    between atoms: C_9  and  C_10
REMARK    6  A    between atoms: C_10  and  N_11
REMARK    7  A    between atoms: C_14  and  O_15
REMARK    8  A    between atoms: O_15  and  C_16
REMARK    9  A    between atoms: C_17  and  O_18
REMARK   10  A    between atoms: O_18  and  C_19
REMARK   11  A    between atoms: C_19  and  C_20
REMARK                            x       y       z     vdW  Elec       q    Type
REMARK                         _______ _______ _______ _____ _____    ______ ____
ROOT
ATOM      1  C   UNL     1       2.505   5.913  19.083  0.00  0.00    +0.000 A 
ATOM      2  C   UNL     1       1.634   4.843  19.377  0.00  0.00    +0.000 A 
ATOM      3  N   UNL     1       1.823   3.613  18.859  0.00  0.00    +0.000 NA
ATOM      4  C   UNL     1       2.844   3.310  18.027  0.00  0.00    +0.000 A 
ATOM      5  C   UNL     1       3.780   4.322  17.684  0.00  0.00    +0.000 A 
ATOM      6  C   UNL     1       4.875   4.039  16.845  0.00  0.00    +0.000 A 
ATOM      7  C   UNL     1       5.833   5.019  16.529  0.00  0.00    +0.000 A 
ATOM      8  C   UNL     1       5.686   6.321  17.058  0.00  0.00    +0.000 A 
ATOM      9  C   UNL     1       4.580   6.614  17.870  0.00  0.00    +0.000 A 
ATOM     10  C   UNL     1       3.616   5.640  18.214  0.00  0.00    +0.000 A 
ENDROOT
BRANCH   1  11
ATOM     11  C   UNL     1       2.155   7.233  19.734  0.00  0.00    +0.000 C 
ATOM     12  O   UNL     1       1.724   7.214  20.881  0.00  0.00    +0.000 OA
BRANCH  11  13
ATOM     13  O   UNL     1       2.260   8.434  19.100  0.00  0.00    +0.000 OA
BRANCH  13  15
ATOM     14  C   UNL     1       0.631   9.868  18.076  0.00  0.00    +0.000 C 
ATOM     15  C   UNL     1       1.636   8.741  17.894  0.00  0.00    +0.000 C 
ENDBRANCH  13  15
ENDBRANCH  11  13
ENDBRANCH   1  11
BRANCH   7  16
ATOM     16  O   UNL     1       6.890   4.730  15.722  0.00  0.00    +0.000 OA
ATOM     17  C   UNL     1       6.877   4.626  14.345  0.00  0.00    +0.000 C 
ENDBRANCH   7  16
BRANCH   4  18
ATOM     18  C   UNL     1       2.924   1.876  17.551  0.00  0.00    +0.000 C 
BRANCH  18  19
ATOM     19  N   UNL     1       3.817   1.084  18.392  0.00  0.00    +0.000 NA
ATOM     20  H   UNL     1       3.487   1.144  19.384  0.00  0.00    +0.000 HD
ATOM     21  H   UNL     1       4.767   1.521  18.354  0.00  0.00    +0.000 HD
ENDBRANCH  18  19
ENDBRANCH   4  18
BRANCH   8  22
ATOM     22  O   UNL     1       6.571   7.339  16.844  0.00  0.00    +0.000 OA
BRANCH  22  23
ATOM     23  C   UNL     1       7.768   7.564  17.501  0.00  0.00    +0.000 C 
ATOM     24  C   UNL     1       7.917   9.044  17.828  0.00  0.00    +0.000 C 
ENDBRANCH  22  23
ENDBRANCH   8  22
TORSDOF 8
ENDMDL
MODEL 3
REMARK VINA RESULT:      -6.7      3.027      4.749
REMARK  Name = 
REMARK  11 active torsions:
REMARK  status: ('A' for Active; 'I' for Inactive)
REMARK    1  A    between atoms: C_1  and  C_2
REMARK    2  A    between atoms: C_2  and  O_3
REMARK    3  A    between atoms: O_3  and  C_4
REMARK    4  A    between atoms: C_4  and  C_6
REMARK    5  A    between atoms: C_9  and  C_10
REMARK    6  A    between atoms: C_10  and  N_11
REMARK    7  A    between atoms: C_14  and  O_15
REMARK    8  A    between atoms: O_15  and  C_16
REMARK    9  A    between atoms: C_17  and  O_18
REMARK   10  A    between atoms: O_18  and  C_19
REMARK   11  A    between atoms: C_19  and  C_20
REMARK                            x       y       z     vdW  Elec       q    Type
REMARK                         _______ _______ _______ _____ _____    ______ ____
ROOT
ATOM      1  C   UNL     1       2.532   5.843  19.045  0.00  0.00    +0.000 A 
ATOM      2  C   UNL     1       1.696   4.752  19.363  0.00  0.00    +0.000 A 
ATOM      3  N   UNL     1       1.943   3.510  18.900  0.00  0.00    +0.000 NA
ATOM      4  C   UNL     1       2.994   3.215  18.103  0.00  0.00    +0.000 A 
ATOM      5  C   UNL     1       3.898   4.248  17.739  0.00  0.00    +0.000 A 
ATOM      6  C   UNL     1       5.022   3.976  16.936  0.00  0.00    +0.000 A 
ATOM      7  C   UNL     1       5.949   4.979  16.601  0.00  0.00    +0.000 A 
ATOM      8  C   UNL     1       5.740   6.294  17.074  0.00  0.00    +0.000 A 
ATOM      9  C   UNL     1       4.606   6.576  17.850  0.00  0.00    +0.000 A 
ATOM     10  C   UNL     1       3.671   5.579  18.212  0.00  0.00    +0.000 A 
ENDROOT
BRANCH   1  11
ATOM     11  C   UNL     1       2.117   7.173  19.635  0.00  0.00    +0.000 C 
ATOM     12  O   UNL     1       2.228   8.173  18.935  0.00  0.00    +0.000 OA
BRANCH  11  13
ATOM     13  O   UNL     1       1.665   7.320  20.910  0.00  0.00    +0.000 OA
BRANCH  13  15
ATOM     14  C   UNL     1      -0.241   8.568  21.665  0.00  0.00    +0.000 C 
ATOM     15  C   UNL     1       1.267   8.532  21.467  0.00  0.00    +0.000 C 
ENDBRANCH  13  15
ENDBRANCH  11  13
ENDBRANCH   1  11
BRANCH   7  16
ATOM     16  O   UNL     1       7.035   4.700  15.829  0.00  0.00    +0.000 OA
ATOM     17  C   UNL     1       7.111   4.764  14.452  0.00  0.00    +0.000 C 
ENDBRANCH   7  16
BRANCH   4  18
ATOM     18  C   UNL     1       3.139   1.768  17.686  0.00  0.00    +0.000 C 
BRANCH  18  19
ATOM     19  N   UNL     1       4.035   1.043  18.583  0.00  0.00    +0.000 NA
ATOM     20  H   UNL     1       4.981   1.490  18.549  0.00  0.00    +0.000 HD
ATOM     21  H   UNL     1       4.139   0.069  18.216  0.00  0.00    +0.000 HD
ENDBRANCH  18  19
ENDBRANCH   4  18
BRANCH   8  22
ATOM     22  O   UNL     1       6.591   7.337  16.838  0.00  0.00    +0.000 OA
BRANCH  22  23
ATOM     23  C   UNL     1       7.799   7.594  17.463  0.00  0.00    +0.000 C 
ATOM     24  C   UNL     1       7.897   9.069  17.827  0.00  0.00    +0.000 C 
ENDBRANCH  22  23
ENDBRANCH   8  22
TORSDOF 8
ENDMDL
MODEL 4
REMARK VINA RESULT:      -6.6      3.657      6.718
REMARK  Name = 
REMARK  11 active torsions:
REMARK  status: ('A' for Active; 'I' for Inactive)
REMARK    1  A    between atoms: C_1  and  C_2
REMARK    2  A    between atoms: C_2  and  O_3
REMARK    3  A    between atoms: O_3  and  C_4
REMARK    4  A    between atoms: C_4  and  C_6
REMARK    5  A    between atoms: C_9  and  C_10
REMARK    6  A    between atoms: C_10  and  N_11
REMARK    7  A    between atoms: C_14  and  O_15
REMARK    8  A    between atoms: O_15  and  C_16
REMARK    9  A    between atoms: C_17  and  O_18
REMARK   10  A    between atoms: O_18  and  C_19
REMARK   11  A    between atoms: C_19  and  C_20
REMARK                            x       y       z     vdW  Elec       q    Type
REMARK                         _______ _______ _______ _____ _____    ______ ____
ROOT
ATOM      1  C   UNL     1       4.179   4.708  17.987  0.00  0.00    +0.000 A 
ATOM      2  C   UNL     1       4.318   3.381  18.443  0.00  0.00    +0.000 A 
ATOM      3  N   UNL     1       3.715   2.951  19.570  0.00  0.00    +0.000 NA
ATOM      4  C   UNL     1       2.942   3.746  20.343  0.00  0.00    +0.000 A 
ATOM      5  C   UNL     1       2.734   5.097  19.956  0.00  0.00    +0.000 A 
ATOM      6  C   UNL     1       1.911   5.948  20.717  0.00  0.00    +0.000 A 
ATOM      7  C   UNL     1       1.662   7.276  20.325  0.00  0.00    +0.000 A 
ATOM      8  C   UNL     1       2.261   7.769  19.144  0.00  0.00    +0.000 A 
ATOM      9  C   UNL     1       3.105   6.932  18.399  0.00  0.00    +0.000 A 
ATOM     10  C   UNL     1       3.355   5.590  18.766  0.00  0.00    +0.000 A 
ENDROOT
BRANCH   1  11
ATOM     11  C   UNL     1       4.923   5.039  16.712  0.00  0.00    +0.000 C 
ATOM     12  O   UNL     1       4.756   4.308  15.742  0.00  0.00    +0.000 OA
BRANCH  11  13
ATOM     13  O   UNL     1       5.793   6.079  16.600  0.00  0.00    +0.000 OA
BRANCH  13  15
ATOM     14  C   UNL     1       7.490   6.426  18.261  0.00  0.00    +0.000 C 
ATOM     15  C   UNL     1       7.161   5.987  16.842  0.00  0.00    +0.000 C 
ENDBRANCH  13  15
ENDBRANCH  11  13
ENDBRANCH   1  11
BRANCH   7  16
ATOM     16  O   UNL     1       0.858   8.086  21.067  0.00  0.00    +0.000 OA
ATOM     17  C   UNL     1       1.255   8.967  22.054  0.00  0.00    +0.000 C 
ENDBRANCH   7  16
BRANCH   4  18
ATOM     18  C   UNL     1       2.321   3.103  21.564  0.00  0.00    +0.000 C 
BRANCH  18  19
ATOM     19  N   UNL     1       0.937   2.711  21.314  0.00  0.00    +0.000 NA
ATOM     20  H   UNL     1       0.303   3.385  21.801  0.00  0.00    +0.000 HD
ATOM     21  H   UNL     1       0.785   1.772  21.749  0.00  0.00    +0.000 HD
ENDBRANCH  18  19
ENDBRANCH   4  18
BRANCH   8  22
ATOM     22  O   UNL     1       2.063   9.028  18.653  0.00  0.00    +0.000 OA
BRANCH  22  23
ATOM     23  C   UNL     1       1.083   9.440  17.766  0.00  0.00    +0.000 C 
ATOM     24  C   UNL     1      -0.006  10.205  18.505  0.00  0.00    +0.000 C 
ENDBRANCH  22  23
ENDBRANCH   8  22
TORSDOF 8
ENDMDL
MODEL 5
REMARK VINA RESULT:      -6.6      2.870      6.428
REMARK  Name = 
REMARK  11 active torsions:
REMARK  status: ('A' for Active; 'I' for Inactive)
REMARK    1  A    between atoms: C_1  and  C_2
REMARK    2  A    between atoms: C_2  and  O_3
REMARK    3  A    between atoms: O_3  and  C_4
REMARK    4  A    between atoms: C_4  and  C_6
REMARK    5  A    between atoms: C_9  and  C_10
REMARK    6  A    between atoms: C_10  and  N_11
REMARK    7  A    between atoms: C_14  and  O_15
REMARK    8  A    between atoms: O_15  and  C_16
REMARK    9  A    between atoms: C_17  and  O_18
REMARK   10  A    between atoms: O_18  and  C_19
REMARK   11  A    between atoms: C_19  and  C_20
REMARK                            x       y       z     vdW  Elec       q    Type
REMARK                         _______ _______ _______ _____ _____    ______ ____
ROOT
ATOM      1  C   UNL     1       7.049   5.369  17.633  0.00  0.00    +0.000 A 
ATOM      2  C   UNL     1       7.689   5.297  16.379  0.00  0.00    +0.000 A 
ATOM      3  N   UNL     1       7.065   4.801  15.291  0.00  0.00    +0.000 NA
ATOM      4  C   UNL     1       5.796   4.336  15.316  0.00  0.00    +0.000 A 
ATOM      5  C   UNL     1       5.067   4.380  16.533  0.00  0.00    +0.000 A 
ATOM      6  C   UNL     1       3.733   3.935  16.593  0.00  0.00    +0.000 A 
ATOM      7  C   UNL     1       2.983   4.009  17.781  0.00  0.00    +0.000 A 
ATOM      8  C   UNL     1       3.589   4.534  18.945  0.00  0.00    +0.000 A 
ATOM      9  C   UNL     1       4.928   4.952  18.896  0.00  0.00    +0.000 A 
ATOM     10  C   UNL     1       5.693   4.901  17.709  0.00  0.00    +0.000 A 
ENDROOT
BRANCH   1  11
ATOM     11  C   UNL     1       7.883   5.943  18.757  0.00  0.00    +0.000 C 
ATOM     12  O   UNL     1       8.167   5.209  19.697  0.00  0.00    +0.000 OA
BRANCH  11  13
ATOM     13  O   UNL     1       8.300   7.238  18.795  0.00  0.00    +0.000 OA
BRANCH  13  15
ATOM     14  C   UNL     1       8.516   9.562  18.237  0.00  0.00    +0.000 C 
ATOM     15  C   UNL     1       7.956   8.201  17.851  0.00  0.00    +0.000 C 
ENDBRANCH  13  15
ENDBRANCH  11  13
ENDBRANCH   1  11
BRANCH   7  16
ATOM     16  O   UNL     1       1.692   3.582  17.822  0.00  0.00    +0.000 OA
ATOM     17  C   UNL     1       1.209   2.467  18.478  0.00  0.00    +0.000 C 
ENDBRANCH   7  16
BRANCH   4  18
ATOM     18  C   UNL     1       5.238   3.832  14.003  0.00  0.00    +0.000 C 
BRANCH  18  19
ATOM     19  N   UNL     1       6.283   3.244  13.170  0.00  0.00    +0.000 NA
ATOM     20  H   UNL     1       7.050   2.893  13.789  0.00  0.00    +0.000 HD
ATOM     21  H   UNL     1       6.686   4.005  12.576  0.00  0.00    +0.000 HD
ENDBRANCH  18  19
ENDBRANCH   4  18
BRANCH   8  22
ATOM     22  O   UNL     1       2.947   4.683  20.141  0.00  0.00    +0.000 OA
BRANCH  22  23
ATOM     23  C   UNL     1       1.952   5.593  20.454  0.00  0.00    +0.000 C 
ATOM     24  C   UNL     1       2.248   6.938  19.805  0.00  0.00    +0.000 C 
ENDBRANCH  22  23
ENDBRANCH   8  22
TORSDOF 8
ENDMDL
MODEL 6
REMARK VINA RESULT:      -6.5      1.946      5.599
REMARK  Name = 
REMARK  11 active torsions:
REMARK  status: ('A' for Active; 'I' for Inactive)
REMARK    1  A    between atoms: C_1  and  C_2
REMARK    2  A    between atoms: C_2  and  O_3
REMARK    3  A    between atoms: O_3  and  C_4
REMARK    4  A    between atoms: C_4  and  C_6
REMARK    5  A    between atoms: C_9  and  C_10
REMARK    6  A    between atoms: C_10  and  N_11
REMARK    7  A    between atoms: C_14  and  O_15
REMARK    8  A    between atoms: O_15  and  C_16
REMARK    9  A    between atoms: C_17  and  O_18
REMARK   10  A    between atoms: O_18  and  C_19
REMARK   11  A    between atoms: C_19  and  C_20
REMARK                            x       y       z     vdW  Elec       q    Type
REMARK                         _______ _______ _______ _____ _____    ______ ____
ROOT
ATOM      1  C   UNL     1       6.031   4.415  14.552  0.00  0.00    +0.000 A 
ATOM      2  C   UNL     1       7.229   5.159  14.504  0.00  0.00    +0.000 A 
ATOM      3  N   UNL     1       7.639   5.910  15.546  0.00  0.00    +0.000 NA
ATOM      4  C   UNL     1       6.946   6.011  16.702  0.00  0.00    +0.000 A 
ATOM      5  C   UNL     1       5.733   5.286  16.847  0.00  0.00    +0.000 A 
ATOM      6  C   UNL     1       4.998   5.340  18.046  0.00  0.00    +0.000 A 
ATOM      7  C   UNL     1       3.817   4.597  18.220  0.00  0.00    +0.000 A 
ATOM      8  C   UNL     1       3.353   3.785  17.162  0.00  0.00    +0.000 A 
ATOM      9  C   UNL     1       4.067   3.751  15.954  0.00  0.00    +0.000 A 
ATOM     10  C   UNL     1       5.265   4.477  15.765  0.00  0.00    +0.000 A 
ENDROOT
BRANCH   1  11
ATOM     11  C   UNL     1       5.704   3.629  13.301  0.00  0.00    +0.000 C 
ATOM     12  O   UNL     1       6.512   2.790  12.920  0.00  0.00    +0.000 OA
BRANCH  11  13
ATOM     13  O   UNL     1       4.580   3.833  12.560  0.00  0.00    +0.000 OA
BRANCH  13  15
ATOM     14  C   UNL     1       3.400   3.907  10.471  0.00  0.00    +0.000 C 
ATOM     15  C   UNL     1       4.231   3.081  11.442  0.00  0.00    +0.000 C 
ENDBRANCH  13  15
ENDBRANCH  11  13
ENDBRANCH   1  11
BRANCH   7  16
ATOM     16  O   UNL     1       3.120   4.654  19.388  0.00  0.00    +0.000 OA
ATOM     17  C   UNL     1       2.276   5.666  19.800  0.00  0.00    +0.000 C 
ENDBRANCH   7  16
BRANCH   4  18
ATOM     18  C   UNL     1       7.556   6.879  17.780  0.00  0.00    +0.000 C 
BRANCH  18  19
ATOM     19  N   UNL     1       7.685   8.265  17.338  0.00  0.00    +0.000 NA
ATOM     20  H   UNL     1       8.410   8.740  17.925  0.00  0.00    +0.000 HD
ATOM     21  H   UNL     1       6.774   8.747  17.519  0.00  0.00    +0.000 HD
ENDBRANCH  18  19
ENDBRANCH   4  18
BRANCH   8  22
ATOM     22  O   UNL     1       2.238   2.997  17.232  0.00  0.00    +0.000 OA
BRANCH  22  23
ATOM     23  C   UNL     1       1.967   2.006  18.160  0.00  0.00    +0.000 C 
ATOM     24  C   UNL     1       0.669   2.316  18.894  0.00  0.00    +0.000 C 
ENDBRANCH  22  23
ENDBRANCH   8  22
TORSDOF 8
ENDMDL
MODEL 7
REMARK VINA RESULT:      -6.5      3.261      5.809
REMARK  Name = 
REMARK  11 active torsions:
REMARK  status: ('A' for Active; 'I' for Inactive)
REMARK    1  A    between atoms: C_1  and  C_2
REMARK    2  A    between atoms: C_2  and  O_3
REMARK    3  A    between atoms: O_3  and  C_4
REMARK    4  A    between atoms: C_4  and  C_6
REMARK    5  A    between atoms: C_9  and  C_10
REMARK    6  A    between atoms: C_10  and  N_11
REMARK    7  A    between atoms: C_14  and  O_15
REMARK    8  A    between atoms: O_15  and  C_16
REMARK    9  A    between atoms: C_17  and  O_18
REMARK   10  A    between atoms: O_18  and  C_19
REMARK   11  A    between atoms: C_19  and  C_20
REMARK                            x       y       z     vdW  Elec       q    Type
REMARK                         _______ _______ _______ _____ _____    ______ ____
ROOT
ATOM      1  C   UNL     1       3.502   7.127  17.546  0.00  0.00    +0.000 A 
ATOM      2  C   UNL     1       4.566   7.628  16.767  0.00  0.00    +0.000 A 
ATOM      3  N   UNL     1       5.489   6.812  16.218  0.00  0.00    +0.000 NA
ATOM      4  C   UNL     1       5.471   5.469  16.369  0.00  0.00    +0.000 A 
ATOM      5  C   UNL     1       4.428   4.873  17.128  0.00  0.00    +0.000 A 
ATOM      6  C   UNL     1       4.356   3.475  17.283  0.00  0.00    +0.000 A 
ATOM      7  C   UNL     1       3.308   2.866  17.996  0.00  0.00    +0.000 A 
ATOM      8  C   UNL     1       2.309   3.678  18.579  0.00  0.00    +0.000 A 
ATOM      9  C   UNL     1       2.394   5.073  18.451  0.00  0.00    +0.000 A 
ATOM     10  C   UNL     1       3.429   5.704  17.724  0.00  0.00    +0.000 A 
ENDROOT
BRANCH   1  11
ATOM     11  C   UNL     1       2.554   8.169  18.098  0.00  0.00    +0.000 C 
ATOM     12  O   UNL     1       2.195   9.074  17.353  0.00  0.00    +0.000 OA
BRANCH  11  13
ATOM     13  O   UNL     1       2.112   8.173  19.386  0.00  0.00    +0.000 OA
BRANCH  13  15
ATOM     14  C   UNL     1       0.903   8.799  21.363  0.00  0.00    +0.000 C 
ATOM     15  C   UNL     1       1.164   9.060  19.886  0.00  0.00    +0.000 C 
ENDBRANCH  13  15
ENDBRANCH  11  13
ENDBRANCH   1  11
BRANCH   7  16
ATOM     16  O   UNL     1       3.247   1.513  18.132  0.00  0.00    +0.000 OA
ATOM     17  C   UNL     1       4.012   0.730  18.974  0.00  0.00    +0.000 C 
ENDBRANCH   7  16
BRANCH   4  18
ATOM     18  C   UNL     1       6.568   4.697  15.671  0.00  0.00    +0.000 C 
BRANCH  18  19
ATOM     19  N   UNL     1       6.990   5.363  14.443  0.00  0.00    +0.000 NA
ATOM     20  H   UNL     1       7.707   4.769  13.966  0.00  0.00    +0.000 HD
ATOM     21  H   UNL     1       7.457   6.261  14.707  0.00  0.00    +0.000 HD
ENDBRANCH  18  19
ENDBRANCH   4  18
BRANCH   8  22
ATOM     22  O   UNL     1       1.231   3.193  19.263  0.00  0.00    +0.000 OA
BRANCH  22  23
ATOM     23  C   UNL     1       0.931   3.381  20.601  0.00  0.00    +0.000 C 
ATOM     24  C   UNL     1       2.040   2.807  21.473  0.00  0.00    +0.000 C 
ENDBRANCH  22  23
ENDBRANCH   8  22
TORSDOF 8
ENDMDL
MODEL 8
REMARK VINA RESULT:      -6.4      3.388      5.129
REMARK  Name = 
REMARK  11 active torsions:
REMARK  status: ('A' for Active; 'I' for Inactive)
REMARK    1  A    between atoms: C_1  and  C_2
REMARK    2  A    between atoms: C_2  and  O_3
REMARK    3  A    between atoms: O_3  and  C_4
REMARK    4  A    between atoms: C_4  and  C_6
REMARK    5  A    between atoms: C_9  and  C_10
REMARK    6  A    between atoms: C_10  and  N_11
REMARK    7  A    between atoms: C_14  and  O_15
REMARK    8  A    between atoms: O_15  and  C_16
REMARK    9  A    between atoms: C_17  and  O_18
REMARK   10  A    between atoms: O_18  and  C_19
REMARK   11  A    between atoms: C_19  and  C_20
REMARK                            x       y       z     vdW  Elec       q    Type
REMARK                         _______ _______ _______ _____ _____    ______ ____
ROOT
ATOM      1  C   UNL     1       2.267   6.376  19.622  0.00  0.00    +0.000 A 
ATOM      2  C   UNL     1       1.442   5.452  20.296  0.00  0.00    +0.000 A 
ATOM      3  N   UNL     1       1.600   4.121  20.150  0.00  0.00    +0.000 NA
ATOM      4  C   UNL     1       2.547   3.572  19.356  0.00  0.00    +0.000 A 
ATOM      5  C   UNL     1       3.434   4.425  18.647  0.00  0.00    +0.000 A 
ATOM      6  C   UNL     1       4.453   3.893  17.834  0.00  0.00    +0.000 A 
ATOM      7  C   UNL     1       5.365   4.724  17.158  0.00  0.00    +0.000 A 
ATOM      8  C   UNL     1       5.248   6.126  17.290  0.00  0.00    +0.000 A 
ATOM      9  C   UNL     1       4.215   6.660  18.076  0.00  0.00    +0.000 A 
ATOM     10  C   UNL     1       3.299   5.843  18.777  0.00  0.00    +0.000 A 
ENDROOT
BRANCH   1  11
ATOM     11  C   UNL     1       1.959   7.834  19.884  0.00  0.00    +0.000 C 
ATOM     12  O   UNL     1       2.029   8.615  18.942  0.00  0.00    +0.000 OA
BRANCH  11  13
ATOM     13  O   UNL     1       1.647   8.325  21.114  0.00  0.00    +0.000 OA
BRANCH  13  15
ATOM     14  C   UNL     1       0.404   9.387  22.872  0.00  0.00    +0.000 C 
ATOM     15  C   UNL     1       0.378   8.758  21.486  0.00  0.00    +0.000 C 
ENDBRANCH  13  15
ENDBRANCH  11  13
ENDBRANCH   1  11
BRANCH   7  16
ATOM     16  O   UNL     1       6.349   4.195  16.381  0.00  0.00    +0.000 OA
ATOM     17  C   UNL     1       6.285   3.935  15.026  0.00  0.00    +0.000 C 
ENDBRANCH   7  16
BRANCH   4  18
ATOM     18  C   UNL     1       2.603   2.061  19.319  0.00  0.00    +0.000 C 
BRANCH  18  19
ATOM     19  N   UNL     1       1.414   1.499  18.687  0.00  0.00    +0.000 NA
ATOM     20  H   UNL     1       0.598   1.628  19.329  0.00  0.00    +0.000 HD
ATOM     21  H   UNL     1       1.563   0.469  18.579  0.00  0.00    +0.000 HD
ENDBRANCH  18  19
ENDBRANCH   4  18
BRANCH   8  22
ATOM     22  O   UNL     1       6.096   7.023  16.706  0.00  0.00    +0.000 OA
BRANCH  22  23
ATOM     23  C   UNL     1       7.121   7.728  17.313  0.00  0.00    +0.000 C 
ATOM     24  C   UNL     1       7.859   6.835  18.301  0.00  0.00    +0.000 C 
ENDBRANCH  22  23
ENDBRANCH   8  22
TORSDOF 8
ENDMDL
MODEL 9
REMARK VINA RESULT:      -6.4      3.532      5.216
REMARK  Name = 
REMARK  11 active torsions:
REMARK  status: ('A' for Active; 'I' for Inactive)
REMARK    1  A    between atoms: C_1  and  C_2
REMARK    2  A    between atoms: C_2  and  O_3
REMARK    3  A    between atoms: O_3  and  C_4
REMARK    4  A    between atoms: C_4  and  C_6
REMARK    5  A    between atoms: C_9  and  C_10
REMARK    6  A    between atoms: C_10  and  N_11
REMARK    7  A    between atoms: C_14  and  O_15
REMARK    8  A    between atoms: O_15  and  C_16
REMARK    9  A    between atoms: C_17  and  O_18
REMARK   10  A    between atoms: O_18  and  C_19
REMARK   11  A    between atoms: C_19  and  C_20
REMARK                            x       y       z     vdW  Elec       q    Type
REMARK                         _______ _______ _______ _____ _____    ______ ____
ROOT
ATOM      1  C   UNL     1       2.244   6.434  19.611  0.00  0.00    +0.000 A 
ATOM      2  C   UNL     1       1.413   5.529  20.305  0.00  0.00    +0.000 A 
ATOM      3  N   UNL     1       1.567   4.195  20.190  0.00  0.00    +0.000 NA
ATOM      4  C   UNL     1       2.512   3.624  19.411  0.00  0.00    +0.000 A 
ATOM      5  C   UNL     1       3.403   4.457  18.683  0.00  0.00    +0.000 A 
ATOM      6  C   UNL     1       4.421   3.902  17.885  0.00  0.00    +0.000 A 
ATOM      7  C   UNL     1       5.338   4.712  17.190  0.00  0.00    +0.000 A 
ATOM      8  C   UNL     1       5.226   6.117  17.289  0.00  0.00    +0.000 A 
ATOM      9  C   UNL     1       4.195   6.674  18.061  0.00  0.00    +0.000 A 
ATOM     10  C   UNL     1       3.274   5.878  18.780  0.00  0.00    +0.000 A 
ENDROOT
BRANCH   1  11
ATOM     11  C   UNL     1       1.941   7.899  19.837  0.00  0.00    +0.000 C 
ATOM     12  O   UNL     1       1.800   8.286  20.991  0.00  0.00    +0.000 OA
BRANCH  11  13
ATOM     13  O   UNL     1       1.781   8.797  18.826  0.00  0.00    +0.000 OA
BRANCH  13  15
ATOM     14  C   UNL     1      -0.206  10.026  18.276  0.00  0.00    +0.000 C 
ATOM     15  C   UNL     1       1.151  10.030  18.965  0.00  0.00    +0.000 C 
ENDBRANCH  13  15
ENDBRANCH  11  13
ENDBRANCH   1  11
BRANCH   7  16
ATOM     16  O   UNL     1       6.321   4.161  16.428  0.00  0.00    +0.000 OA
ATOM     17  C   UNL     1       6.270   3.901  15.072  0.00  0.00    +0.000 C 
ENDBRANCH   7  16
BRANCH   4  18
ATOM     18  C   UNL     1       2.563   2.112  19.410  0.00  0.00    +0.000 C 
BRANCH  18  19
ATOM     19  N   UNL     1       1.510   1.544  18.573  0.00  0.00    +0.000 NA
ATOM     20  H   UNL     1       1.008   0.806  19.118  0.00  0.00    +0.000 HD
ATOM     21  H   UNL     1       1.965   1.074  17.758  0.00  0.00    +0.000 HD
ENDBRANCH  18  19
ENDBRANCH   4  18
BRANCH   8  22
ATOM     22  O   UNL     1       6.079   6.997  16.686  0.00  0.00    +0.000 OA
BRANCH  22  23
ATOM     23  C   UNL     1       7.106   7.712  17.277  0.00  0.00    +0.000 C 
ATOM     24  C   UNL     1       7.847   6.836  18.278  0.00  0.00    +0.000 C 
ENDBRANCH  22  23
ENDBRANCH   8  22
TORSDOF 8
ENDMDL
