MODEL 1
REMARK VINA RESULT:      -5.9      0.000      0.000
REMARK  Name = 
REMARK  7 active torsions:
REMARK  status: ('A' for Active; 'I' for Inactive)
REMARK    1  A    between atoms: C_1  and  C_2
REMARK    2  A    between atoms: C_2  and  C_3
REMARK    3  A    between atoms: C_3  and  C_4
REMARK    4  A    between atoms: C_8  and  C_9
REMARK    5  A    between atoms: C_9  and  N_10
REMARK    6  A    between atoms: N_10  and  C_11
REMARK    7  A    between atoms: N_10  and  C_12
REMARK                            x       y       z     vdW  Elec       q    Type
REMARK                         _______ _______ _______ _____ _____    ______ ____
ROOT
ATOM      1  C   UNL     1       2.024   3.839  18.985  0.00  0.00    +0.000 C 
ATOM      2  C   UNL     1       2.727   4.883  18.502  0.00  0.00    +0.000 C 
ATOM      3  C   UNL     1       2.646   6.317  18.944  0.00  0.00    +0.000 C 
ATOM      4  C   UNL     1       3.443   7.043  17.847  0.00  0.00    +0.000 C 
ATOM      5  C   UNL     1       4.541   6.060  17.428  0.00  0.00    +0.000 C 
ATOM      6  C   UNL     1       3.799   4.765  17.511  0.00  0.00    +0.000 C 
ATOM      7  O   UNL     1       4.179   3.712  17.023  0.00  0.00    +0.000 OA
ENDROOT
BRANCH   1   8
ATOM      8  C   UNL     1       0.954   3.951  20.040  0.00  0.00    +0.000 C 
BRANCH   8  10
ATOM      9  C   UNL     1       2.787   2.661  21.193  0.00  0.00    +0.000 C 
ATOM     10  C   UNL     1       1.352   3.172  21.297  0.00  0.00    +0.000 C 
ENDBRANCH   8  10
ENDBRANCH   1   8
BRANCH   5  11
ATOM     11  C   UNL     1       5.136   6.322  16.029  0.00  0.00    +0.000 C 
BRANCH  11  12
ATOM     12  N   UNL     1       6.613   6.207  15.981  0.00  0.00    +0.000 NA
ATOM     13  C   UNL     1       7.229   6.267  17.318  0.00  0.00    +0.000 C 
ATOM     14  C   UNL     1       6.969   4.931  15.338  0.00  0.00    +0.000 C 
ENDBRANCH  11  12
ENDBRANCH   5  11
TORSDOF 4
ENDMDL
MODEL 2
REMARK VINA RESULT:      -5.7      2.464      5.661
REMARK  Name = 
REMARK  7 active torsions:
REMARK  status: ('A' for Active; 'I' for Inactive)
REMARK    1  A    between atoms: C_1  and  C_2
REMARK    2  A    between atoms: C_2  and  C_3
REMARK    3  A    between atoms: C_3  and  C_4
REMARK    4  A    between atoms: C_8  and  C_9
REMARK    5  A    between atoms: C_9  and  N_10
REMARK    6  A    between atoms: N_10  and  C_11
REMARK    7  A    between atoms: N_10  and  C_12
REMARK                            x       y       z     vdW  Elec       q    Type
REMARK                         _______ _______ _______ _____ _____    ______ ____
ROOT
ATOM      1  C   UNL     1       6.270   5.111  18.312  0.00  0.00    +0.000 C 
ATOM      2  C   UNL     1       4.961   5.394  18.472  0.00  0.00    +0.000 C 
ATOM      3  C   UNL     1       4.173   6.473  17.785  0.00  0.00    +0.000 C 
ATOM      4  C   UNL     1       2.860   6.479  18.586  0.00  0.00    +0.000 C 
ATOM      5  C   UNL     1       2.637   5.023  19.007  0.00  0.00    +0.000 C 
ATOM      6  C   UNL     1       4.041   4.598  19.289  0.00  0.00    +0.000 C 
ATOM      7  O   UNL     1       4.354   3.589  19.901  0.00  0.00    +0.000 OA
ENDROOT
BRANCH   1   8
ATOM      8  C   UNL     1       7.208   5.900  17.436  0.00  0.00    +0.000 C 
BRANCH   8  10
ATOM      9  C   UNL     1       7.749   8.356  17.614  0.00  0.00    +0.000 C 
ATOM     10  C   UNL     1       7.926   6.980  18.252  0.00  0.00    +0.000 C 
ENDBRANCH   8  10
ENDBRANCH   1   8
BRANCH   5  11
ATOM     11  C   UNL     1       1.700   4.843  20.221  0.00  0.00    +0.000 C 
BRANCH  11  12
ATOM     12  N   UNL     1       0.884   3.608  20.162  0.00  0.00    +0.000 NA
ATOM     13  C   UNL     1       1.020   2.899  18.877  0.00  0.00    +0.000 C 
ATOM     14  C   UNL     1       1.297   2.713  21.257  0.00  0.00    +0.000 C 
ENDBRANCH  11  12
ENDBRANCH   5  11
TORSDOF 4
ENDMDL
MODEL 3
REMARK VINA RESULT:      -5.7      2.539      5.819
REMARK  Name = 
REMARK  7 active torsions:
REMARK  status: ('A' for Active; 'I' for Inactive)
REMARK    1  A    between atoms: C_1  and  C_2
REMARK    2  A    between atoms: C_2  and  C_3
REMARK    3  A    between atoms: C_3  and  C_4
REMARK    4  A    between atoms: C_8  and  C_9
REMARK    5  A    between atoms: C_9  and  N_10
REMARK    6  A    between atoms: N_10  and  C_11
REMARK    7  A    between atoms: N_10  and  C_12
REMARK                            x       y       z     vdW  Elec       q    Type
REMARK                         _______ _______ _______ _____ _____    ______ ____
ROOT
ATOM      1  C   UNL     1       7.163   7.183  17.375  0.00  0.00    +0.000 C 
ATOM      2  C   UNL     1       6.340   6.184  17.755  0.00  0.00    +0.000 C 
ATOM      3  C   UNL     1       6.241   5.556  19.116  0.00  0.00    +0.000 C 
ATOM      4  C   UNL     1       5.370   4.318  18.842  0.00  0.00    +0.000 C 
ATOM      5  C   UNL     1       4.405   4.742  17.730  0.00  0.00    +0.000 C 
ATOM      6  C   UNL     1       5.300   5.606  16.901  0.00  0.00    +0.000 C 
ATOM      7  O   UNL     1       5.056   5.970  15.762  0.00  0.00    +0.000 OA
ENDROOT
BRANCH   1   8
ATOM      8  C   UNL     1       8.202   7.812  18.266  0.00  0.00    +0.000 C 
BRANCH   8  10
ATOM      9  C   UNL     1       9.173  10.001  19.057  0.00  0.00    +0.000 C 
ATOM     10  C   UNL     1       8.275   9.324  18.024  0.00  0.00    +0.000 C 
ENDBRANCH   8  10
ENDBRANCH   1   8
BRANCH   5  11
ATOM     11  C   UNL     1       3.794   3.571  16.931  0.00  0.00    +0.000 C 
BRANCH  11  12
ATOM     12  N   UNL     1       2.362   3.334  17.227  0.00  0.00    +0.000 NA
ATOM     13  C   UNL     1       2.155   2.217  18.167  0.00  0.00    +0.000 C 
ATOM     14  C   UNL     1       1.786   4.563  17.800  0.00  0.00    +0.000 C 
ENDBRANCH  11  12
ENDBRANCH   5  11
TORSDOF 4
ENDMDL
MODEL 4
REMARK VINA RESULT:      -5.6      2.013      2.461
REMARK  Name = 
REMARK  7 active torsions:
REMARK  status: ('A' for Active; 'I' for Inactive)
REMARK    1  A    between atoms: C_1  and  C_2
REMARK    2  A    between atoms: C_2  and  C_3
REMARK    3  A    between atoms: C_3  and  C_4
REMARK    4  A    between atoms: C_8  and  C_9
REMARK    5  A    between atoms: C_9  and  N_10
REMARK    6  A    between atoms: N_10  and  C_11
REMARK    7  A    between atoms: N_10  and  C_12
REMARK                            x       y       z     vdW  Elec       q    Type
REMARK                         _______ _______ _______ _____ _____    ______ ____
ROOT
ATOM      1  C   UNL     1       3.139   2.672  19.180  0.00  0.00    +0.000 C 
ATOM      2  C   UNL     1       3.867   3.335  18.260  0.00  0.00    +0.000 C 
ATOM      3  C   UNL     1       3.458   3.688  16.858  0.00  0.00    +0.000 C 
ATOM      4  C   UNL     1       4.786   4.154  16.237  0.00  0.00    +0.000 C 
ATOM      5  C   UNL     1       5.553   4.823  17.383  0.00  0.00    +0.000 C 
ATOM      6  C   UNL     1       5.178   3.933  18.523  0.00  0.00    +0.000 C 
ATOM      7  O   UNL     1       5.747   3.908  19.603  0.00  0.00    +0.000 OA
ENDROOT
BRANCH   1   8
ATOM      8  C   UNL     1       1.770   2.096  18.926  0.00  0.00    +0.000 C 
BRANCH   8  10
ATOM      9  C   UNL     1       1.222   3.172  21.139  0.00  0.00    +0.000 C 
ATOM     10  C   UNL     1       0.710   2.847  19.738  0.00  0.00    +0.000 C 
ENDBRANCH   8  10
ENDBRANCH   1   8
BRANCH   5  11
ATOM     11  C   UNL     1       7.079   4.910  17.166  0.00  0.00    +0.000 C 
BRANCH  11  12
ATOM     12  N   UNL     1       7.646   6.244  17.472  0.00  0.00    +0.000 NA
ATOM     13  C   UNL     1       6.703   7.340  17.185  0.00  0.00    +0.000 C 
ATOM     14  C   UNL     1       8.021   6.286  18.896  0.00  0.00    +0.000 C 
ENDBRANCH  11  12
ENDBRANCH   5  11
TORSDOF 4
ENDMDL
MODEL 5
REMARK VINA RESULT:      -5.6      2.433      5.675
REMARK  Name = 
REMARK  7 active torsions:
REMARK  status: ('A' for Active; 'I' for Inactive)
REMARK    1  A    between atoms: C_1  and  C_2
REMARK    2  A    between atoms: C_2  and  C_3
REMARK    3  A    between atoms: C_3  and  C_4
REMARK    4  A    between atoms: C_8  and  C_9
REMARK    5  A    between atoms: C_9  and  N_10
REMARK    6  A    between atoms: N_10  and  C_11
REMARK    7  A    between atoms: N_10  and  C_12
REMARK                            x       y       z     vdW  Elec       q    Type
REMARK                         _______ _______ _______ _____ _____    ______ ____
ROOT
ATOM      1  C   UNL     1       6.614   4.720  18.322  0.00  0.00    +0.000 C 
ATOM      2  C   UNL     1       5.301   4.461  18.156  0.00  0.00    +0.000 C 
ATOM      3  C   UNL     1       4.384   5.043  17.118  0.00  0.00    +0.000 C 
ATOM      4  C   UNL     1       2.999   4.604  17.623  0.00  0.00    +0.000 C 
ATOM      5  C   UNL     1       3.224   3.239  18.282  0.00  0.00    +0.000 C 
ATOM      6  C   UNL     1       4.558   3.456  18.919  0.00  0.00    +0.000 C 
ATOM      7  O   UNL     1       5.045   2.737  19.776  0.00  0.00    +0.000 OA
ENDROOT
BRANCH   1   8
ATOM      8  C   UNL     1       7.392   5.719  17.507  0.00  0.00    +0.000 C 
BRANCH   8  10
ATOM      9  C   UNL     1       7.827   8.199  17.653  0.00  0.00    +0.000 C 
ATOM     10  C   UNL     1       7.892   6.865  18.393  0.00  0.00    +0.000 C 
ENDBRANCH   8  10
ENDBRANCH   1   8
BRANCH   5  11
ATOM     11  C   UNL     1       2.134   2.830  19.295  0.00  0.00    +0.000 C 
BRANCH  11  12
ATOM     12  N   UNL     1       2.207   3.570  20.576  0.00  0.00    +0.000 NA
ATOM     13  C   UNL     1       1.322   4.748  20.601  0.00  0.00    +0.000 C 
ATOM     14  C   UNL     1       1.833   2.659  21.673  0.00  0.00    +0.000 C 
ENDBRANCH  11  12
ENDBRANCH   5  11
TORSDOF 4
ENDMDL
MODEL 6
REMARK VINA RESULT:      -5.6      2.438      5.620
REMARK  Name = 
REMARK  7 active torsions:
REMARK  status: ('A' for Active; 'I' for Inactive)
REMARK    1  A    between atoms: C_1  and  C_2
REMARK    2  A    between atoms: C_2  and  C_3
REMARK    3  A    between atoms: C_3  and  C_4
REMARK    4  A    between atoms: C_8  and  C_9
REMARK    5  A    between atoms: C_9  and  N_10
REMARK    6  A    between atoms: N_10  and  C_11
REMARK    7  A    between atoms: N_10  and  C_12
REMARK                            x       y       z     vdW  Elec       q    Type
REMARK                         _______ _______ _______ _____ _____    ______ ____
ROOT
ATOM      1  C   UNL     1       6.081   4.752  17.704  0.00  0.00    +0.000 C 
ATOM      2  C   UNL     1       4.838   5.088  18.104  0.00  0.00    +0.000 C 
ATOM      3  C   UNL     1       3.958   6.164  17.532  0.00  0.00    +0.000 C 
ATOM      4  C   UNL     1       2.831   6.253  18.575  0.00  0.00    +0.000 C 
ATOM      5  C   UNL     1       2.657   4.825  19.103  0.00  0.00    +0.000 C 
ATOM      6  C   UNL     1       4.077   4.363  19.124  0.00  0.00    +0.000 C 
ATOM      7  O   UNL     1       4.478   3.371  19.712  0.00  0.00    +0.000 OA
ENDROOT
BRANCH   1   8
ATOM      8  C   UNL     1       6.848   5.467  16.622  0.00  0.00    +0.000 C 
BRANCH   8  10
ATOM      9  C   UNL     1       5.638   4.610  14.583  0.00  0.00    +0.000 C 
ATOM     10  C   UNL     1       6.948   4.595  15.366  0.00  0.00    +0.000 C 
ENDBRANCH   8  10
ENDBRANCH   1   8
BRANCH   5  11
ATOM     11  C   UNL     1       1.975   4.733  20.485  0.00  0.00    +0.000 C 
BRANCH  11  12
ATOM     12  N   UNL     1       1.024   3.602  20.603  0.00  0.00    +0.000 NA
ATOM     13  C   UNL     1       0.844   2.879  19.332  0.00  0.00    +0.000 C 
ATOM     14  C   UNL     1       1.522   2.668  21.627  0.00  0.00    +0.000 C 
ENDBRANCH  11  12
ENDBRANCH   5  11
TORSDOF 4
ENDMDL
MODEL 7
REMARK VINA RESULT:      -5.5      1.140      1.475
REMARK  Name = 
REMARK  7 active torsions:
REMARK  status: ('A' for Active; 'I' for Inactive)
REMARK    1  A    between atoms: C_1  and  C_2
REMARK    2  A    between atoms: C_2  and  C_3
REMARK    3  A    between atoms: C_3  and  C_4
REMARK    4  A    between atoms: C_8  and  C_9
REMARK    5  A    between atoms: C_9  and  N_10
REMARK    6  A    between atoms: N_10  and  C_11
REMARK    7  A    between atoms: N_10  and  C_12
REMARK                            x       y       z     vdW  Elec       q    Type
REMARK                         _______ _______ _______ _____ _____    ______ ____
ROOT
ATOM      1  C   UNL     1       2.403   3.699  17.937  0.00  0.00    +0.000 C 
ATOM      2  C   UNL     1       3.119   4.835  17.821  0.00  0.00    +0.000 C 
ATOM      3  C   UNL     1       2.703   6.219  18.234  0.00  0.00    +0.000 C 
ATOM      4  C   UNL     1       3.790   7.093  17.587  0.00  0.00    +0.000 C 
ATOM      5  C   UNL     1       5.067   6.248  17.629  0.00  0.00    +0.000 C 
ATOM      6  C   UNL     1       4.508   4.889  17.357  0.00  0.00    +0.000 C 
ATOM      7  O   UNL     1       5.170   3.914  17.038  0.00  0.00    +0.000 OA
ENDROOT
BRANCH   1   8
ATOM      8  C   UNL     1       0.991   3.634  18.457  0.00  0.00    +0.000 C 
BRANCH   8  10
ATOM      9  C   UNL     1       1.933   2.526  20.516  0.00  0.00    +0.000 C 
ATOM     10  C   UNL     1       0.982   3.598  19.989  0.00  0.00    +0.000 C 
ENDBRANCH   8  10
ENDBRANCH   1   8
BRANCH   5  11
ATOM     11  C   UNL     1       6.147   6.667  16.610  0.00  0.00    +0.000 C 
BRANCH  11  12
ATOM     12  N   UNL     1       7.475   6.914  17.220  0.00  0.00    +0.000 NA
ATOM     13  C   UNL     1       7.680   8.330  17.576  0.00  0.00    +0.000 C 
ATOM     14  C   UNL     1       7.602   6.086  18.432  0.00  0.00    +0.000 C 
ENDBRANCH  11  12
ENDBRANCH   5  11
TORSDOF 4
ENDMDL
MODEL 8
REMARK VINA RESULT:      -5.5      1.398      2.040
REMARK  Name = 
REMARK  7 active torsions:
REMARK  status: ('A' for Active; 'I' for Inactive)
REMARK    1  A    between atoms: C_1  and  C_2
REMARK    2  A    between atoms: C_2  and  C_3
REMARK    3  A    between atoms: C_3  and  C_4
REMARK    4  A    between atoms: C_8  and  C_9
REMARK    5  A    between atoms: C_9  and  N_10
REMARK    6  A    between atoms: N_10  and  C_11
REMARK    7  A    between atoms: N_10  and  C_12
REMARK                            x       y       z     vdW  Elec       q    Type
REMARK                         _______ _______ _______ _____ _____    ______ ____
ROOT
ATOM      1  C   UNL     1       1.946   4.653  19.103  0.00  0.00    +0.000 C 
ATOM      2  C   UNL     1       2.937   4.509  18.200  0.00  0.00    +0.000 C 
ATOM      3  C   UNL     1       3.293   3.268  17.431  0.00  0.00    +0.000 C 
ATOM      4  C   UNL     1       4.651   3.645  16.814  0.00  0.00    +0.000 C 
ATOM      5  C   UNL     1       4.565   5.149  16.538  0.00  0.00    +0.000 C 
ATOM      6  C   UNL     1       3.785   5.605  17.728  0.00  0.00    +0.000 C 
ATOM      7  O   UNL     1       3.681   6.767  18.089  0.00  0.00    +0.000 OA
ENDROOT
BRANCH   1   8
ATOM      8  C   UNL     1       1.041   3.536  19.556  0.00  0.00    +0.000 C 
BRANCH   8  10
ATOM      9  C   UNL     1       2.552   2.694  21.390  0.00  0.00    +0.000 C 
ATOM     10  C   UNL     1       1.190   3.300  21.063  0.00  0.00    +0.000 C 
ENDBRANCH   8  10
ENDBRANCH   1   8
BRANCH   5  11
ATOM     11  C   UNL     1       5.931   5.856  16.408  0.00  0.00    +0.000 C 
BRANCH  11  12
ATOM     12  N   UNL     1       6.740   5.816  17.648  0.00  0.00    +0.000 NA
ATOM     13  C   UNL     1       7.669   4.673  17.681  0.00  0.00    +0.000 C 
ATOM     14  C   UNL     1       7.507   7.069  17.755  0.00  0.00    +0.000 C 
ENDBRANCH  11  12
ENDBRANCH   5  11
TORSDOF 4
ENDMDL
MODEL 9
REMARK VINA RESULT:      -5.5      2.380      5.739
REMARK  Name = 
REMARK  7 active torsions:
REMARK  status: ('A' for Active; 'I' for Inactive)
REMARK    1  A    between atoms: C_1  and  C_2
REMARK    2  A    between atoms: C_2  and  C_3
REMARK    3  A    between atoms: C_3  and  C_4
REMARK    4  A    between atoms: C_8  and  C_9
REMARK    5  A    between atoms: C_9  and  N_10
REMARK    6  A    between atoms: N_10  and  C_11
REMARK    7  A    between atoms: N_10  and  C_12
REMARK                            x       y       z     vdW  Elec       q    Type
REMARK                         _______ _______ _______ _____ _____    ______ ____
ROOT
ATOM      1  C   UNL     1       5.151   4.551  16.209  0.00  0.00    +0.000 C 
ATOM      2  C   UNL     1       4.339   4.970  17.201  0.00  0.00    +0.000 C 
ATOM      3  C   UNL     1       3.754   6.342  17.380  0.00  0.00    +0.000 C 
ATOM      4  C   UNL     1       3.186   6.272  18.807  0.00  0.00    +0.000 C 
ATOM      5  C   UNL     1       2.720   4.823  18.985  0.00  0.00    +0.000 C 
ATOM      6  C   UNL     1       3.791   4.095  18.240  0.00  0.00    +0.000 C 
ATOM      7  O   UNL     1       3.998   2.894  18.315  0.00  0.00    +0.000 OA
ENDROOT
BRANCH   1   8
ATOM      8  C   UNL     1       5.679   5.439  15.112  0.00  0.00    +0.000 C 
BRANCH   8  10
ATOM      9  C   UNL     1       6.082   3.713  13.320  0.00  0.00    +0.000 C 
ATOM     10  C   UNL     1       6.734   4.701  14.283  0.00  0.00    +0.000 C 
ENDBRANCH   8  10
ENDBRANCH   1   8
BRANCH   5  11
ATOM     11  C   UNL     1       2.593   4.366  20.454  0.00  0.00    +0.000 C 
BRANCH  11  12
ATOM     12  N   UNL     1       1.330   3.649  20.746  0.00  0.00    +0.000 NA
ATOM     13  C   UNL     1       0.724   3.055  19.540  0.00  0.00    +0.000 C 
ATOM     14  C   UNL     1       1.603   2.585  21.727  0.00  0.00    +0.000 C 
ENDBRANCH  11  12
ENDBRANCH   5  11
TORSDOF 4
ENDMDL
