MODEL 1
REMARK VINA RESULT:      -8.3      0.000      0.000
REMARK  Name = 
REMARK  11 active torsions:
REMARK  status: ('A' for Active; 'I' for Inactive)
REMARK    1  A    between atoms: C_1  and  C_2
REMARK    2  A    between atoms: C_2  and  O_3
REMARK    3  A    between atoms: O_3  and  C_4
REMARK    4  A    between atoms: C_4  and  C_6
REMARK    5  A    between atoms: C_6  and  O_7
REMARK    6  A    between atoms: C_8  and  C_9
REMARK    7  A    between atoms: C_9  and  C_11
REMARK    8  A    between atoms: N_13  and  C_14
REMARK    9  A    between atoms: C_14  and  C_15
REMARK   10  A    between atoms: C_27  and  O_28
REMARK   11  A    between atoms: O_28  and  C_29
REMARK                            x       y       z     vdW  Elec       q    Type
REMARK                         _______ _______ _______ _____ _____    ______ ____
ROOT
ATOM      1  C   UNL     1       4.830   5.609  18.321  0.00  0.00    +0.000 A 
ATOM      2  C   UNL     1       4.264   6.818  17.954  0.00  0.00    +0.000 A 
ATOM      3  N   UNL     1       2.922   6.783  18.196  0.00  0.00    +0.000 N 
ATOM      4  C   UNL     1       2.575   5.562  18.736  0.00  0.00    +0.000 A 
ATOM      5  C   UNL     1       1.323   5.080  19.148  0.00  0.00    +0.000 A 
ATOM      6  C   UNL     1       1.257   3.807  19.707  0.00  0.00    +0.000 A 
ATOM      7  C   UNL     1       2.405   3.041  19.871  0.00  0.00    +0.000 A 
ATOM      8  C   UNL     1       3.668   3.516  19.470  0.00  0.00    +0.000 A 
ATOM      9  C   UNL     1       3.753   4.803  18.861  0.00  0.00    +0.000 A 
ENDROOT
BRANCH   1  10
ATOM     10  C   UNL     1       6.268   5.385  18.169  0.00  0.00    +0.000 C 
ATOM     11  O   UNL     1       7.002   5.257  19.145  0.00  0.00    +0.000 OA
BRANCH  10  13
ATOM     12  C   UNL     1       6.591   4.506  15.869  0.00  0.00    +0.000 C 
ATOM     13  C   UNL     1       6.783   5.467  16.784  0.00  0.00    +0.000 C 
BRANCH  12  14
ATOM     14  C   UNL     1       7.042   4.779  14.471  0.00  0.00    +0.000 C 
ATOM     15  O   UNL     1       7.995   5.463  14.143  0.00  0.00    +0.000 OA
BRANCH  14  16
ATOM     16  O   UNL     1       6.116   4.218  13.643  0.00  0.00    +0.000 OA
BRANCH  16  18
ATOM     17  C   UNL     1       5.592   2.744  11.838  0.00  0.00    +0.000 C 
ATOM     18  C   UNL     1       6.638   3.677  12.422  0.00  0.00    +0.000 C 
ENDBRANCH  16  18
ENDBRANCH  14  16
ENDBRANCH  12  14
BRANCH  12  19
ATOM     19  O   UNL     1       5.903   3.332  16.128  0.00  0.00    +0.000 OA
ATOM     20  H   UNL     1       4.972   3.590  16.278  0.00  0.00    +0.000 HD
ENDBRANCH  12  19
ENDBRANCH  10  13
ENDBRANCH   1  10
BRANCH   8  21
ATOM     21  O   UNL     1       4.832   2.821  19.655  0.00  0.00    +0.000 OA
ATOM     22  C   UNL     1       4.847   1.778  20.621  0.00  0.00    +0.000 C 
ENDBRANCH   8  21
BRANCH   3  23
ATOM     23  C   UNL     1       2.019   7.898  17.916  0.00  0.00    +0.000 C 
BRANCH  23  24
ATOM     24  C   UNL     1       1.495   8.519  19.190  0.00  0.00    +0.000 A 
ATOM     25  C   UNL     1       1.831   7.982  20.445  0.00  0.00    +0.000 A 
ATOM     26  C   UNL     1       1.280   8.503  21.619  0.00  0.00    +0.000 A 
ATOM     27  C   UNL     1       0.399   9.581  21.551  0.00  0.00    +0.000 A 
ATOM     28 CL   UNL     1      -0.315  10.185  22.995  0.00  0.00    +0.000 Cl
ATOM     29  C   UNL     1       0.097  10.148  20.316  0.00  0.00    +0.000 A 
ATOM     30  F   UNL     1      -0.734  11.197  20.227  0.00  0.00    +0.000 F 
ATOM     31  C   UNL     1       0.641   9.630  19.141  0.00  0.00    +0.000 A 
ENDBRANCH  23  24
ENDBRANCH   3  23
TORSDOF 9
ENDMDL
MODEL 2
REMARK VINA RESULT:      -7.8      1.150      1.315
REMARK  Name = 
REMARK  11 active torsions:
REMARK  status: ('A' for Active; 'I' for Inactive)
REMARK    1  A    between atoms: C_1  and  C_2
REMARK    2  A    between atoms: C_2  and  O_3
REMARK    3  A    between atoms: O_3  and  C_4
REMARK    4  A    between atoms: C_4  and  C_6
REMARK    5  A    between atoms: C_6  and  O_7
REMARK    6  A    between atoms: C_8  and  C_9
REMARK    7  A    between atoms: C_9  and  C_11
REMARK    8  A    between atoms: N_13  and  C_14
REMARK    9  A    between atoms: C_14  and  C_15
REMARK   10  A    between atoms: C_27  and  O_28
REMARK   11  A    between atoms: O_28  and  C_29
REMARK                            x       y       z     vdW  Elec       q    Type
REMARK                         _______ _______ _______ _____ _____    ______ ____
ROOT
ATOM      1  C   UNL     1       4.583   4.714  18.143  0.00  0.00    +0.000 A 
ATOM      2  C   UNL     1       3.869   5.741  17.551  0.00  0.00    +0.000 A 
ATOM      3  N   UNL     1       2.596   5.750  18.042  0.00  0.00    +0.000 N 
ATOM      4  C   UNL     1       2.446   4.743  18.973  0.00  0.00    +0.000 A 
ATOM      5  C   UNL     1       1.326   4.379  19.737  0.00  0.00    +0.000 A 
ATOM      6  C   UNL     1       1.459   3.334  20.648  0.00  0.00    +0.000 A 
ATOM      7  C   UNL     1       2.676   2.681  20.809  0.00  0.00    +0.000 A 
ATOM      8  C   UNL     1       3.809   3.042  20.055  0.00  0.00    +0.000 A 
ATOM      9  C   UNL     1       3.684   4.085  19.089  0.00  0.00    +0.000 A 
ENDROOT
BRANCH   1  10
ATOM     10  C   UNL     1       5.986   4.489  17.794  0.00  0.00    +0.000 C 
ATOM     11  O   UNL     1       6.873   4.546  18.641  0.00  0.00    +0.000 OA
BRANCH  10  13
ATOM     12  C   UNL     1       6.951   5.233  15.630  0.00  0.00    +0.000 C 
ATOM     13  C   UNL     1       6.267   4.332  16.349  0.00  0.00    +0.000 C 
BRANCH  12  14
ATOM     14  C   UNL     1       7.285   4.883  14.216  0.00  0.00    +0.000 C 
ATOM     15  O   UNL     1       8.076   5.468  13.497  0.00  0.00    +0.000 OA
BRANCH  14  16
ATOM     16  O   UNL     1       6.452   3.866  13.856  0.00  0.00    +0.000 OA
BRANCH  16  18
ATOM     17  C   UNL     1       4.979   3.400  12.034  0.00  0.00    +0.000 C 
ATOM     18  C   UNL     1       6.429   3.564  12.454  0.00  0.00    +0.000 C 
ENDBRANCH  16  18
ENDBRANCH  14  16
ENDBRANCH  12  14
BRANCH  12  19
ATOM     19  O   UNL     1       7.455   6.409  16.160  0.00  0.00    +0.000 OA
ATOM     20  H   UNL     1       6.744   7.074  16.071  0.00  0.00    +0.000 HD
ENDBRANCH  12  19
ENDBRANCH  10  13
ENDBRANCH   1  10
BRANCH   8  21
ATOM     21  O   UNL     1       5.039   2.464  20.212  0.00  0.00    +0.000 OA
ATOM     22  C   UNL     1       5.116   1.223  20.902  0.00  0.00    +0.000 C 
ENDBRANCH   8  21
BRANCH   3  23
ATOM     23  C   UNL     1       1.572   6.706  17.623  0.00  0.00    +0.000 C 
BRANCH  23  24
ATOM     24  C   UNL     1       1.521   7.901  18.545  0.00  0.00    +0.000 A 
ATOM     25  C   UNL     1       1.629   7.743  19.938  0.00  0.00    +0.000 A 
ATOM     26  C   UNL     1       1.498   8.838  20.796  0.00  0.00    +0.000 A 
ATOM     27  C   UNL     1       1.275  10.109  20.269  0.00  0.00    +0.000 A 
ATOM     28 CL   UNL     1       1.063  11.444  21.334  0.00  0.00    +0.000 Cl
ATOM     29  C   UNL     1       1.213  10.281  18.889  0.00  0.00    +0.000 A 
ATOM     30  F   UNL     1       1.017  11.497  18.358  0.00  0.00    +0.000 F 
ATOM     31  C   UNL     1       1.340   9.192  18.028  0.00  0.00    +0.000 A 
ENDBRANCH  23  24
ENDBRANCH   3  23
TORSDOF 9
ENDMDL
MODEL 3
REMARK VINA RESULT:      -7.7      1.694      2.042
REMARK  Name = 
REMARK  11 active torsions:
REMARK  status: ('A' for Active; 'I' for Inactive)
REMARK    1  A    between atoms: C_1  and  C_2
REMARK    2  A    between atoms: C_2  and  O_3
REMARK    3  A    between atoms: O_3  and  C_4
REMARK    4  A    between atoms: C_4  and  C_6
REMARK    5  A    between atoms: C_6  and  O_7
REMARK    6  A    between atoms: C_8  and  C_9
REMARK    7  A    between atoms: C_9  and  C_11
REMARK    8  A    between atoms: N_13  and  C_14
REMARK    9  A    between atoms: C_14  and  C_15
REMARK   10  A    between atoms: C_27  and  O_28
REMARK   11  A    between atoms: O_28  and  C_29
REMARK                            x       y       z     vdW  Elec       q    Type
REMARK                         _______ _______ _______ _____ _____    ______ ____
ROOT
ATOM      1  C   UNL     1       4.170   4.909  19.038  0.00  0.00    +0.000 A 
ATOM      2  C   UNL     1       3.718   6.018  19.733  0.00  0.00    +0.000 A 
ATOM      3  N   UNL     1       2.400   5.854  20.041  0.00  0.00    +0.000 N 
ATOM      4  C   UNL     1       1.956   4.635  19.570  0.00  0.00    +0.000 A 
ATOM      5  C   UNL     1       0.689   4.039  19.660  0.00  0.00    +0.000 A 
ATOM      6  C   UNL     1       0.519   2.764  19.129  0.00  0.00    +0.000 A 
ATOM      7  C   UNL     1       1.584   2.090  18.542  0.00  0.00    +0.000 A 
ATOM      8  C   UNL     1       2.863   2.672  18.454  0.00  0.00    +0.000 A 
ATOM      9  C   UNL     1       3.049   3.994  18.959  0.00  0.00    +0.000 A 
ENDROOT
BRANCH   1  10
ATOM     10  C   UNL     1       5.561   4.828  18.592  0.00  0.00    +0.000 C 
ATOM     11  O   UNL     1       6.477   4.631  19.385  0.00  0.00    +0.000 OA
BRANCH  10  13
ATOM     12  C   UNL     1       6.911   4.802  16.507  0.00  0.00    +0.000 C 
ATOM     13  C   UNL     1       5.792   5.138  17.163  0.00  0.00    +0.000 C 
BRANCH  12  14
ATOM     14  C   UNL     1       6.954   5.049  15.035  0.00  0.00    +0.000 C 
ATOM     15  O   UNL     1       7.844   5.616  14.425  0.00  0.00    +0.000 OA
BRANCH  14  16
ATOM     16  O   UNL     1       5.759   4.627  14.531  0.00  0.00    +0.000 OA
BRANCH  16  18
ATOM     17  C   UNL     1       5.790   3.592  12.379  0.00  0.00    +0.000 C 
ATOM     18  C   UNL     1       5.789   3.351  13.878  0.00  0.00    +0.000 C 
ENDBRANCH  16  18
ENDBRANCH  14  16
ENDBRANCH  12  14
BRANCH  12  19
ATOM     19  O   UNL     1       7.974   4.141  17.102  0.00  0.00    +0.000 OA
ATOM     20  H   UNL     1       8.640   4.009  16.398  0.00  0.00    +0.000 HD
ENDBRANCH  12  19
ENDBRANCH  10  13
ENDBRANCH   1  10
BRANCH   8  21
ATOM     21  O   UNL     1       3.953   2.031  17.931  0.00  0.00    +0.000 OA
ATOM     22  C   UNL     1       4.364   0.808  18.527  0.00  0.00    +0.000 C 
ENDBRANCH   8  21
BRANCH   3  23
ATOM     23  C   UNL     1       1.608   6.844  20.770  0.00  0.00    +0.000 C 
BRANCH  23  24
ATOM     24  C   UNL     1       1.531   8.152  20.018  0.00  0.00    +0.000 A 
ATOM     25  C   UNL     1       2.015   8.256  18.702  0.00  0.00    +0.000 A 
ATOM     26  C   UNL     1       2.021   9.485  18.036  0.00  0.00    +0.000 A 
ATOM     27  C   UNL     1       1.527  10.621  18.674  0.00  0.00    +0.000 A 
ATOM     28 CL   UNL     1       1.585  12.140  17.867  0.00  0.00    +0.000 Cl
ATOM     29  C   UNL     1       1.004  10.517  19.960  0.00  0.00    +0.000 A 
ATOM     30  F   UNL     1       0.507  11.593  20.588  0.00  0.00    +0.000 F 
ATOM     31  C   UNL     1       0.998   9.294  20.631  0.00  0.00    +0.000 A 
ENDBRANCH  23  24
ENDBRANCH   3  23
TORSDOF 9
ENDMDL
MODEL 4
REMARK VINA RESULT:      -7.7      1.775      2.146
REMARK  Name = 
REMARK  11 active torsions:
REMARK  status: ('A' for Active; 'I' for Inactive)
REMARK    1  A    between atoms: C_1  and  C_2
REMARK    2  A    between atoms: C_2  and  O_3
REMARK    3  A    between atoms: O_3  and  C_4
REMARK    4  A    between atoms: C_4  and  C_6
REMARK    5  A    between atoms: C_6  and  O_7
REMARK    6  A    between atoms: C_8  and  C_9
REMARK    7  A    between atoms: C_9  and  C_11
REMARK    8  A    between atoms: N_13  and  C_14
REMARK    9  A    between atoms: C_14  and  C_15
REMARK   10  A    between atoms: C_27  and  O_28
REMARK   11  A    between atoms: O_28  and  C_29
REMARK                            x       y       z     vdW  Elec       q    Type
REMARK                         _______ _______ _______ _____ _____    ______ ____
ROOT
ATOM      1  C   UNL     1       4.206   4.636  19.037  0.00  0.00    +0.000 A 
ATOM      2  C   UNL     1       3.912   5.685  19.890  0.00  0.00    +0.000 A 
ATOM      3  N   UNL     1       2.618   5.580  20.310  0.00  0.00    +0.000 N 
ATOM      4  C   UNL     1       2.036   4.458  19.756  0.00  0.00    +0.000 A 
ATOM      5  C   UNL     1       0.738   3.946  19.907  0.00  0.00    +0.000 A 
ATOM      6  C   UNL     1       0.418   2.756  19.261  0.00  0.00    +0.000 A 
ATOM      7  C   UNL     1       1.367   2.081  18.501  0.00  0.00    +0.000 A 
ATOM      8  C   UNL     1       2.675   2.579  18.348  0.00  0.00    +0.000 A 
ATOM      9  C   UNL     1       3.012   3.817  18.972  0.00  0.00    +0.000 A 
ENDROOT
BRANCH   1  10
ATOM     10  C   UNL     1       5.540   4.510  18.448  0.00  0.00    +0.000 C 
ATOM     11  O   UNL     1       6.534   4.333  19.146  0.00  0.00    +0.000 OA
BRANCH  10  13
ATOM     12  C   UNL     1       6.730   4.548  16.268  0.00  0.00    +0.000 C 
ATOM     13  C   UNL     1       5.618   4.749  16.989  0.00  0.00    +0.000 C 
BRANCH  12  14
ATOM     14  C   UNL     1       6.630   4.693  14.784  0.00  0.00    +0.000 C 
ATOM     15  O   UNL     1       7.169   5.550  14.107  0.00  0.00    +0.000 OA
BRANCH  14  16
ATOM     16  O   UNL     1       5.731   3.761  14.359  0.00  0.00    +0.000 OA
BRANCH  16  18
ATOM     17  C   UNL     1       6.426   3.167  12.152  0.00  0.00    +0.000 C 
ATOM     18  C   UNL     1       5.357   3.860  12.978  0.00  0.00    +0.000 C 
ENDBRANCH  16  18
ENDBRANCH  14  16
ENDBRANCH  12  14
BRANCH  12  19
ATOM     19  O   UNL     1       7.925   4.110  16.814  0.00  0.00    +0.000 OA
ATOM     20  H   UNL     1       7.787   3.173  17.055  0.00  0.00    +0.000 HD
ENDBRANCH  12  19
ENDBRANCH  10  13
ENDBRANCH   1  10
BRANCH   8  21
ATOM     21  O   UNL     1       3.656   1.928  17.653  0.00  0.00    +0.000 OA
ATOM     22  C   UNL     1       4.397   0.915  18.322  0.00  0.00    +0.000 C 
ENDBRANCH   8  21
BRANCH   3  23
ATOM     23  C   UNL     1       1.980   6.532  21.216  0.00  0.00    +0.000 C 
BRANCH  23  24
ATOM     24  C   UNL     1       1.531   7.776  20.486  0.00  0.00    +0.000 A 
ATOM     25  C   UNL     1       0.616   8.667  21.073  0.00  0.00    +0.000 A 
ATOM     26  C   UNL     1       0.137   9.772  20.365  0.00  0.00    +0.000 A 
ATOM     27  C   UNL     1       0.581  10.009  19.066  0.00  0.00    +0.000 A 
ATOM     28 CL   UNL     1      -0.052  11.343  18.183  0.00  0.00    +0.000 Cl
ATOM     29  C   UNL     1       1.522   9.158  18.494  0.00  0.00    +0.000 A 
ATOM     30  F   UNL     1       1.979   9.375  17.252  0.00  0.00    +0.000 F 
ATOM     31  C   UNL     1       2.002   8.051  19.194  0.00  0.00    +0.000 A 
ENDBRANCH  23  24
ENDBRANCH   3  23
TORSDOF 9
ENDMDL
MODEL 5
REMARK VINA RESULT:      -7.6      1.443      1.567
REMARK  Name = 
REMARK  11 active torsions:
REMARK  status: ('A' for Active; 'I' for Inactive)
REMARK    1  A    between atoms: C_1  and  C_2
REMARK    2  A    between atoms: C_2  and  O_3
REMARK    3  A    between atoms: O_3  and  C_4
REMARK    4  A    between atoms: C_4  and  C_6
REMARK    5  A    between atoms: C_6  and  O_7
REMARK    6  A    between atoms: C_8  and  C_9
REMARK    7  A    between atoms: C_9  and  C_11
REMARK    8  A    between atoms: N_13  and  C_14
REMARK    9  A    between atoms: C_14  and  C_15
REMARK   10  A    between atoms: C_27  and  O_28
REMARK   11  A    between atoms: O_28  and  C_29
REMARK                            x       y       z     vdW  Elec       q    Type
REMARK                         _______ _______ _______ _____ _____    ______ ____
ROOT
ATOM      1  C   UNL     1       4.336   5.901  18.210  0.00  0.00    +0.000 A 
ATOM      2  C   UNL     1       3.601   6.962  17.709  0.00  0.00    +0.000 A 
ATOM      3  N   UNL     1       2.311   6.864  18.143  0.00  0.00    +0.000 N 
ATOM      4  C   UNL     1       2.169   5.750  18.945  0.00  0.00    +0.000 A 
ATOM      5  C   UNL     1       1.039   5.258  19.615  0.00  0.00    +0.000 A 
ATOM      6  C   UNL     1       1.182   4.120  20.404  0.00  0.00    +0.000 A 
ATOM      7  C   UNL     1       2.419   3.501  20.541  0.00  0.00    +0.000 A 
ATOM      8  C   UNL     1       3.563   3.990  19.883  0.00  0.00    +0.000 A 
ATOM      9  C   UNL     1       3.429   5.133  19.038  0.00  0.00    +0.000 A 
ENDROOT
BRANCH   1  10
ATOM     10  C   UNL     1       5.760   5.772  17.897  0.00  0.00    +0.000 C 
ATOM     11  O   UNL     1       6.616   5.846  18.774  0.00  0.00    +0.000 OA
BRANCH  10  13
ATOM     12  C   UNL     1       7.070   4.914  15.970  0.00  0.00    +0.000 C 
ATOM     13  C   UNL     1       6.093   5.692  16.457  0.00  0.00    +0.000 C 
BRANCH  12  14
ATOM     14  C   UNL     1       7.205   4.820  14.485  0.00  0.00    +0.000 C 
ATOM     15  O   UNL     1       7.869   5.554  13.774  0.00  0.00    +0.000 OA
BRANCH  14  16
ATOM     16  O   UNL     1       6.353   3.838  14.074  0.00  0.00    +0.000 OA
BRANCH  16  18
ATOM     17  C   UNL     1       4.924   3.477  12.195  0.00  0.00    +0.000 C 
ATOM     18  C   UNL     1       6.364   3.570  12.665  0.00  0.00    +0.000 C 
ENDBRANCH  16  18
ENDBRANCH  14  16
ENDBRANCH  12  14
BRANCH  12  19
ATOM     19  O   UNL     1       7.878   4.117  16.762  0.00  0.00    +0.000 OA
ATOM     20  H   UNL     1       8.799   4.349  16.532  0.00  0.00    +0.000 HD
ENDBRANCH  12  19
ENDBRANCH  10  13
ENDBRANCH   1  10
BRANCH   8  21
ATOM     21  O   UNL     1       4.809   3.445  20.025  0.00  0.00    +0.000 OA
ATOM     22  C   UNL     1       4.909   2.055  20.305  0.00  0.00    +0.000 C 
ENDBRANCH   8  21
BRANCH   3  23
ATOM     23  C   UNL     1       1.263   7.821  17.793  0.00  0.00    +0.000 C 
BRANCH  23  24
ATOM     24  C   UNL     1       1.404   9.106  18.575  0.00  0.00    +0.000 A 
ATOM     25  C   UNL     1       0.991   9.182  19.916  0.00  0.00    +0.000 A 
ATOM     26  C   UNL     1       1.043  10.392  20.615  0.00  0.00    +0.000 A 
ATOM     27  C   UNL     1       1.525  11.536  19.983  0.00  0.00    +0.000 A 
ATOM     28 CL   UNL     1       1.538  13.033  20.833  0.00  0.00    +0.000 Cl
ATOM     29  C   UNL     1       1.979  11.459  18.670  0.00  0.00    +0.000 A 
ATOM     30  F   UNL     1       2.465  12.543  18.047  0.00  0.00    +0.000 F 
ATOM     31  C   UNL     1       1.927  10.256  17.967  0.00  0.00    +0.000 A 
ENDBRANCH  23  24
ENDBRANCH   3  23
TORSDOF 9
ENDMDL
MODEL 6
REMARK VINA RESULT:      -7.3      1.307      1.678
REMARK  Name = 
REMARK  11 active torsions:
REMARK  status: ('A' for Active; 'I' for Inactive)
REMARK    1  A    between atoms: C_1  and  C_2
REMARK    2  A    between atoms: C_2  and  O_3
REMARK    3  A    between atoms: O_3  and  C_4
REMARK    4  A    between atoms: C_4  and  C_6
REMARK    5  A    between atoms: C_6  and  O_7
REMARK    6  A    between atoms: C_8  and  C_9
REMARK    7  A    between atoms: C_9  and  C_11
REMARK    8  A    between atoms: N_13  and  C_14
REMARK    9  A    between atoms: C_14  and  C_15
REMARK   10  A    between atoms: C_27  and  O_28
REMARK   11  A    between atoms: O_28  and  C_29
REMARK                            x       y       z     vdW  Elec       q    Type
REMARK                         _______ _______ _______ _____ _____    ______ ____
ROOT
ATOM      1  C   UNL     1       4.540   4.747  18.211  0.00  0.00    +0.000 A 
ATOM      2  C   UNL     1       3.816   5.745  17.583  0.00  0.00    +0.000 A 
ATOM      3  N   UNL     1       2.533   5.736  18.048  0.00  0.00    +0.000 N 
ATOM      4  C   UNL     1       2.385   4.744  18.995  0.00  0.00    +0.000 A 
ATOM      5  C   UNL     1       1.258   4.372  19.744  0.00  0.00    +0.000 A 
ATOM      6  C   UNL     1       1.395   3.349  20.678  0.00  0.00    +0.000 A 
ATOM      7  C   UNL     1       2.621   2.726  20.878  0.00  0.00    +0.000 A 
ATOM      8  C   UNL     1       3.762   3.096  20.140  0.00  0.00    +0.000 A 
ATOM      9  C   UNL     1       3.635   4.117  19.151  0.00  0.00    +0.000 A 
ENDROOT
BRANCH   1  10
ATOM     10  C   UNL     1       5.955   4.545  17.896  0.00  0.00    +0.000 C 
ATOM     11  O   UNL     1       6.822   4.638  18.760  0.00  0.00    +0.000 OA
BRANCH  10  13
ATOM     12  C   UNL     1       6.942   5.271  15.736  0.00  0.00    +0.000 C 
ATOM     13  C   UNL     1       6.270   4.366  16.461  0.00  0.00    +0.000 C 
BRANCH  12  14
ATOM     14  C   UNL     1       7.315   4.901  14.337  0.00  0.00    +0.000 C 
ATOM     15  O   UNL     1       8.088   5.504  13.614  0.00  0.00    +0.000 OA
BRANCH  14  16
ATOM     16  O   UNL     1       6.536   3.836  13.991  0.00  0.00    +0.000 OA
BRANCH  16  18
ATOM     17  C   UNL     1       4.944   3.483  12.246  0.00  0.00    +0.000 C 
ATOM     18  C   UNL     1       6.420   3.597  12.582  0.00  0.00    +0.000 C 
ENDBRANCH  16  18
ENDBRANCH  14  16
ENDBRANCH  12  14
BRANCH  12  19
ATOM     19  O   UNL     1       7.399   6.473  16.249  0.00  0.00    +0.000 OA
ATOM     20  H   UNL     1       7.643   6.297  17.179  0.00  0.00    +0.000 HD
ENDBRANCH  12  19
ENDBRANCH  10  13
ENDBRANCH   1  10
BRANCH   8  21
ATOM     21  O   UNL     1       5.000   2.549  20.335  0.00  0.00    +0.000 OA
ATOM     22  C   UNL     1       5.078   1.224  20.847  0.00  0.00    +0.000 C 
ENDBRANCH   8  21
BRANCH   3  23
ATOM     23  C   UNL     1       1.498   6.660  17.588  0.00  0.00    +0.000 C 
BRANCH  23  24
ATOM     24  C   UNL     1       1.397   7.869  18.489  0.00  0.00    +0.000 A 
ATOM     25  C   UNL     1       1.239   9.158  17.950  0.00  0.00    +0.000 A 
ATOM     26  C   UNL     1       1.229  10.284  18.778  0.00  0.00    +0.000 A 
ATOM     27  C   UNL     1       1.361  10.132  20.156  0.00  0.00    +0.000 A 
ATOM     28 CL   UNL     1       1.400  11.526  21.164  0.00  0.00    +0.000 Cl
ATOM     29  C   UNL     1       1.472   8.856  20.701  0.00  0.00    +0.000 A 
ATOM     30  F   UNL     1       1.582   8.683  22.027  0.00  0.00    +0.000 F 
ATOM     31  C   UNL     1       1.485   7.728  19.881  0.00  0.00    +0.000 A 
ENDBRANCH  23  24
ENDBRANCH   3  23
TORSDOF 9
ENDMDL
MODEL 7
REMARK VINA RESULT:      -7.3      6.058      9.519
REMARK  Name = 
REMARK  11 active torsions:
REMARK  status: ('A' for Active; 'I' for Inactive)
REMARK    1  A    between atoms: C_1  and  C_2
REMARK    2  A    between atoms: C_2  and  O_3
REMARK    3  A    between atoms: O_3  and  C_4
REMARK    4  A    between atoms: C_4  and  C_6
REMARK    5  A    between atoms: C_6  and  O_7
REMARK    6  A    between atoms: C_8  and  C_9
REMARK    7  A    between atoms: C_9  and  C_11
REMARK    8  A    between atoms: N_13  and  C_14
REMARK    9  A    between atoms: C_14  and  C_15
REMARK   10  A    between atoms: C_27  and  O_28
REMARK   11  A    between atoms: O_28  and  C_29
REMARK                            x       y       z     vdW  Elec       q    Type
REMARK                         _______ _______ _______ _____ _____    ______ ____
ROOT
ATOM      1  C   UNL     1      -0.036  10.581  19.261  0.00  0.00    +0.000 A 
ATOM      2  C   UNL     1       0.938   9.759  18.720  0.00  0.00    +0.000 A 
ATOM      3  N   UNL     1       1.529   9.039  19.717  0.00  0.00    +0.000 N 
ATOM      4  C   UNL     1       0.955   9.359  20.930  0.00  0.00    +0.000 A 
ATOM      5  C   UNL     1       1.229   8.870  22.216  0.00  0.00    +0.000 A 
ATOM      6  C   UNL     1       0.461   9.337  23.279  0.00  0.00    +0.000 A 
ATOM      7  C   UNL     1      -0.566  10.250  23.067  0.00  0.00    +0.000 A 
ATOM      8  C   UNL     1      -0.858  10.742  21.781  0.00  0.00    +0.000 A 
ATOM      9  C   UNL     1      -0.057  10.304  20.684  0.00  0.00    +0.000 A 
ENDROOT
BRANCH   1  10
ATOM     10  C   UNL     1      -0.829  11.458  18.400  0.00  0.00    +0.000 C 
ATOM     11  O   UNL     1      -0.427  12.573  18.079  0.00  0.00    +0.000 OA
BRANCH  10  13
ATOM     12  C   UNL     1      -3.308  11.607  18.437  0.00  0.00    +0.000 C 
ATOM     13  C   UNL     1      -2.187  10.970  18.069  0.00  0.00    +0.000 C 
BRANCH  12  14
ATOM     14  C   UNL     1      -4.606  11.082  17.916  0.00  0.00    +0.000 C 
ATOM     15  O   UNL     1      -4.854  10.796  16.758  0.00  0.00    +0.000 OA
BRANCH  14  16
ATOM     16  O   UNL     1      -5.484  11.101  18.959  0.00  0.00    +0.000 OA
BRANCH  16  18
ATOM     17  C   UNL     1      -7.291   9.921  19.982  0.00  0.00    +0.000 C 
ATOM     18  C   UNL     1      -6.765  10.515  18.688  0.00  0.00    +0.000 C 
ENDBRANCH  16  18
ENDBRANCH  14  16
ENDBRANCH  12  14
BRANCH  12  19
ATOM     19  O   UNL     1      -3.313  12.778  19.176  0.00  0.00    +0.000 OA
ATOM     20  H   UNL     1      -3.837  12.591  19.980  0.00  0.00    +0.000 HD
ENDBRANCH  12  19
ENDBRANCH  10  13
ENDBRANCH   1  10
BRANCH   8  21
ATOM     21  O   UNL     1      -1.888  11.601  21.515  0.00  0.00    +0.000 OA
ATOM     22  C   UNL     1      -2.502  12.274  22.606  0.00  0.00    +0.000 C 
ENDBRANCH   8  21
BRANCH   3  23
ATOM     23  C   UNL     1       2.606   8.077  19.493  0.00  0.00    +0.000 C 
BRANCH  23  24
ATOM     24  C   UNL     1       2.077   6.665  19.405  0.00  0.00    +0.000 A 
ATOM     25  C   UNL     1       1.570   6.013  20.543  0.00  0.00    +0.000 A 
ATOM     26  C   UNL     1       1.158   4.679  20.481  0.00  0.00    +0.000 A 
ATOM     27  C   UNL     1       1.233   3.986  19.274  0.00  0.00    +0.000 A 
ATOM     28 CL   UNL     1       0.772   2.329  19.217  0.00  0.00    +0.000 Cl
ATOM     29  C   UNL     1       1.690   4.638  18.132  0.00  0.00    +0.000 A 
ATOM     30  F   UNL     1       1.753   3.998  16.956  0.00  0.00    +0.000 F 
ATOM     31  C   UNL     1       2.105   5.968  18.189  0.00  0.00    +0.000 A 
ENDBRANCH  23  24
ENDBRANCH   3  23
TORSDOF 9
ENDMDL
MODEL 8
REMARK VINA RESULT:      -7.3      1.173      1.444
REMARK  Name = 
REMARK  11 active torsions:
REMARK  status: ('A' for Active; 'I' for Inactive)
REMARK    1  A    between atoms: C_1  and  C_2
REMARK    2  A    between atoms: C_2  and  O_3
REMARK    3  A    between atoms: O_3  and  C_4
REMARK    4  A    between atoms: C_4  and  C_6
REMARK    5  A    between atoms: C_6  and  O_7
REMARK    6  A    between atoms: C_8  and  C_9
REMARK    7  A    between atoms: C_9  and  C_11
REMARK    8  A    between atoms: N_13  and  C_14
REMARK    9  A    between atoms: C_14  and  C_15
REMARK   10  A    between atoms: C_27  and  O_28
REMARK   11  A    between atoms: O_28  and  C_29
REMARK                            x       y       z     vdW  Elec       q    Type
REMARK                         _______ _______ _______ _____ _____    ______ ____
ROOT
ATOM      1  C   UNL     1       4.455   5.991  18.416  0.00  0.00    +0.000 A 
ATOM      2  C   UNL     1       3.906   7.192  18.003  0.00  0.00    +0.000 A 
ATOM      3  N   UNL     1       2.618   7.278  18.445  0.00  0.00    +0.000 N 
ATOM      4  C   UNL     1       2.294   6.147  19.166  0.00  0.00    +0.000 A 
ATOM      5  C   UNL     1       1.098   5.800  19.812  0.00  0.00    +0.000 A 
ATOM      6  C   UNL     1       1.051   4.600  20.515  0.00  0.00    +0.000 A 
ATOM      7  C   UNL     1       2.167   3.775  20.591  0.00  0.00    +0.000 A 
ATOM      8  C   UNL     1       3.376   4.115  19.955  0.00  0.00    +0.000 A 
ATOM      9  C   UNL     1       3.434   5.324  19.198  0.00  0.00    +0.000 A 
ENDROOT
BRANCH   1  10
ATOM     10  C   UNL     1       5.838   5.651  18.077  0.00  0.00    +0.000 C 
ATOM     11  O   UNL     1       6.709   5.579  18.939  0.00  0.00    +0.000 OA
BRANCH  10  13
ATOM     12  C   UNL     1       7.149   4.824  16.136  0.00  0.00    +0.000 C 
ATOM     13  C   UNL     1       6.132   5.545  16.630  0.00  0.00    +0.000 C 
BRANCH  12  14
ATOM     14  C   UNL     1       7.247   4.688  14.652  0.00  0.00    +0.000 C 
ATOM     15  O   UNL     1       7.867   5.420  13.901  0.00  0.00    +0.000 OA
BRANCH  14  16
ATOM     16  O   UNL     1       6.416   3.667  14.296  0.00  0.00    +0.000 OA
BRANCH  16  18
ATOM     17  C   UNL     1       5.882   3.123  12.032  0.00  0.00    +0.000 C 
ATOM     18  C   UNL     1       5.500   3.969  13.234  0.00  0.00    +0.000 C 
ENDBRANCH  16  18
ENDBRANCH  14  16
ENDBRANCH  12  14
BRANCH  12  19
ATOM     19  O   UNL     1       8.038   4.117  16.928  0.00  0.00    +0.000 OA
ATOM     20  H   UNL     1       7.680   4.151  17.837  0.00  0.00    +0.000 HD
ENDBRANCH  12  19
ENDBRANCH  10  13
ENDBRANCH   1  10
BRANCH   8  21
ATOM     21  O   UNL     1       4.516   3.363  20.041  0.00  0.00    +0.000 OA
ATOM     22  C   UNL     1       4.453   1.999  19.646  0.00  0.00    +0.000 C 
ENDBRANCH   8  21
BRANCH   3  23
ATOM     23  C   UNL     1       1.744   8.419  18.179  0.00  0.00    +0.000 C 
BRANCH  23  24
ATOM     24  C   UNL     1       1.099   8.929  19.446  0.00  0.00    +0.000 A 
ATOM     25  C   UNL     1      -0.120   9.628  19.404  0.00  0.00    +0.000 A 
ATOM     26  C   UNL     1      -0.674  10.173  20.566  0.00  0.00    +0.000 A 
ATOM     27  C   UNL     1      -0.022  10.010  21.786  0.00  0.00    +0.000 A 
ATOM     28 CL   UNL     1      -0.684  10.728  23.204  0.00  0.00    +0.000 Cl
ATOM     29  C   UNL     1       1.162   9.281  21.844  0.00  0.00    +0.000 A 
ATOM     30  F   UNL     1       1.798   9.096  23.010  0.00  0.00    +0.000 F 
ATOM     31  C   UNL     1       1.721   8.737  20.688  0.00  0.00    +0.000 A 
ENDBRANCH  23  24
ENDBRANCH   3  23
TORSDOF 9
ENDMDL
MODEL 9
REMARK VINA RESULT:      -7.3      7.017     11.239
REMARK  Name = 
REMARK  11 active torsions:
REMARK  status: ('A' for Active; 'I' for Inactive)
REMARK    1  A    between atoms: C_1  and  C_2
REMARK    2  A    between atoms: C_2  and  O_3
REMARK    3  A    between atoms: O_3  and  C_4
REMARK    4  A    between atoms: C_4  and  C_6
REMARK    5  A    between atoms: C_6  and  O_7
REMARK    6  A    between atoms: C_8  and  C_9
REMARK    7  A    between atoms: C_9  and  C_11
REMARK    8  A    between atoms: N_13  and  C_14
REMARK    9  A    between atoms: C_14  and  C_15
REMARK   10  A    between atoms: C_27  and  O_28
REMARK   11  A    between atoms: O_28  and  C_29
REMARK                            x       y       z     vdW  Elec       q    Type
REMARK                         _______ _______ _______ _____ _____    ______ ____
ROOT
ATOM      1  C   UNL     1      -1.483  12.415  19.958  0.00  0.00    +0.000 A 
ATOM      2  C   UNL     1      -0.133  12.142  19.818  0.00  0.00    +0.000 A 
ATOM      3  N   UNL     1       0.042  11.209  18.839  0.00  0.00    +0.000 N 
ATOM      4  C   UNL     1      -1.181  10.855  18.305  0.00  0.00    +0.000 A 
ATOM      5  C   UNL     1      -1.490   9.947  17.281  0.00  0.00    +0.000 A 
ATOM      6  C   UNL     1      -2.822   9.808  16.902  0.00  0.00    +0.000 A 
ATOM      7  C   UNL     1      -3.818  10.564  17.510  0.00  0.00    +0.000 A 
ATOM      8  C   UNL     1      -3.520  11.484  18.532  0.00  0.00    +0.000 A 
ATOM      9  C   UNL     1      -2.165  11.615  18.962  0.00  0.00    +0.000 A 
ENDROOT
BRANCH   1  10
ATOM     10  C   UNL     1      -1.944  13.393  20.944  0.00  0.00    +0.000 C 
ATOM     11  O   UNL     1      -1.571  14.563  20.908  0.00  0.00    +0.000 OA
BRANCH  10  13
ATOM     12  C   UNL     1      -3.552  13.606  22.825  0.00  0.00    +0.000 C 
ATOM     13  C   UNL     1      -2.764  12.848  22.050  0.00  0.00    +0.000 C 
BRANCH  12  14
ATOM     14  C   UNL     1      -4.432  12.908  23.810  0.00  0.00    +0.000 C 
ATOM     15  O   UNL     1      -4.195  11.850  24.365  0.00  0.00    +0.000 OA
BRANCH  14  16
ATOM     16  O   UNL     1      -5.593  13.621  23.873  0.00  0.00    +0.000 OA
BRANCH  16  18
ATOM     17  C   UNL     1      -7.118  12.508  22.410  0.00  0.00    +0.000 C 
ATOM     18  C   UNL     1      -6.792  12.835  23.857  0.00  0.00    +0.000 C 
ENDBRANCH  16  18
ENDBRANCH  14  16
ENDBRANCH  12  14
BRANCH  12  19
ATOM     19  O   UNL     1      -3.671  14.978  22.682  0.00  0.00    +0.000 OA
ATOM     20  H   UNL     1      -2.836  15.360  23.017  0.00  0.00    +0.000 HD
ENDBRANCH  12  19
ENDBRANCH  10  13
ENDBRANCH   1  10
BRANCH   8  21
ATOM     21  O   UNL     1      -4.456  12.286  19.126  0.00  0.00    +0.000 OA
ATOM     22  C   UNL     1      -5.828  12.038  18.848  0.00  0.00    +0.000 C 
ENDBRANCH   8  21
BRANCH   3  23
ATOM     23  C   UNL     1       1.348  10.689  18.438  0.00  0.00    +0.000 C 
BRANCH  23  24
ATOM     24  C   UNL     1       1.559   9.279  18.939  0.00  0.00    +0.000 A 
ATOM     25  C   UNL     1       1.218   8.923  20.256  0.00  0.00    +0.000 A 
ATOM     26  C   UNL     1       1.491   7.643  20.746  0.00  0.00    +0.000 A 
ATOM     27  C   UNL     1       2.093   6.698  19.917  0.00  0.00    +0.000 A 
ATOM     28 CL   UNL     1       2.472   5.140  20.543  0.00  0.00    +0.000 Cl
ATOM     29  C   UNL     1       2.391   7.028  18.598  0.00  0.00    +0.000 A 
ATOM     30  F   UNL     1       2.954   6.130  17.776  0.00  0.00    +0.000 F 
ATOM     31  C   UNL     1       2.124   8.305  18.104  0.00  0.00    +0.000 A 
ENDBRANCH  23  24
ENDBRANCH   3  23
TORSDOF 9
ENDMDL
