MODEL 1
REMARK VINA RESULT:     -10.0      0.000      0.000
REMARK  Name = 
REMARK  6 active torsions:
REMARK  status: ('A' for Active; 'I' for Inactive)
REMARK    1  A    between atoms: C_1  and  N_2
REMARK    2  A    between atoms: C_9  and  C_10
REMARK    3  A    between atoms: C_10  and  C_11
REMARK    4  A    between atoms: C_11  and  C_12
REMARK    5  A    between atoms: C_16  and  N_17
REMARK    6  A    between atoms: C_19  and  C_20
REMARK                            x       y       z     vdW  Elec       q    Type
REMARK                         _______ _______ _______ _____ _____    ______ ____
ROOT
ATOM      1  C   UNL     1       1.228   9.401  19.292  0.00  0.00    +0.000 A 
ATOM      2  C   UNL     1       0.876   9.505  20.630  0.00  0.00    +0.000 A 
ATOM      3  N   UNL     1       1.120   8.543  21.540  0.00  0.00    +0.000 NA
ATOM      4  C   UNL     1       1.703   7.421  21.057  0.00  0.00    +0.000 A 
ATOM      5  C   UNL     1       2.032   7.257  19.718  0.00  0.00    +0.000 A 
ATOM      6  N   UNL     1       1.813   8.267  18.818  0.00  0.00    +0.000 NA
ENDROOT
BRANCH   5   7
ATOM      7  N   UNL     1       2.589   6.030  19.239  0.00  0.00    +0.000 N 
ATOM      8  C   UNL     1       3.684   5.954  18.396  0.00  0.00    +0.000 A 
ATOM      9  C   UNL     1       3.971   4.634  18.097  0.00  0.00    +0.000 A 
ATOM     10  C   UNL     1       2.976   3.847  18.770  0.00  0.00    +0.000 A 
ATOM     11  C   UNL     1       2.646   2.479  18.875  0.00  0.00    +0.000 A 
ATOM     12  N   UNL     1       3.306   1.445  18.226  0.00  0.00    +0.000 N 
ATOM     13  N   UNL     1       1.615   2.105  19.655  0.00  0.00    +0.000 NA
ATOM     14  C   UNL     1       0.922   3.053  20.296  0.00  0.00    +0.000 A 
ATOM     15  N   UNL     1       1.126   4.372  20.263  0.00  0.00    +0.000 NA
ATOM     16  C   UNL     1       2.164   4.730  19.483  0.00  0.00    +0.000 A 
ATOM     17  H   UNL     1       4.294   1.585  18.082  0.00  0.00    +0.000 HD
ATOM     18  H   UNL     1       3.038   0.555  18.635  0.00  0.00    +0.000 HD
BRANCH   9  19
ATOM     19  C   UNL     1       5.122   4.139  17.268  0.00  0.00    +0.000 C 
ATOM     20  C   UNL     1       5.093   4.539  15.791  0.00  0.00    +0.000 C 
ATOM     21  C   UNL     1       6.523   4.296  15.324  0.00  0.00    +0.000 C 
ATOM     22  C   UNL     1       7.406   4.553  16.543  0.00  0.00    +0.000 C 
ATOM     23  C   UNL     1       6.463   4.712  17.733  0.00  0.00    +0.000 C 
ENDBRANCH   9  19
ENDBRANCH   5   7
BRANCH   1  24
ATOM     24  C   UNL     1       0.914  10.491  18.292  0.00  0.00    +0.000 C 
BRANCH  24  25
ATOM     25  C   UNL     1       0.024  11.616  18.839  0.00  0.00    +0.000 C 
BRANCH  25  34
ATOM     26  C   UNL     1      -6.503  14.174  21.137  0.00  0.00    +0.000 C 
ATOM     27  N   UNL     1      -6.996  13.205  20.178  0.00  0.00    +0.000 N 
ATOM     28  C   UNL     1      -6.010  12.472  19.495  0.00  0.00    +0.000 A 
ATOM     29  C   UNL     1      -6.450  11.574  18.528  0.00  0.00    +0.000 A 
ATOM     30  C   UNL     1      -5.523  10.859  17.780  0.00  0.00    +0.000 A 
ATOM     31  C   UNL     1      -4.164  11.043  18.020  0.00  0.00    +0.000 A 
ATOM     32  C   UNL     1      -3.193  10.351  17.277  0.00  0.00    +0.000 A 
ATOM     33  C   UNL     1      -1.839  10.535  17.539  0.00  0.00    +0.000 A 
ATOM     34  C   UNL     1      -1.442  11.411  18.549  0.00  0.00    +0.000 A 
ATOM     35  C   UNL     1      -2.426  12.106  19.279  0.00  0.00    +0.000 A 
ATOM     36  C   UNL     1      -3.789  11.952  19.030  0.00  0.00    +0.000 A 
ATOM     37  N   UNL     1      -4.695  12.659  19.739  0.00  0.00    +0.000 NA
ATOM     38  H   UNL     1      -7.666  12.560  20.587  0.00  0.00    +0.000 HD
ENDBRANCH  25  34
ENDBRANCH  24  25
ENDBRANCH   1  24
TORSDOF 5
ENDMDL
MODEL 2
REMARK VINA RESULT:      -9.6      1.120      1.422
REMARK  Name = 
REMARK  6 active torsions:
REMARK  status: ('A' for Active; 'I' for Inactive)
REMARK    1  A    between atoms: C_1  and  N_2
REMARK    2  A    between atoms: C_9  and  C_10
REMARK    3  A    between atoms: C_10  and  C_11
REMARK    4  A    between atoms: C_11  and  C_12
REMARK    5  A    between atoms: C_16  and  N_17
REMARK    6  A    between atoms: C_19  and  C_20
REMARK                            x       y       z     vdW  Elec       q    Type
REMARK                         _______ _______ _______ _____ _____    ______ ____
ROOT
ATOM      1  C   UNL     1       1.082   9.257  19.259  0.00  0.00    +0.000 A 
ATOM      2  C   UNL     1       0.833   9.396  20.617  0.00  0.00    +0.000 A 
ATOM      3  N   UNL     1       1.216   8.491  21.539  0.00  0.00    +0.000 NA
ATOM      4  C   UNL     1       1.832   7.389  21.051  0.00  0.00    +0.000 A 
ATOM      5  C   UNL     1       2.063   7.190  19.697  0.00  0.00    +0.000 A 
ATOM      6  N   UNL     1       1.704   8.143  18.781  0.00  0.00    +0.000 NA
ENDROOT
BRANCH   5   7
ATOM      7  N   UNL     1       2.661   5.982  19.219  0.00  0.00    +0.000 N 
ATOM      8  C   UNL     1       3.764   5.943  18.384  0.00  0.00    +0.000 A 
ATOM      9  C   UNL     1       4.095   4.633  18.085  0.00  0.00    +0.000 A 
ATOM     10  C   UNL     1       3.121   3.813  18.748  0.00  0.00    +0.000 A 
ATOM     11  C   UNL     1       2.833   2.435  18.848  0.00  0.00    +0.000 A 
ATOM     12  N   UNL     1       3.529   1.424  18.202  0.00  0.00    +0.000 N 
ATOM     13  N   UNL     1       1.808   2.027  19.620  0.00  0.00    +0.000 NA
ATOM     14  C   UNL     1       1.081   2.952  20.258  0.00  0.00    +0.000 A 
ATOM     15  N   UNL     1       1.243   4.276  20.229  0.00  0.00    +0.000 NA
ATOM     16  C   UNL     1       2.276   4.668  19.458  0.00  0.00    +0.000 A 
ATOM     17  H   UNL     1       4.514   1.595  18.066  0.00  0.00    +0.000 HD
ATOM     18  H   UNL     1       3.287   0.526  18.607  0.00  0.00    +0.000 HD
BRANCH   9  19
ATOM     19  C   UNL     1       5.267   4.176  17.263  0.00  0.00    +0.000 C 
ATOM     20  C   UNL     1       5.139   4.387  15.752  0.00  0.00    +0.000 C 
ATOM     21  C   UNL     1       6.569   4.256  15.247  0.00  0.00    +0.000 C 
ATOM     22  C   UNL     1       7.459   4.758  16.383  0.00  0.00    +0.000 C 
ATOM     23  C   UNL     1       6.546   4.951  17.591  0.00  0.00    +0.000 C 
ENDBRANCH   9  19
ENDBRANCH   5   7
BRANCH   1  24
ATOM     24  C   UNL     1       0.616  10.280  18.248  0.00  0.00    +0.000 C 
BRANCH  24  25
ATOM     25  C   UNL     1      -0.644   9.873  17.469  0.00  0.00    +0.000 C 
BRANCH  25  34
ATOM     26  C   UNL     1      -2.620  14.912  22.481  0.00  0.00    +0.000 C 
ATOM     27  N   UNL     1      -3.942  14.621  21.959  0.00  0.00    +0.000 N 
ATOM     28  C   UNL     1      -3.992  13.660  20.935  0.00  0.00    +0.000 A 
ATOM     29  C   UNL     1      -5.238  13.400  20.375  0.00  0.00    +0.000 A 
ATOM     30  C   UNL     1      -5.347  12.501  19.323  0.00  0.00    +0.000 A 
ATOM     31  C   UNL     1      -4.203  11.860  18.852  0.00  0.00    +0.000 A 
ATOM     32  C   UNL     1      -4.266  10.954  17.780  0.00  0.00    +0.000 A 
ATOM     33  C   UNL     1      -3.117  10.311  17.331  0.00  0.00    +0.000 A 
ATOM     34  C   UNL     1      -1.894  10.566  17.951  0.00  0.00    +0.000 A 
ATOM     35  C   UNL     1      -1.844  11.484  19.018  0.00  0.00    +0.000 A 
ATOM     36  C   UNL     1      -2.976  12.153  19.480  0.00  0.00    +0.000 A 
ATOM     37  N   UNL     1      -2.875  13.044  20.489  0.00  0.00    +0.000 NA
ATOM     38  H   UNL     1      -4.600  14.365  22.689  0.00  0.00    +0.000 HD
ENDBRANCH  25  34
ENDBRANCH  24  25
ENDBRANCH   1  24
TORSDOF 5
ENDMDL
MODEL 3
REMARK VINA RESULT:      -9.5      3.268      5.455
REMARK  Name = 
REMARK  6 active torsions:
REMARK  status: ('A' for Active; 'I' for Inactive)
REMARK    1  A    between atoms: C_1  and  N_2
REMARK    2  A    between atoms: C_9  and  C_10
REMARK    3  A    between atoms: C_10  and  C_11
REMARK    4  A    between atoms: C_11  and  C_12
REMARK    5  A    between atoms: C_16  and  N_17
REMARK    6  A    between atoms: C_19  and  C_20
REMARK                            x       y       z     vdW  Elec       q    Type
REMARK                         _______ _______ _______ _____ _____    ______ ____
ROOT
ATOM      1  C   UNL     1       1.244   9.359  19.198  0.00  0.00    +0.000 A 
ATOM      2  C   UNL     1       0.850   9.443  20.527  0.00  0.00    +0.000 A 
ATOM      3  N   UNL     1       1.088   8.477  21.434  0.00  0.00    +0.000 NA
ATOM      4  C   UNL     1       1.708   7.372  20.958  0.00  0.00    +0.000 A 
ATOM      5  C   UNL     1       2.079   7.228  19.628  0.00  0.00    +0.000 A 
ATOM      6  N   UNL     1       1.866   8.242  18.732  0.00  0.00    +0.000 NA
ENDROOT
BRANCH   5   7
ATOM      7  N   UNL     1       2.675   6.017  19.154  0.00  0.00    +0.000 N 
ATOM      8  C   UNL     1       3.786   5.973  18.328  0.00  0.00    +0.000 A 
ATOM      9  C   UNL     1       4.112   4.662  18.030  0.00  0.00    +0.000 A 
ATOM     10  C   UNL     1       3.127   3.846  18.684  0.00  0.00    +0.000 A 
ATOM     11  C   UNL     1       2.831   2.470  18.780  0.00  0.00    +0.000 A 
ATOM     12  N   UNL     1       3.527   1.456  18.138  0.00  0.00    +0.000 N 
ATOM     13  N   UNL     1       1.797   2.067  19.541  0.00  0.00    +0.000 NA
ATOM     14  C   UNL     1       1.069   2.995  20.175  0.00  0.00    +0.000 A 
ATOM     15  N   UNL     1       1.239   4.318  20.149  0.00  0.00    +0.000 NA
ATOM     16  C   UNL     1       2.281   4.705  19.387  0.00  0.00    +0.000 A 
ATOM     17  H   UNL     1       4.513   1.621  18.011  0.00  0.00    +0.000 HD
ATOM     18  H   UNL     1       3.276   0.558  18.540  0.00  0.00    +0.000 HD
BRANCH   9  19
ATOM     19  C   UNL     1       5.288   4.200  17.218  0.00  0.00    +0.000 C 
ATOM     20  C   UNL     1       5.081   4.185  15.702  0.00  0.00    +0.000 C 
ATOM     21  C   UNL     1       6.496   4.110  15.145  0.00  0.00    +0.000 C 
ATOM     22  C   UNL     1       7.378   4.844  16.154  0.00  0.00    +0.000 C 
ATOM     23  C   UNL     1       6.499   5.123  17.371  0.00  0.00    +0.000 C 
ENDBRANCH   9  19
ENDBRANCH   5   7
BRANCH   1  24
ATOM     24  C   UNL     1       0.937  10.452  18.200  0.00  0.00    +0.000 C 
BRANCH  24  25
ATOM     25  C   UNL     1       0.113  11.616  18.768  0.00  0.00    +0.000 C 
BRANCH  25  34
ATOM     26  C   UNL     1       6.952  14.170  17.704  0.00  0.00    +0.000 C 
ATOM     27  N   UNL     1       6.300  15.442  17.951  0.00  0.00    +0.000 N 
ATOM     28  C   UNL     1       4.920  15.377  18.209  0.00  0.00    +0.000 A 
ATOM     29  C   UNL     1       4.257  16.585  18.394  0.00  0.00    +0.000 A 
ATOM     30  C   UNL     1       2.883  16.592  18.600  0.00  0.00    +0.000 A 
ATOM     31  C   UNL     1       2.191  15.384  18.631  0.00  0.00    +0.000 A 
ATOM     32  C   UNL     1       0.800  15.346  18.822  0.00  0.00    +0.000 A 
ATOM     33  C   UNL     1       0.126  14.130  18.865  0.00  0.00    +0.000 A 
ATOM     34  C   UNL     1       0.837  12.939  18.721  0.00  0.00    +0.000 A 
ATOM     35  C   UNL     1       2.230  12.992  18.521  0.00  0.00    +0.000 A 
ATOM     36  C   UNL     1       2.930  14.195  18.459  0.00  0.00    +0.000 A 
ATOM     37  N   UNL     1       4.262  14.198  18.239  0.00  0.00    +0.000 NA
ATOM     38  H   UNL     1       6.752  15.974  18.688  0.00  0.00    +0.000 HD
ENDBRANCH  25  34
ENDBRANCH  24  25
ENDBRANCH   1  24
TORSDOF 5
ENDMDL
MODEL 4
REMARK VINA RESULT:      -9.5      1.699      2.595
REMARK  Name = 
REMARK  6 active torsions:
REMARK  status: ('A' for Active; 'I' for Inactive)
REMARK    1  A    between atoms: C_1  and  N_2
REMARK    2  A    between atoms: C_9  and  C_10
REMARK    3  A    between atoms: C_10  and  C_11
REMARK    4  A    between atoms: C_11  and  C_12
REMARK    5  A    between atoms: C_16  and  N_17
REMARK    6  A    between atoms: C_19  and  C_20
REMARK                            x       y       z     vdW  Elec       q    Type
REMARK                         _______ _______ _______ _____ _____    ______ ____
ROOT
ATOM      1  C   UNL     1       0.997   9.408  20.142  0.00  0.00    +0.000 A 
ATOM      2  C   UNL     1       0.910  10.230  19.027  0.00  0.00    +0.000 A 
ATOM      3  N   UNL     1       1.381   9.886  17.813  0.00  0.00    +0.000 NA
ATOM      4  C   UNL     1       1.999   8.684  17.748  0.00  0.00    +0.000 A 
ATOM      5  C   UNL     1       2.146   7.850  18.848  0.00  0.00    +0.000 A 
ATOM      6  N   UNL     1       1.621   8.200  20.063  0.00  0.00    +0.000 NA
ENDROOT
BRANCH   5   7
ATOM      7  N   UNL     1       2.862   6.615  18.748  0.00  0.00    +0.000 N 
ATOM      8  C   UNL     1       3.791   6.337  17.760  0.00  0.00    +0.000 A 
ATOM      9  C   UNL     1       4.297   5.059  17.922  0.00  0.00    +0.000 A 
ATOM     10  C   UNL     1       3.618   4.501  19.058  0.00  0.00    +0.000 A 
ATOM     11  C   UNL     1       3.608   3.269  19.745  0.00  0.00    +0.000 A 
ATOM     12  N   UNL     1       4.353   2.152  19.397  0.00  0.00    +0.000 N 
ATOM     13  N   UNL     1       2.824   3.124  20.830  0.00  0.00    +0.000 NA
ATOM     14  C   UNL     1       2.064   4.156  21.213  0.00  0.00    +0.000 A 
ATOM     15  N   UNL     1       1.975   5.357  20.638  0.00  0.00    +0.000 NA
ATOM     16  C   UNL     1       2.769   5.489  19.557  0.00  0.00    +0.000 A 
ATOM     17  H   UNL     1       5.251   2.343  18.979  0.00  0.00    +0.000 HD
ATOM     18  H   UNL     1       4.351   1.485  20.161  0.00  0.00    +0.000 HD
BRANCH   9  19
ATOM     19  C   UNL     1       5.370   4.416  17.091  0.00  0.00    +0.000 C 
ATOM     20  C   UNL     1       5.023   4.193  15.617  0.00  0.00    +0.000 C 
ATOM     21  C   UNL     1       6.376   3.955  14.960  0.00  0.00    +0.000 C 
ATOM     22  C   UNL     1       7.380   4.774  15.769  0.00  0.00    +0.000 C 
ATOM     23  C   UNL     1       6.632   5.279  17.000  0.00  0.00    +0.000 C 
ENDBRANCH   9  19
ENDBRANCH   5   7
BRANCH   1  24
ATOM     24  C   UNL     1       0.480   9.836  21.497  0.00  0.00    +0.000 C 
BRANCH  24  25
ATOM     25  C   UNL     1       0.333  11.355  21.668  0.00  0.00    +0.000 C 
BRANCH  25  34
ATOM     26  C   UNL     1      -5.542  12.360  17.320  0.00  0.00    +0.000 C 
ATOM     27  N   UNL     1      -6.136  12.809  18.565  0.00  0.00    +0.000 N 
ATOM     28  C   UNL     1      -5.293  12.769  19.689  0.00  0.00    +0.000 A 
ATOM     29  C   UNL     1      -5.851  13.139  20.908  0.00  0.00    +0.000 A 
ATOM     30  C   UNL     1      -5.086  13.070  22.064  0.00  0.00    +0.000 A 
ATOM     31  C   UNL     1      -3.763  12.641  21.984  0.00  0.00    +0.000 A 
ATOM     32  C   UNL     1      -2.959  12.542  23.132  0.00  0.00    +0.000 A 
ATOM     33  C   UNL     1      -1.635  12.126  23.032  0.00  0.00    +0.000 A 
ATOM     34  C   UNL     1      -1.101  11.807  21.784  0.00  0.00    +0.000 A 
ATOM     35  C   UNL     1      -1.923  11.901  20.643  0.00  0.00    +0.000 A 
ATOM     36  C   UNL     1      -3.255  12.301  20.713  0.00  0.00    +0.000 A 
ATOM     37  N   UNL     1      -4.012  12.353  19.596  0.00  0.00    +0.000 NA
ATOM     38  H   UNL     1      -6.545  13.735  18.488  0.00  0.00    +0.000 HD
ENDBRANCH  25  34
ENDBRANCH  24  25
ENDBRANCH   1  24
TORSDOF 5
ENDMDL
MODEL 5
REMARK VINA RESULT:      -9.4      0.942      1.184
REMARK  Name = 
REMARK  6 active torsions:
REMARK  status: ('A' for Active; 'I' for Inactive)
REMARK    1  A    between atoms: C_1  and  N_2
REMARK    2  A    between atoms: C_9  and  C_10
REMARK    3  A    between atoms: C_10  and  C_11
REMARK    4  A    between atoms: C_11  and  C_12
REMARK    5  A    between atoms: C_16  and  N_17
REMARK    6  A    between atoms: C_19  and  C_20
REMARK                            x       y       z     vdW  Elec       q    Type
REMARK                         _______ _______ _______ _____ _____    ______ ____
ROOT
ATOM      1  C   UNL     1       0.769  10.067  19.491  0.00  0.00    +0.000 A 
ATOM      2  C   UNL     1       0.266   9.998  20.783  0.00  0.00    +0.000 A 
ATOM      3  N   UNL     1       0.549   8.997  21.639  0.00  0.00    +0.000 NA
ATOM      4  C   UNL     1       1.335   8.013  21.142  0.00  0.00    +0.000 A 
ATOM      5  C   UNL     1       1.824   8.021  19.843  0.00  0.00    +0.000 A 
ATOM      6  N   UNL     1       1.558   9.070  19.004  0.00  0.00    +0.000 NA
ENDROOT
BRANCH   5   7
ATOM      7  N   UNL     1       2.599   6.929  19.339  0.00  0.00    +0.000 N 
ATOM      8  C   UNL     1       3.497   7.036  18.291  0.00  0.00    +0.000 A 
ATOM      9  C   UNL     1       4.077   5.808  18.026  0.00  0.00    +0.000 A 
ATOM     10  C   UNL     1       3.480   4.878  18.943  0.00  0.00    +0.000 A 
ATOM     11  C   UNL     1       3.564   3.494  19.205  0.00  0.00    +0.000 A 
ATOM     12  N   UNL     1       4.352   2.594  18.501  0.00  0.00    +0.000 N 
ATOM     13  N   UNL     1       2.838   2.964  20.207  0.00  0.00    +0.000 NA
ATOM     14  C   UNL     1       2.042   3.773  20.916  0.00  0.00    +0.000 A 
ATOM     15  N   UNL     1       1.864   5.086  20.754  0.00  0.00    +0.000 NA
ATOM     16  C   UNL     1       2.602   5.602  19.752  0.00  0.00    +0.000 A 
ATOM     17  H   UNL     1       5.219   2.964  18.144  0.00  0.00    +0.000 HD
ATOM     18  H   UNL     1       4.419   1.721  19.015  0.00  0.00    +0.000 HD
BRANCH   9  19
ATOM     19  C   UNL     1       5.145   5.530  17.008  0.00  0.00    +0.000 C 
ATOM     20  C   UNL     1       6.469   5.000  17.564  0.00  0.00    +0.000 C 
ATOM     21  C   UNL     1       7.166   4.415  16.343  0.00  0.00    +0.000 C 
ATOM     22  C   UNL     1       6.050   3.917  15.427  0.00  0.00    +0.000 C 
ATOM     23  C   UNL     1       4.741   4.426  16.027  0.00  0.00    +0.000 C 
ENDBRANCH   9  19
ENDBRANCH   5   7
BRANCH   1  24
ATOM     24  C   UNL     1       0.409  11.193  18.549  0.00  0.00    +0.000 C 
BRANCH  24  25
ATOM     25  C   UNL     1      -0.554  12.232  19.141  0.00  0.00    +0.000 C 
BRANCH  25  34
ATOM     26  C   UNL     1      -7.307  13.343  21.895  0.00  0.00    +0.000 C 
ATOM     27  N   UNL     1      -7.700  12.693  20.659  0.00  0.00    +0.000 N 
ATOM     28  C   UNL     1      -6.646  12.307  19.814  0.00  0.00    +0.000 A 
ATOM     29  C   UNL     1      -6.993  11.732  18.596  0.00  0.00    +0.000 A 
ATOM     30  C   UNL     1      -5.998  11.378  17.694  0.00  0.00    +0.000 A 
ATOM     31  C   UNL     1      -4.663  11.593  18.029  0.00  0.00    +0.000 A 
ATOM     32  C   UNL     1      -3.627  11.262  17.140  0.00  0.00    +0.000 A 
ATOM     33  C   UNL     1      -2.298  11.469  17.497  0.00  0.00    +0.000 A 
ATOM     34  C   UNL     1      -1.992  12.005  18.747  0.00  0.00    +0.000 A 
ATOM     35  C   UNL     1      -3.042  12.341  19.624  0.00  0.00    +0.000 A 
ATOM     36  C   UNL     1      -4.382  12.158  19.289  0.00  0.00    +0.000 A 
ATOM     37  N   UNL     1      -5.356  12.518  20.153  0.00  0.00    +0.000 NA
ATOM     38  H   UNL     1      -8.310  11.896  20.815  0.00  0.00    +0.000 HD
ENDBRANCH  25  34
ENDBRANCH  24  25
ENDBRANCH   1  24
TORSDOF 5
ENDMDL
MODEL 6
REMARK VINA RESULT:      -9.3      2.681      3.271
REMARK  Name = 
REMARK  6 active torsions:
REMARK  status: ('A' for Active; 'I' for Inactive)
REMARK    1  A    between atoms: C_1  and  N_2
REMARK    2  A    between atoms: C_9  and  C_10
REMARK    3  A    between atoms: C_10  and  C_11
REMARK    4  A    between atoms: C_11  and  C_12
REMARK    5  A    between atoms: C_16  and  N_17
REMARK    6  A    between atoms: C_19  and  C_20
REMARK                            x       y       z     vdW  Elec       q    Type
REMARK                         _______ _______ _______ _____ _____    ______ ____
ROOT
ATOM      1  C   UNL     1       1.169   9.280  20.682  0.00  0.00    +0.000 A 
ATOM      2  C   UNL     1       0.885  10.110  19.607  0.00  0.00    +0.000 A 
ATOM      3  N   UNL     1       1.088   9.759  18.323  0.00  0.00    +0.000 NA
ATOM      4  C   UNL     1       1.640   8.537  18.135  0.00  0.00    +0.000 A 
ATOM      5  C   UNL     1       1.980   7.693  19.183  0.00  0.00    +0.000 A 
ATOM      6  N   UNL     1       1.724   8.053  20.480  0.00  0.00    +0.000 NA
ENDROOT
BRANCH   5   7
ATOM      7  N   UNL     1       2.620   6.436  18.942  0.00  0.00    +0.000 N 
ATOM      8  C   UNL     1       3.649   6.254  18.034  0.00  0.00    +0.000 A 
ATOM      9  C   UNL     1       4.045   4.928  18.015  0.00  0.00    +0.000 A 
ATOM     10  C   UNL     1       3.189   4.242  18.941  0.00  0.00    +0.000 A 
ATOM     11  C   UNL     1       3.008   2.915  19.384  0.00  0.00    +0.000 A 
ATOM     12  N   UNL     1       3.717   1.815  18.925  0.00  0.00    +0.000 N 
ATOM     13  N   UNL     1       2.082   2.652  20.325  0.00  0.00    +0.000 NA
ATOM     14  C   UNL     1       1.348   3.665  20.801  0.00  0.00    +0.000 A 
ATOM     15  N   UNL     1       1.414   4.951  20.451  0.00  0.00    +0.000 NA
ATOM     16  C   UNL     1       2.348   5.199  19.513  0.00  0.00    +0.000 A 
ATOM     17  H   UNL     1       4.672   1.996  18.657  0.00  0.00    +0.000 HD
ATOM     18  H   UNL     1       3.572   1.027  19.548  0.00  0.00    +0.000 HD
BRANCH   9  19
ATOM     19  C   UNL     1       5.173   4.348  17.210  0.00  0.00    +0.000 C 
ATOM     20  C   UNL     1       5.267   4.827  15.760  0.00  0.00    +0.000 C 
ATOM     21  C   UNL     1       6.681   4.444  15.344  0.00  0.00    +0.000 C 
ATOM     22  C   UNL     1       7.524   4.529  16.615  0.00  0.00    +0.000 C 
ATOM     23  C   UNL     1       6.545   4.733  17.769  0.00  0.00    +0.000 C 
ENDBRANCH   9  19
ENDBRANCH   5   7
BRANCH   1  24
ATOM     24  C   UNL     1       0.953   9.717  22.113  0.00  0.00    +0.000 C 
BRANCH  24  25
ATOM     25  C   UNL     1      -0.517   9.726  22.558  0.00  0.00    +0.000 C 
BRANCH  25  34
ATOM     26  C   UNL     1      -6.916  12.939  24.335  0.00  0.00    +0.000 C 
ATOM     27  N   UNL     1      -6.181  14.139  23.985  0.00  0.00    +0.000 N 
ATOM     28  C   UNL     1      -4.852  13.938  23.571  0.00  0.00    +0.000 A 
ATOM     29  C   UNL     1      -4.104  15.075  23.283  0.00  0.00    +0.000 A 
ATOM     30  C   UNL     1      -2.770  14.946  22.922  0.00  0.00    +0.000 A 
ATOM     31  C   UNL     1      -2.203  13.677  22.841  0.00  0.00    +0.000 A 
ATOM     32  C   UNL     1      -0.852  13.504  22.493  0.00  0.00    +0.000 A 
ATOM     33  C   UNL     1      -0.306  12.227  22.402  0.00  0.00    +0.000 A 
ATOM     34  C   UNL     1      -1.103  11.112  22.655  0.00  0.00    +0.000 A 
ATOM     35  C   UNL     1      -2.453  11.302  23.012  0.00  0.00    +0.000 A 
ATOM     36  C   UNL     1      -3.024  12.567  23.125  0.00  0.00    +0.000 A 
ATOM     37  N   UNL     1      -4.316  12.701  23.495  0.00  0.00    +0.000 NA
ATOM     38  H   UNL     1      -6.664  14.702  23.291  0.00  0.00    +0.000 HD
ENDBRANCH  25  34
ENDBRANCH  24  25
ENDBRANCH   1  24
TORSDOF 5
ENDMDL
MODEL 7
REMARK VINA RESULT:      -9.3      2.697      3.665
REMARK  Name = 
REMARK  6 active torsions:
REMARK  status: ('A' for Active; 'I' for Inactive)
REMARK    1  A    between atoms: C_1  and  N_2
REMARK    2  A    between atoms: C_9  and  C_10
REMARK    3  A    between atoms: C_10  and  C_11
REMARK    4  A    between atoms: C_11  and  C_12
REMARK    5  A    between atoms: C_16  and  N_17
REMARK    6  A    between atoms: C_19  and  C_20
REMARK                            x       y       z     vdW  Elec       q    Type
REMARK                         _______ _______ _______ _____ _____    ______ ____
ROOT
ATOM      1  C   UNL     1       0.697   9.926  20.761  0.00  0.00    +0.000 A 
ATOM      2  C   UNL     1       0.167  10.661  19.710  0.00  0.00    +0.000 A 
ATOM      3  N   UNL     1       0.324  10.325  18.415  0.00  0.00    +0.000 NA
ATOM      4  C   UNL     1       1.083   9.228  18.187  0.00  0.00    +0.000 A 
ATOM      5  C   UNL     1       1.668   8.489  19.206  0.00  0.00    +0.000 A 
ATOM      6  N   UNL     1       1.460   8.824  20.518  0.00  0.00    +0.000 NA
ENDROOT
BRANCH   5   7
ATOM      7  N   UNL     1       2.515   7.373  18.917  0.00  0.00    +0.000 N 
ATOM      8  C   UNL     1       3.447   7.355  17.893  0.00  0.00    +0.000 A 
ATOM      9  C   UNL     1       4.097   6.134  17.856  0.00  0.00    +0.000 A 
ATOM     10  C   UNL     1       3.511   5.337  18.898  0.00  0.00    +0.000 A 
ATOM     11  C   UNL     1       3.654   4.023  19.391  0.00  0.00    +0.000 A 
ATOM     12  N   UNL     1       4.512   3.064  18.873  0.00  0.00    +0.000 N 
ATOM     13  N   UNL     1       2.917   3.628  20.446  0.00  0.00    +0.000 NA
ATOM     14  C   UNL     1       2.054   4.498  20.984  0.00  0.00    +0.000 A 
ATOM     15  N   UNL     1       1.818   5.754  20.599  0.00  0.00    +0.000 NA
ATOM     16  C   UNL     1       2.568   6.136  19.547  0.00  0.00    +0.000 A 
ATOM     17  H   UNL     1       5.373   3.417  18.485  0.00  0.00    +0.000 HD
ATOM     18  H   UNL     1       4.603   2.294  19.528  0.00  0.00    +0.000 HD
BRANCH   9  19
ATOM     19  C   UNL     1       5.217   5.749  16.932  0.00  0.00    +0.000 C 
ATOM     20  C   UNL     1       6.515   5.309  17.612  0.00  0.00    +0.000 C 
ATOM     21  C   UNL     1       7.277   4.591  16.505  0.00  0.00    +0.000 C 
ATOM     22  C   UNL     1       6.211   3.971  15.603  0.00  0.00    +0.000 C 
ATOM     23  C   UNL     1       4.870   4.529  16.074  0.00  0.00    +0.000 C 
ENDBRANCH   9  19
ENDBRANCH   5   7
BRANCH   1  24
ATOM     24  C   UNL     1       0.524  10.346  22.203  0.00  0.00    +0.000 C 
BRANCH  24  25
ATOM     25  C   UNL     1      -0.932  10.351  22.692  0.00  0.00    +0.000 C 
BRANCH  25  34
ATOM     26  C   UNL     1      -7.372  13.552  24.337  0.00  0.00    +0.000 C 
ATOM     27  N   UNL     1      -6.596  14.760  24.127  0.00  0.00    +0.000 N 
ATOM     28  C   UNL     1      -5.249  14.564  23.779  0.00  0.00    +0.000 A 
ATOM     29  C   UNL     1      -4.466  15.703  23.627  0.00  0.00    +0.000 A 
ATOM     30  C   UNL     1      -3.114  15.575  23.336  0.00  0.00    +0.000 A 
ATOM     31  C   UNL     1      -2.565  14.303  23.188  0.00  0.00    +0.000 A 
ATOM     32  C   UNL     1      -1.199  14.129  22.907  0.00  0.00    +0.000 A 
ATOM     33  C   UNL     1      -0.669  12.852  22.748  0.00  0.00    +0.000 A 
ATOM     34  C   UNL     1      -1.499  11.738  22.864  0.00  0.00    +0.000 A 
ATOM     35  C   UNL     1      -2.865  11.928  23.154  0.00  0.00    +0.000 A 
ATOM     36  C   UNL     1      -3.421  13.193  23.333  0.00  0.00    +0.000 A 
ATOM     37  N   UNL     1      -4.730  13.325  23.636  0.00  0.00    +0.000 NA
ATOM     38  H   UNL     1      -7.027  15.386  23.453  0.00  0.00    +0.000 HD
ENDBRANCH  25  34
ENDBRANCH  24  25
ENDBRANCH   1  24
TORSDOF 5
ENDMDL
MODEL 8
REMARK VINA RESULT:      -9.3      2.806      3.468
REMARK  Name = 
REMARK  6 active torsions:
REMARK  status: ('A' for Active; 'I' for Inactive)
REMARK    1  A    between atoms: C_1  and  N_2
REMARK    2  A    between atoms: C_9  and  C_10
REMARK    3  A    between atoms: C_10  and  C_11
REMARK    4  A    between atoms: C_11  and  C_12
REMARK    5  A    between atoms: C_16  and  N_17
REMARK    6  A    between atoms: C_19  and  C_20
REMARK                            x       y       z     vdW  Elec       q    Type
REMARK                         _______ _______ _______ _____ _____    ______ ____
ROOT
ATOM      1  C   UNL     1       0.665   8.797  20.610  0.00  0.00    +0.000 A 
ATOM      2  C   UNL     1       0.724   9.809  19.661  0.00  0.00    +0.000 A 
ATOM      3  N   UNL     1       1.420   9.711  18.513  0.00  0.00    +0.000 NA
ATOM      4  C   UNL     1       2.114   8.560  18.350  0.00  0.00    +0.000 A 
ATOM      5  C   UNL     1       2.118   7.541  19.293  0.00  0.00    +0.000 A 
ATOM      6  N   UNL     1       1.368   7.645  20.434  0.00  0.00    +0.000 NA
ENDROOT
BRANCH   5   7
ATOM      7  N   UNL     1       2.916   6.368  19.109  0.00  0.00    +0.000 N 
ATOM      8  C   UNL     1       3.854   6.221  18.101  0.00  0.00    +0.000 A 
ATOM      9  C   UNL     1       4.448   4.973  18.175  0.00  0.00    +0.000 A 
ATOM     10  C   UNL     1       3.818   4.296  19.274  0.00  0.00    +0.000 A 
ATOM     11  C   UNL     1       3.898   3.023  19.878  0.00  0.00    +0.000 A 
ATOM     12  N   UNL     1       4.715   1.986  19.453  0.00  0.00    +0.000 N 
ATOM     13  N   UNL     1       3.135   2.753  20.954  0.00  0.00    +0.000 NA
ATOM     14  C   UNL     1       2.309   3.703  21.407  0.00  0.00    +0.000 A 
ATOM     15  N   UNL     1       2.133   4.931  20.914  0.00  0.00    +0.000 NA
ATOM     16  C   UNL     1       2.907   5.188  19.841  0.00  0.00    +0.000 A 
ATOM     17  H   UNL     1       5.594   2.266  19.046  0.00  0.00    +0.000 HD
ATOM     18  H   UNL     1       4.766   1.271  20.172  0.00  0.00    +0.000 HD
BRANCH   9  19
ATOM     19  C   UNL     1       5.556   4.462  17.299  0.00  0.00    +0.000 C 
ATOM     20  C   UNL     1       5.124   3.909  15.939  0.00  0.00    +0.000 C 
ATOM     21  C   UNL     1       6.416   3.881  15.134  0.00  0.00    +0.000 C 
ATOM     22  C   UNL     1       7.259   5.040  15.663  0.00  0.00    +0.000 C 
ATOM     23  C   UNL     1       6.541   5.565  16.904  0.00  0.00    +0.000 C 
ENDBRANCH   9  19
ENDBRANCH   5   7
BRANCH   1  24
ATOM     24  C   UNL     1      -0.106   8.951  21.901  0.00  0.00    +0.000 C 
BRANCH  24  25
ATOM     25  C   UNL     1       0.265  10.199  22.716  0.00  0.00    +0.000 C 
BRANCH  25  34
ATOM     26  C   UNL     1      -0.522  16.432  18.848  0.00  0.00    +0.000 C 
ATOM     27  N   UNL     1      -1.737  16.530  19.634  0.00  0.00    +0.000 N 
ATOM     28  C   UNL     1      -1.962  15.478  20.539  0.00  0.00    +0.000 A 
ATOM     29  C   UNL     1      -3.146  15.516  21.267  0.00  0.00    +0.000 A 
ATOM     30  C   UNL     1      -3.452  14.479  22.138  0.00  0.00    +0.000 A 
ATOM     31  C   UNL     1      -2.558  13.420  22.280  0.00  0.00    +0.000 A 
ATOM     32  C   UNL     1      -2.835  12.344  23.140  0.00  0.00    +0.000 A 
ATOM     33  C   UNL     1      -1.924  11.301  23.281  0.00  0.00    +0.000 A 
ATOM     34  C   UNL     1      -0.727  11.326  22.567  0.00  0.00    +0.000 A 
ATOM     35  C   UNL     1      -0.467  12.406  21.702  0.00  0.00    +0.000 A 
ATOM     36  C   UNL     1      -1.366  13.457  21.529  0.00  0.00    +0.000 A 
ATOM     37  N   UNL     1      -1.085  14.459  20.669  0.00  0.00    +0.000 NA
ATOM     38  H   UNL     1      -1.811  17.415  20.127  0.00  0.00    +0.000 HD
ENDBRANCH  25  34
ENDBRANCH  24  25
ENDBRANCH   1  24
TORSDOF 5
ENDMDL
MODEL 9
REMARK VINA RESULT:      -9.2      3.201      4.212
REMARK  Name = 
REMARK  6 active torsions:
REMARK  status: ('A' for Active; 'I' for Inactive)
REMARK    1  A    between atoms: C_1  and  N_2
REMARK    2  A    between atoms: C_9  and  C_10
REMARK    3  A    between atoms: C_10  and  C_11
REMARK    4  A    between atoms: C_11  and  C_12
REMARK    5  A    between atoms: C_16  and  N_17
REMARK    6  A    between atoms: C_19  and  C_20
REMARK                            x       y       z     vdW  Elec       q    Type
REMARK                         _______ _______ _______ _____ _____    ______ ____
ROOT
ATOM      1  C   UNL     1       1.091   9.267  20.719  0.00  0.00    +0.000 A 
ATOM      2  C   UNL     1       0.766  10.053  19.622  0.00  0.00    +0.000 A 
ATOM      3  N   UNL     1       1.038   9.702  18.350  0.00  0.00    +0.000 NA
ATOM      4  C   UNL     1       1.704   8.533  18.199  0.00  0.00    +0.000 A 
ATOM      5  C   UNL     1       2.087   7.738  19.270  0.00  0.00    +0.000 A 
ATOM      6  N   UNL     1       1.761   8.093  20.553  0.00  0.00    +0.000 NA
ENDROOT
BRANCH   5   7
ATOM      7  N   UNL     1       2.844   6.542  19.069  0.00  0.00    +0.000 N 
ATOM      8  C   UNL     1       3.786   6.382  18.066  0.00  0.00    +0.000 A 
ATOM      9  C   UNL     1       4.334   5.113  18.119  0.00  0.00    +0.000 A 
ATOM     10  C   UNL     1       3.671   4.435  19.198  0.00  0.00    +0.000 A 
ATOM     11  C   UNL     1       3.699   3.149  19.776  0.00  0.00    +0.000 A 
ATOM     12  N   UNL     1       4.483   2.092  19.336  0.00  0.00    +0.000 N 
ATOM     13  N   UNL     1       2.918   2.883  20.839  0.00  0.00    +0.000 NA
ATOM     14  C   UNL     1       2.121   3.852  21.305  0.00  0.00    +0.000 A 
ATOM     15  N   UNL     1       1.994   5.095  20.836  0.00  0.00    +0.000 NA
ATOM     16  C   UNL     1       2.787   5.348  19.776  0.00  0.00    +0.000 A 
ATOM     17  H   UNL     1       5.376   2.349  18.943  0.00  0.00    +0.000 HD
ATOM     18  H   UNL     1       4.502   1.361  20.040  0.00  0.00    +0.000 HD
BRANCH   9  19
ATOM     19  C   UNL     1       5.432   4.580  17.243  0.00  0.00    +0.000 C 
ATOM     20  C   UNL     1       4.977   3.910  15.945  0.00  0.00    +0.000 C 
ATOM     21  C   UNL     1       6.241   3.872  15.095  0.00  0.00    +0.000 C 
ATOM     22  C   UNL     1       7.052   5.100  15.505  0.00  0.00    +0.000 C 
ATOM     23  C   UNL     1       6.356   5.688  16.730  0.00  0.00    +0.000 C 
ENDBRANCH   9  19
ENDBRANCH   5   7
BRANCH   1  24
ATOM     24  C   UNL     1       0.793   9.703  22.135  0.00  0.00    +0.000 C 
BRANCH  24  25
ATOM     25  C   UNL     1      -0.699   9.904  22.436  0.00  0.00    +0.000 C 
BRANCH  25  34
ATOM     26  C   UNL     1       1.850  16.607  20.705  0.00  0.00    +0.000 C 
ATOM     27  N   UNL     1       0.690  17.026  21.469  0.00  0.00    +0.000 N 
ATOM     28  C   UNL     1      -0.096  15.987  21.997  0.00  0.00    +0.000 A 
ATOM     29  C   UNL     1      -1.246  16.357  22.687  0.00  0.00    +0.000 A 
ATOM     30  C   UNL     1      -2.094  15.377  23.186  0.00  0.00    +0.000 A 
ATOM     31  C   UNL     1      -1.771  14.035  22.999  0.00  0.00    +0.000 A 
ATOM     32  C   UNL     1      -2.609  13.012  23.476  0.00  0.00    +0.000 A 
ATOM     33  C   UNL     1      -2.264  11.676  23.294  0.00  0.00    +0.000 A 
ATOM     34  C   UNL     1      -1.079  11.350  22.637  0.00  0.00    +0.000 A 
ATOM     35  C   UNL     1      -0.254  12.386  22.156  0.00  0.00    +0.000 A 
ATOM     36  C   UNL     1      -0.579  13.731  22.311  0.00  0.00    +0.000 A 
ATOM     37  N   UNL     1       0.230  14.690  21.811  0.00  0.00    +0.000 NA
ATOM     38  H   UNL     1       0.929  17.674  22.213  0.00  0.00    +0.000 HD
ENDBRANCH  25  34
ENDBRANCH  24  25
ENDBRANCH   1  24
TORSDOF 5
ENDMDL
