MODEL 1
REMARK VINA RESULT:      -7.5      0.000      0.000
REMARK  Name = 
REMARK  13 active torsions:
REMARK  status: ('A' for Active; 'I' for Inactive)
REMARK    1  A    between atoms: C_1  and  O_2
REMARK    2  A    between atoms: O_2  and  C_3
REMARK    3  A    between atoms: C_5  and  N_6
REMARK    4  A    between atoms: N_6  and  C_7
REMARK    5  A    between atoms: C_7  and  C_8
REMARK    6  A    between atoms: C_7  and  C_9
REMARK    7  A    between atoms: C_9  and  C_10
REMARK    8  A    between atoms: C_10  and  C_11
REMARK    9  A    between atoms: C_11  and  N_12
REMARK   10  A    between atoms: C_15  and  O_16
REMARK   11  A    between atoms: O_16  and  C_17
REMARK   12  A    between atoms: C_17  and  C_18
REMARK   13  A    between atoms: C_21  and  C_22
REMARK                            x       y       z     vdW  Elec       q    Type
REMARK                         _______ _______ _______ _____ _____    ______ ____
ROOT
ATOM      1  C   UNL     1       4.178   6.307  17.326  0.00  0.00    +0.000 A 
ATOM      2  C   UNL     1       3.649   5.629  18.418  0.00  0.00    +0.000 A 
ATOM      3  C   UNL     1       2.748   6.238  19.315  0.00  0.00    +0.000 A 
ATOM      4  C   UNL     1       2.311   7.565  19.068  0.00  0.00    +0.000 A 
ATOM      5  N   UNL     1       1.368   8.170  19.842  0.00  0.00    +0.000 NA
ATOM      6  C   UNL     1       0.963   9.425  19.525  0.00  0.00    +0.000 A 
ATOM      7  C   UNL     1       1.524  10.160  18.491  0.00  0.00    +0.000 A 
ATOM      8  C   UNL     1       2.475   9.552  17.690  0.00  0.00    +0.000 A 
ATOM      9  C   UNL     1       2.864   8.241  17.954  0.00  0.00    +0.000 A 
ATOM     10  C   UNL     1       3.787   7.620  17.105  0.00  0.00    +0.000 A 
ENDROOT
BRANCH   1  12
ATOM     11  C   UNL     1       5.001   4.392  16.204  0.00  0.00    +0.000 C 
ATOM     12  O   UNL     1       5.069   5.800  16.423  0.00  0.00    +0.000 OA
ENDBRANCH   1  12
BRANCH   3  13
ATOM     13  N   UNL     1       2.358   5.558  20.492  0.00  0.00    +0.000 N 
ATOM     14  H   UNL     1       1.667   6.103  21.013  0.00  0.00    +0.000 HD
BRANCH  13  15
ATOM     15  C   UNL     1       2.197   4.100  20.501  0.00  0.00    +0.000 C 
ATOM     16  C   UNL     1       2.340   3.575  21.936  0.00  0.00    +0.000 C 
BRANCH  15  17
ATOM     17  C   UNL     1       0.810   3.709  19.962  0.00  0.00    +0.000 C 
BRANCH  17  18
ATOM     18  C   UNL     1       0.823   2.581  18.921  0.00  0.00    +0.000 C 
BRANCH  18  19
ATOM     19  C   UNL     1       2.075   2.511  18.044  0.00  0.00    +0.000 C 
BRANCH  19  20
ATOM     20  N   UNL     1       2.936   1.390  18.401  0.00  0.00    +0.000 NA
ATOM     21  H   UNL     1       3.798   1.724  18.829  0.00  0.00    +0.000 HD
ATOM     22  H   UNL     1       3.214   0.897  17.553  0.00  0.00    +0.000 HD
ENDBRANCH  19  20
ENDBRANCH  18  19
ENDBRANCH  17  18
ENDBRANCH  15  17
ENDBRANCH  13  15
ENDBRANCH   3  13
BRANCH   6  23
ATOM     23  O   UNL     1      -0.070   9.895  20.298  0.00  0.00    +0.000 OA
BRANCH  23  24
ATOM     24  C   UNL     1      -0.264  11.311  20.235  0.00  0.00    +0.000 C 
BRANCH  24  25
ATOM     25  C   UNL     1      -1.335  11.742  21.207  0.00  0.00    +0.000 A 
ATOM     26  C   UNL     1      -2.441  12.487  20.774  0.00  0.00    +0.000 A 
ATOM     27  C   UNL     1      -3.449  12.845  21.674  0.00  0.00    +0.000 A 
ATOM     28  C   UNL     1      -3.373  12.458  23.020  0.00  0.00    +0.000 A 
ATOM     29  C   UNL     1      -2.272  11.700  23.446  0.00  0.00    +0.000 A 
ATOM     30  C   UNL     1      -1.265  11.345  22.549  0.00  0.00    +0.000 A 
BRANCH  28  31
ATOM     31  C   UNL     1      -4.445  12.844  24.008  0.00  0.00    +0.000 C 
ATOM     32  F   UNL     1      -5.710  12.711  23.521  0.00  0.00    +0.000 F 
ATOM     33  F   UNL     1      -4.403  12.092  25.143  0.00  0.00    +0.000 F 
ATOM     34  F   UNL     1      -4.337  14.140  24.414  0.00  0.00    +0.000 F 
ENDBRANCH  28  31
ENDBRANCH  24  25
ENDBRANCH  23  24
ENDBRANCH   6  23
TORSDOF 11
ENDMDL
MODEL 2
REMARK VINA RESULT:      -7.4      1.668      2.306
REMARK  Name = 
REMARK  13 active torsions:
REMARK  status: ('A' for Active; 'I' for Inactive)
REMARK    1  A    between atoms: C_1  and  O_2
REMARK    2  A    between atoms: O_2  and  C_3
REMARK    3  A    between atoms: C_5  and  N_6
REMARK    4  A    between atoms: N_6  and  C_7
REMARK    5  A    between atoms: C_7  and  C_8
REMARK    6  A    between atoms: C_7  and  C_9
REMARK    7  A    between atoms: C_9  and  C_10
REMARK    8  A    between atoms: C_10  and  C_11
REMARK    9  A    between atoms: C_11  and  N_12
REMARK   10  A    between atoms: C_15  and  O_16
REMARK   11  A    between atoms: O_16  and  C_17
REMARK   12  A    between atoms: C_17  and  C_18
REMARK   13  A    between atoms: C_21  and  C_22
REMARK                            x       y       z     vdW  Elec       q    Type
REMARK                         _______ _______ _______ _____ _____    ______ ____
ROOT
ATOM      1  C   UNL     1       4.996   5.605  16.349  0.00  0.00    +0.000 A 
ATOM      2  C   UNL     1       4.739   4.647  17.322  0.00  0.00    +0.000 A 
ATOM      3  C   UNL     1       3.947   4.921  18.456  0.00  0.00    +0.000 A 
ATOM      4  C   UNL     1       3.335   6.195  18.584  0.00  0.00    +0.000 A 
ATOM      5  N   UNL     1       2.481   6.485  19.604  0.00  0.00    +0.000 NA
ATOM      6  C   UNL     1       1.896   7.708  19.644  0.00  0.00    +0.000 A 
ATOM      7  C   UNL     1       2.188   8.714  18.735  0.00  0.00    +0.000 A 
ATOM      8  C   UNL     1       3.046   8.428  17.687  0.00  0.00    +0.000 A 
ATOM      9  C   UNL     1       3.611   7.159  17.586  0.00  0.00    +0.000 A 
ATOM     10  C   UNL     1       4.435   6.866  16.493  0.00  0.00    +0.000 A 
ENDROOT
BRANCH   1  12
ATOM     11  C   UNL     1       6.721   4.370  15.298  0.00  0.00    +0.000 C 
ATOM     12  O   UNL     1       5.766   5.428  15.234  0.00  0.00    +0.000 OA
ENDBRANCH   1  12
BRANCH   3  13
ATOM     13  N   UNL     1       3.841   3.963  19.491  0.00  0.00    +0.000 N 
ATOM     14  H   UNL     1       3.017   4.144  20.068  0.00  0.00    +0.000 HD
BRANCH  13  15
ATOM     15  C   UNL     1       4.192   2.558  19.255  0.00  0.00    +0.000 C 
ATOM     16  C   UNL     1       4.595   1.899  20.580  0.00  0.00    +0.000 C 
BRANCH  15  17
ATOM     17  C   UNL     1       2.993   1.797  18.663  0.00  0.00    +0.000 C 
BRANCH  17  18
ATOM     18  C   UNL     1       1.676   2.584  18.657  0.00  0.00    +0.000 C 
BRANCH  18  19
ATOM     19  C   UNL     1       0.932   2.632  19.993  0.00  0.00    +0.000 C 
BRANCH  19  20
ATOM     20  N   UNL     1       0.848   3.986  20.529  0.00  0.00    +0.000 NA
ATOM     21  H   UNL     1      -0.121   4.235  20.718  0.00  0.00    +0.000 HD
ATOM     22  H   UNL     1       1.178   4.646  19.825  0.00  0.00    +0.000 HD
ENDBRANCH  19  20
ENDBRANCH  18  19
ENDBRANCH  17  18
ENDBRANCH  15  17
ENDBRANCH  13  15
ENDBRANCH   3  13
BRANCH   6  23
ATOM     23  O   UNL     1       0.968   7.855  20.646  0.00  0.00    +0.000 OA
BRANCH  23  24
ATOM     24  C   UNL     1       1.357   8.752  21.690  0.00  0.00    +0.000 C 
BRANCH  24  25
ATOM     25  C   UNL     1       0.323   9.836  21.870  0.00  0.00    +0.000 A 
ATOM     26  C   UNL     1       0.015  10.717  20.824  0.00  0.00    +0.000 A 
ATOM     27  C   UNL     1      -0.975  11.690  20.986  0.00  0.00    +0.000 A 
ATOM     28  C   UNL     1      -1.681  11.794  22.194  0.00  0.00    +0.000 A 
ATOM     29  C   UNL     1      -1.380  10.901  23.233  0.00  0.00    +0.000 A 
ATOM     30  C   UNL     1      -0.390   9.931  23.073  0.00  0.00    +0.000 A 
BRANCH  28  31
ATOM     31  C   UNL     1      -2.744  12.844  22.392  0.00  0.00    +0.000 C 
ATOM     32  F   UNL     1      -3.957  12.497  21.877  0.00  0.00    +0.000 F 
ATOM     33  F   UNL     1      -2.966  13.121  23.708  0.00  0.00    +0.000 F 
ATOM     34  F   UNL     1      -2.419  14.031  21.810  0.00  0.00    +0.000 F 
ENDBRANCH  28  31
ENDBRANCH  24  25
ENDBRANCH  23  24
ENDBRANCH   6  23
TORSDOF 11
ENDMDL
MODEL 3
REMARK VINA RESULT:      -7.4      2.712      3.300
REMARK  Name = 
REMARK  13 active torsions:
REMARK  status: ('A' for Active; 'I' for Inactive)
REMARK    1  A    between atoms: C_1  and  O_2
REMARK    2  A    between atoms: O_2  and  C_3
REMARK    3  A    between atoms: C_5  and  N_6
REMARK    4  A    between atoms: N_6  and  C_7
REMARK    5  A    between atoms: C_7  and  C_8
REMARK    6  A    between atoms: C_7  and  C_9
REMARK    7  A    between atoms: C_9  and  C_10
REMARK    8  A    between atoms: C_10  and  C_11
REMARK    9  A    between atoms: C_11  and  N_12
REMARK   10  A    between atoms: C_15  and  O_16
REMARK   11  A    between atoms: O_16  and  C_17
REMARK   12  A    between atoms: C_17  and  C_18
REMARK   13  A    between atoms: C_21  and  C_22
REMARK                            x       y       z     vdW  Elec       q    Type
REMARK                         _______ _______ _______ _____ _____    ______ ____
ROOT
ATOM      1  C   UNL     1       4.792   4.991  17.794  0.00  0.00    +0.000 A 
ATOM      2  C   UNL     1       4.257   4.604  19.016  0.00  0.00    +0.000 A 
ATOM      3  C   UNL     1       3.375   5.429  19.745  0.00  0.00    +0.000 A 
ATOM      4  C   UNL     1       2.965   6.669  19.189  0.00  0.00    +0.000 A 
ATOM      5  N   UNL     1       2.041   7.461  19.798  0.00  0.00    +0.000 NA
ATOM      6  C   UNL     1       1.660   8.614  19.192  0.00  0.00    +0.000 A 
ATOM      7  C   UNL     1       2.229   9.068  18.012  0.00  0.00    +0.000 A 
ATOM      8  C   UNL     1       3.161   8.266  17.377  0.00  0.00    +0.000 A 
ATOM      9  C   UNL     1       3.524   7.047  17.945  0.00  0.00    +0.000 A 
ATOM     10  C   UNL     1       4.428   6.221  17.267  0.00  0.00    +0.000 A 
ENDROOT
BRANCH   1  12
ATOM     11  C   UNL     1       5.677   4.561  15.640  0.00  0.00    +0.000 C 
ATOM     12  O   UNL     1       5.665   4.263  17.035  0.00  0.00    +0.000 OA
ENDBRANCH   1  12
BRANCH   3  13
ATOM     13  N   UNL     1       2.979   5.058  21.051  0.00  0.00    +0.000 N 
ATOM     14  H   UNL     1       2.946   5.875  21.664  0.00  0.00    +0.000 HD
BRANCH  13  15
ATOM     15  C   UNL     1       1.960   4.025  21.263  0.00  0.00    +0.000 C 
ATOM     16  C   UNL     1       0.819   4.212  20.255  0.00  0.00    +0.000 C 
BRANCH  15  17
ATOM     17  C   UNL     1       2.568   2.624  21.075  0.00  0.00    +0.000 C 
BRANCH  17  18
ATOM     18  C   UNL     1       1.951   1.807  19.932  0.00  0.00    +0.000 C 
BRANCH  18  19
ATOM     19  C   UNL     1       2.838   1.625  18.699  0.00  0.00    +0.000 C 
BRANCH  19  20
ATOM     20  N   UNL     1       2.169   2.041  17.472  0.00  0.00    +0.000 NA
ATOM     21  H   UNL     1       2.852   2.337  16.776  0.00  0.00    +0.000 HD
ATOM     22  H   UNL     1       1.591   2.858  17.666  0.00  0.00    +0.000 HD
ENDBRANCH  19  20
ENDBRANCH  18  19
ENDBRANCH  17  18
ENDBRANCH  15  17
ENDBRANCH  13  15
ENDBRANCH   3  13
BRANCH   6  23
ATOM     23  O   UNL     1       0.643   9.277  19.834  0.00  0.00    +0.000 OA
BRANCH  23  24
ATOM     24  C   UNL     1       0.492  10.647  19.451  0.00  0.00    +0.000 C 
BRANCH  24  25
ATOM     25  C   UNL     1      -0.906  10.904  18.943  0.00  0.00    +0.000 A 
ATOM     26  C   UNL     1      -1.421  10.181  17.859  0.00  0.00    +0.000 A 
ATOM     27  C   UNL     1      -2.732  10.396  17.424  0.00  0.00    +0.000 A 
ATOM     28  C   UNL     1      -3.553  11.332  18.070  0.00  0.00    +0.000 A 
ATOM     29  C   UNL     1      -3.038  12.043  19.164  0.00  0.00    +0.000 A 
ATOM     30  C   UNL     1      -1.729  11.830  19.597  0.00  0.00    +0.000 A 
BRANCH  28  31
ATOM     31  C   UNL     1      -4.966  11.586  17.609  0.00  0.00    +0.000 C 
ATOM     32  F   UNL     1      -5.102  11.607  16.253  0.00  0.00    +0.000 F 
ATOM     33  F   UNL     1      -5.839  10.640  18.054  0.00  0.00    +0.000 F 
ATOM     34  F   UNL     1      -5.451  12.780  18.050  0.00  0.00    +0.000 F 
ENDBRANCH  28  31
ENDBRANCH  24  25
ENDBRANCH  23  24
ENDBRANCH   6  23
TORSDOF 11
ENDMDL
MODEL 4
REMARK VINA RESULT:      -7.4      1.792      2.889
REMARK  Name = 
REMARK  13 active torsions:
REMARK  status: ('A' for Active; 'I' for Inactive)
REMARK    1  A    between atoms: C_1  and  O_2
REMARK    2  A    between atoms: O_2  and  C_3
REMARK    3  A    between atoms: C_5  and  N_6
REMARK    4  A    between atoms: N_6  and  C_7
REMARK    5  A    between atoms: C_7  and  C_8
REMARK    6  A    between atoms: C_7  and  C_9
REMARK    7  A    between atoms: C_9  and  C_10
REMARK    8  A    between atoms: C_10  and  C_11
REMARK    9  A    between atoms: C_11  and  N_12
REMARK   10  A    between atoms: C_15  and  O_16
REMARK   11  A    between atoms: O_16  and  C_17
REMARK   12  A    between atoms: C_17  and  C_18
REMARK   13  A    between atoms: C_21  and  C_22
REMARK                            x       y       z     vdW  Elec       q    Type
REMARK                         _______ _______ _______ _____ _____    ______ ____
ROOT
ATOM      1  C   UNL     1       5.450   5.194  15.995  0.00  0.00    +0.000 A 
ATOM      2  C   UNL     1       4.941   4.223  16.848  0.00  0.00    +0.000 A 
ATOM      3  C   UNL     1       4.030   4.532  17.879  0.00  0.00    +0.000 A 
ATOM      4  C   UNL     1       3.563   5.865  18.018  0.00  0.00    +0.000 A 
ATOM      5  N   UNL     1       2.611   6.204  18.929  0.00  0.00    +0.000 NA
ATOM      6  C   UNL     1       2.177   7.489  18.980  0.00  0.00    +0.000 A 
ATOM      7  C   UNL     1       2.718   8.498  18.199  0.00  0.00    +0.000 A 
ATOM      8  C   UNL     1       3.679   8.164  17.260  0.00  0.00    +0.000 A 
ATOM      9  C   UNL     1       4.097   6.841  17.142  0.00  0.00    +0.000 A 
ATOM     10  C   UNL     1       5.030   6.507  16.154  0.00  0.00    +0.000 A 
ENDROOT
BRANCH   1  12
ATOM     11  C   UNL     1       5.955   4.043  13.989  0.00  0.00    +0.000 C 
ATOM     12  O   UNL     1       6.348   4.984  14.986  0.00  0.00    +0.000 OA
ENDBRANCH   1  12
BRANCH   3  13
ATOM     13  N   UNL     1       3.660   3.538  18.814  0.00  0.00    +0.000 N 
ATOM     14  H   UNL     1       3.353   3.963  19.692  0.00  0.00    +0.000 HD
BRANCH  13  15
ATOM     15  C   UNL     1       2.959   2.323  18.383  0.00  0.00    +0.000 C 
ATOM     16  C   UNL     1       3.868   1.104  18.587  0.00  0.00    +0.000 C 
BRANCH  15  17
ATOM     17  C   UNL     1       1.671   2.127  19.202  0.00  0.00    +0.000 C 
BRANCH  17  18
ATOM     18  C   UNL     1       1.215   3.368  19.983  0.00  0.00    +0.000 C 
BRANCH  18  19
ATOM     19  C   UNL     1       1.817   3.523  21.381  0.00  0.00    +0.000 C 
BRANCH  19  20
ATOM     20  N   UNL     1       1.457   2.418  22.262  0.00  0.00    +0.000 NA
ATOM     21  H   UNL     1       2.130   1.658  22.175  0.00  0.00    +0.000 HD
ATOM     22  H   UNL     1       0.559   2.035  21.970  0.00  0.00    +0.000 HD
ENDBRANCH  19  20
ENDBRANCH  18  19
ENDBRANCH  17  18
ENDBRANCH  15  17
ENDBRANCH  13  15
ENDBRANCH   3  13
BRANCH   6  23
ATOM     23  O   UNL     1       1.137   7.697  19.853  0.00  0.00    +0.000 OA
BRANCH  23  24
ATOM     24  C   UNL     1       1.526   8.212  21.130  0.00  0.00    +0.000 C 
BRANCH  24  25
ATOM     25  C   UNL     1       0.597   9.321  21.558  0.00  0.00    +0.000 A 
ATOM     26  C   UNL     1      -0.080   9.258  22.784  0.00  0.00    +0.000 A 
ATOM     27  C   UNL     1      -0.905  10.310  23.191  0.00  0.00    +0.000 A 
ATOM     28  C   UNL     1      -1.061  11.447  22.385  0.00  0.00    +0.000 A 
ATOM     29  C   UNL     1      -0.371  11.513  21.166  0.00  0.00    +0.000 A 
ATOM     30  C   UNL     1       0.451  10.462  20.758  0.00  0.00    +0.000 A 
BRANCH  28  31
ATOM     31  C   UNL     1      -1.956  12.587  22.802  0.00  0.00    +0.000 C 
ATOM     32  F   UNL     1      -2.236  13.458  21.792  0.00  0.00    +0.000 F 
ATOM     33  F   UNL     1      -3.162  12.160  23.269  0.00  0.00    +0.000 F 
ATOM     34  F   UNL     1      -1.412  13.337  23.800  0.00  0.00    +0.000 F 
ENDBRANCH  28  31
ENDBRANCH  24  25
ENDBRANCH  23  24
ENDBRANCH   6  23
TORSDOF 11
ENDMDL
MODEL 5
REMARK VINA RESULT:      -7.4      0.961      1.525
REMARK  Name = 
REMARK  13 active torsions:
REMARK  status: ('A' for Active; 'I' for Inactive)
REMARK    1  A    between atoms: C_1  and  O_2
REMARK    2  A    between atoms: O_2  and  C_3
REMARK    3  A    between atoms: C_5  and  N_6
REMARK    4  A    between atoms: N_6  and  C_7
REMARK    5  A    between atoms: C_7  and  C_8
REMARK    6  A    between atoms: C_7  and  C_9
REMARK    7  A    between atoms: C_9  and  C_10
REMARK    8  A    between atoms: C_10  and  C_11
REMARK    9  A    between atoms: C_11  and  N_12
REMARK   10  A    between atoms: C_15  and  O_16
REMARK   11  A    between atoms: O_16  and  C_17
REMARK   12  A    between atoms: C_17  and  C_18
REMARK   13  A    between atoms: C_21  and  C_22
REMARK                            x       y       z     vdW  Elec       q    Type
REMARK                         _______ _______ _______ _____ _____    ______ ____
ROOT
ATOM      1  C   UNL     1       4.008   5.977  17.470  0.00  0.00    +0.000 A 
ATOM      2  C   UNL     1       3.740   5.332  18.671  0.00  0.00    +0.000 A 
ATOM      3  C   UNL     1       2.973   5.932  19.691  0.00  0.00    +0.000 A 
ATOM      4  C   UNL     1       2.399   7.211  19.468  0.00  0.00    +0.000 A 
ATOM      5  N   UNL     1       1.569   7.796  20.374  0.00  0.00    +0.000 NA
ATOM      6  C   UNL     1       1.019   9.001  20.080  0.00  0.00    +0.000 A 
ATOM      7  C   UNL     1       1.325   9.708  18.928  0.00  0.00    +0.000 A 
ATOM      8  C   UNL     1       2.158   9.118  17.993  0.00  0.00    +0.000 A 
ATOM      9  C   UNL     1       2.687   7.854  18.240  0.00  0.00    +0.000 A 
ATOM     10  C   UNL     1       3.485   7.246  17.265  0.00  0.00    +0.000 A 
ENDROOT
BRANCH   1  12
ATOM     11  C   UNL     1       5.480   4.281  16.722  0.00  0.00    +0.000 C 
ATOM     12  O   UNL     1       4.756   5.477  16.441  0.00  0.00    +0.000 OA
ENDBRANCH   1  12
BRANCH   3  13
ATOM     13  N   UNL     1       2.857   5.299  20.950  0.00  0.00    +0.000 N 
ATOM     14  H   UNL     1       2.893   5.987  21.705  0.00  0.00    +0.000 HD
BRANCH  13  15
ATOM     15  C   UNL     1       1.959   4.154  21.137  0.00  0.00    +0.000 C 
ATOM     16  C   UNL     1       0.798   4.241  20.138  0.00  0.00    +0.000 C 
BRANCH  15  17
ATOM     17  C   UNL     1       2.718   2.834  20.906  0.00  0.00    +0.000 C 
BRANCH  17  18
ATOM     18  C   UNL     1       2.149   1.958  19.781  0.00  0.00    +0.000 C 
BRANCH  18  19
ATOM     19  C   UNL     1       3.062   1.771  18.568  0.00  0.00    +0.000 C 
BRANCH  19  20
ATOM     20  N   UNL     1       2.373   2.046  17.312  0.00  0.00    +0.000 NA
ATOM     21  H   UNL     1       3.035   2.058  16.538  0.00  0.00    +0.000 HD
ATOM     22  H   UNL     1       1.966   2.979  17.351  0.00  0.00    +0.000 HD
ENDBRANCH  19  20
ENDBRANCH  18  19
ENDBRANCH  17  18
ENDBRANCH  15  17
ENDBRANCH  13  15
ENDBRANCH   3  13
BRANCH   6  23
ATOM     23  O   UNL     1       0.111   9.446  21.010  0.00  0.00    +0.000 OA
BRANCH  23  24
ATOM     24  C   UNL     1       0.297  10.804  21.420  0.00  0.00    +0.000 C 
BRANCH  24  25
ATOM     25  C   UNL     1      -1.031  11.453  21.721  0.00  0.00    +0.000 A 
ATOM     26  C   UNL     1      -1.561  11.439  23.019  0.00  0.00    +0.000 A 
ATOM     27  C   UNL     1      -2.771  12.080  23.296  0.00  0.00    +0.000 A 
ATOM     28  C   UNL     1      -3.470  12.753  22.283  0.00  0.00    +0.000 A 
ATOM     29  C   UNL     1      -2.930  12.777  20.989  0.00  0.00    +0.000 A 
ATOM     30  C   UNL     1      -1.723  12.135  20.711  0.00  0.00    +0.000 A 
BRANCH  28  31
ATOM     31  C   UNL     1      -4.783  13.440  22.560  0.00  0.00    +0.000 C 
ATOM     32  F   UNL     1      -5.644  12.693  23.306  0.00  0.00    +0.000 F 
ATOM     33  F   UNL     1      -4.626  14.612  23.237  0.00  0.00    +0.000 F 
ATOM     34  F   UNL     1      -5.457  13.755  21.419  0.00  0.00    +0.000 F 
ENDBRANCH  28  31
ENDBRANCH  24  25
ENDBRANCH  23  24
ENDBRANCH   6  23
TORSDOF 11
ENDMDL
MODEL 6
REMARK VINA RESULT:      -7.3      6.355      9.930
REMARK  Name = 
REMARK  13 active torsions:
REMARK  status: ('A' for Active; 'I' for Inactive)
REMARK    1  A    between atoms: C_1  and  O_2
REMARK    2  A    between atoms: O_2  and  C_3
REMARK    3  A    between atoms: C_5  and  N_6
REMARK    4  A    between atoms: N_6  and  C_7
REMARK    5  A    between atoms: C_7  and  C_8
REMARK    6  A    between atoms: C_7  and  C_9
REMARK    7  A    between atoms: C_9  and  C_10
REMARK    8  A    between atoms: C_10  and  C_11
REMARK    9  A    between atoms: C_11  and  N_12
REMARK   10  A    between atoms: C_15  and  O_16
REMARK   11  A    between atoms: O_16  and  C_17
REMARK   12  A    between atoms: C_17  and  C_18
REMARK   13  A    between atoms: C_21  and  C_22
REMARK                            x       y       z     vdW  Elec       q    Type
REMARK                         _______ _______ _______ _____ _____    ______ ____
ROOT
ATOM      1  C   UNL     1       1.140   8.677  19.554  0.00  0.00    +0.000 A 
ATOM      2  C   UNL     1       1.172   7.628  20.466  0.00  0.00    +0.000 A 
ATOM      3  C   UNL     1       2.100   6.572  20.363  0.00  0.00    +0.000 A 
ATOM      4  C   UNL     1       3.079   6.604  19.336  0.00  0.00    +0.000 A 
ATOM      5  N   UNL     1       4.061   5.666  19.247  0.00  0.00    +0.000 NA
ATOM      6  C   UNL     1       4.992   5.779  18.267  0.00  0.00    +0.000 A 
ATOM      7  C   UNL     1       4.947   6.767  17.295  0.00  0.00    +0.000 A 
ATOM      8  C   UNL     1       3.960   7.733  17.381  0.00  0.00    +0.000 A 
ATOM      9  C   UNL     1       3.028   7.677  18.416  0.00  0.00    +0.000 A 
ATOM     10  C   UNL     1       2.068   8.690  18.523  0.00  0.00    +0.000 A 
ENDROOT
BRANCH   1  12
ATOM     11  C   UNL     1      -0.284  10.097  18.306  0.00  0.00    +0.000 C 
ATOM     12  O   UNL     1       0.264   9.725  19.569  0.00  0.00    +0.000 OA
ENDBRANCH   1  12
BRANCH   3  13
ATOM     13  N   UNL     1       1.994   5.454  21.223  0.00  0.00    +0.000 N 
ATOM     14  H   UNL     1       1.268   5.607  21.927  0.00  0.00    +0.000 HD
BRANCH  13  15
ATOM     15  C   UNL     1       2.141   4.090  20.706  0.00  0.00    +0.000 C 
ATOM     16  C   UNL     1       2.173   3.096  21.874  0.00  0.00    +0.000 C 
BRANCH  15  17
ATOM     17  C   UNL     1       0.962   3.735  19.782  0.00  0.00    +0.000 C 
BRANCH  17  18
ATOM     18  C   UNL     1       1.293   3.767  18.284  0.00  0.00    +0.000 C 
BRANCH  18  19
ATOM     19  C   UNL     1       2.544   2.990  17.869  0.00  0.00    +0.000 C 
BRANCH  19  20
ATOM     20  N   UNL     1       2.332   1.547  17.898  0.00  0.00    +0.000 NA
ATOM     21  H   UNL     1       3.082   1.086  18.410  0.00  0.00    +0.000 HD
ATOM     22  H   UNL     1       2.373   1.184  16.947  0.00  0.00    +0.000 HD
ENDBRANCH  19  20
ENDBRANCH  18  19
ENDBRANCH  17  18
ENDBRANCH  15  17
ENDBRANCH  13  15
ENDBRANCH   3  13
BRANCH   6  23
ATOM     23  O   UNL     1       6.000   4.848  18.338  0.00  0.00    +0.000 OA
BRANCH  23  24
ATOM     24  C   UNL     1       7.095   5.089  17.450  0.00  0.00    +0.000 C 
BRANCH  24  25
ATOM     25  C   UNL     1       6.766   4.603  16.060  0.00  0.00    +0.000 A 
ATOM     26  C   UNL     1       5.807   3.601  15.857  0.00  0.00    +0.000 A 
ATOM     27  C   UNL     1       5.478   3.188  14.563  0.00  0.00    +0.000 A 
ATOM     28  C   UNL     1       6.096   3.774  13.449  0.00  0.00    +0.000 A 
ATOM     29  C   UNL     1       7.044   4.787  13.655  0.00  0.00    +0.000 A 
ATOM     30  C   UNL     1       7.375   5.198  14.947  0.00  0.00    +0.000 A 
BRANCH  28  31
ATOM     31  C   UNL     1       5.762   3.334  12.046  0.00  0.00    +0.000 C 
ATOM     32  F   UNL     1       4.462   3.549  11.701  0.00  0.00    +0.000 F 
ATOM     33  F   UNL     1       6.507   3.980  11.106  0.00  0.00    +0.000 F 
ATOM     34  F   UNL     1       5.984   2.004  11.851  0.00  0.00    +0.000 F 
ENDBRANCH  28  31
ENDBRANCH  24  25
ENDBRANCH  23  24
ENDBRANCH   6  23
TORSDOF 11
ENDMDL
MODEL 7
REMARK VINA RESULT:      -7.1      4.344      5.943
REMARK  Name = 
REMARK  13 active torsions:
REMARK  status: ('A' for Active; 'I' for Inactive)
REMARK    1  A    between atoms: C_1  and  O_2
REMARK    2  A    between atoms: O_2  and  C_3
REMARK    3  A    between atoms: C_5  and  N_6
REMARK    4  A    between atoms: N_6  and  C_7
REMARK    5  A    between atoms: C_7  and  C_8
REMARK    6  A    between atoms: C_7  and  C_9
REMARK    7  A    between atoms: C_9  and  C_10
REMARK    8  A    between atoms: C_10  and  C_11
REMARK    9  A    between atoms: C_11  and  N_12
REMARK   10  A    between atoms: C_15  and  O_16
REMARK   11  A    between atoms: O_16  and  C_17
REMARK   12  A    between atoms: C_17  and  C_18
REMARK   13  A    between atoms: C_21  and  C_22
REMARK                            x       y       z     vdW  Elec       q    Type
REMARK                         _______ _______ _______ _____ _____    ______ ____
ROOT
ATOM      1  C   UNL     1       3.376   3.955  19.863  0.00  0.00    +0.000 A 
ATOM      2  C   UNL     1       4.040   4.292  18.689  0.00  0.00    +0.000 A 
ATOM      3  C   UNL     1       3.854   5.536  18.052  0.00  0.00    +0.000 A 
ATOM      4  C   UNL     1       3.012   6.507  18.655  0.00  0.00    +0.000 A 
ATOM      5  N   UNL     1       2.872   7.759  18.139  0.00  0.00    +0.000 NA
ATOM      6  C   UNL     1       2.086   8.653  18.788  0.00  0.00    +0.000 A 
ATOM      7  C   UNL     1       1.348   8.329  19.917  0.00  0.00    +0.000 A 
ATOM      8  C   UNL     1       1.491   7.062  20.457  0.00  0.00    +0.000 A 
ATOM      9  C   UNL     1       2.342   6.144  19.847  0.00  0.00    +0.000 A 
ATOM     10  C   UNL     1       2.518   4.885  20.432  0.00  0.00    +0.000 A 
ENDROOT
BRANCH   1  12
ATOM     11  C   UNL     1       2.558   2.570  21.600  0.00  0.00    +0.000 C 
ATOM     12  O   UNL     1       3.483   2.768  20.532  0.00  0.00    +0.000 OA
ENDBRANCH   1  12
BRANCH   3  13
ATOM     13  N   UNL     1       4.434   5.771  16.784  0.00  0.00    +0.000 N 
ATOM     14  H   UNL     1       4.598   6.770  16.641  0.00  0.00    +0.000 HD
BRANCH  13  15
ATOM     15  C   UNL     1       5.428   4.848  16.227  0.00  0.00    +0.000 C 
ATOM     16  C   UNL     1       5.189   4.679  14.721  0.00  0.00    +0.000 C 
BRANCH  15  17
ATOM     17  C   UNL     1       6.850   5.393  16.449  0.00  0.00    +0.000 C 
BRANCH  17  18
ATOM     18  C   UNL     1       7.566   4.829  17.684  0.00  0.00    +0.000 C 
BRANCH  18  19
ATOM     19  C   UNL     1       7.796   5.823  18.823  0.00  0.00    +0.000 C 
BRANCH  19  20
ATOM     20  N   UNL     1       7.234   5.355  20.085  0.00  0.00    +0.000 NA
ATOM     21  H   UNL     1       7.236   4.337  20.121  0.00  0.00    +0.000 HD
ATOM     22  H   UNL     1       6.256   5.638  20.142  0.00  0.00    +0.000 HD
ENDBRANCH  19  20
ENDBRANCH  18  19
ENDBRANCH  17  18
ENDBRANCH  15  17
ENDBRANCH  13  15
ENDBRANCH   3  13
BRANCH   6  23
ATOM     23  O   UNL     1       2.106   9.916  18.248  0.00  0.00    +0.000 OA
BRANCH  23  24
ATOM     24  C   UNL     1       1.022  10.755  18.657  0.00  0.00    +0.000 C 
BRANCH  24  25
ATOM     25  C   UNL     1       1.433  12.207  18.621  0.00  0.00    +0.000 A 
ATOM     26  C   UNL     1       2.715  12.580  18.193  0.00  0.00    +0.000 A 
ATOM     27  C   UNL     1       3.072  13.929  18.122  0.00  0.00    +0.000 A 
ATOM     28  C   UNL     1       2.152  14.929  18.471  0.00  0.00    +0.000 A 
ATOM     29  C   UNL     1       0.866  14.552  18.885  0.00  0.00    +0.000 A 
ATOM     30  C   UNL     1       0.510  13.205  18.958  0.00  0.00    +0.000 A 
BRANCH  28  31
ATOM     31  C   UNL     1       2.522  16.390  18.412  0.00  0.00    +0.000 C 
ATOM     32  F   UNL     1       2.691  16.960  19.638  0.00  0.00    +0.000 F 
ATOM     33  F   UNL     1       3.686  16.607  17.738  0.00  0.00    +0.000 F 
ATOM     34  F   UNL     1       1.578  17.141  17.780  0.00  0.00    +0.000 F 
ENDBRANCH  28  31
ENDBRANCH  24  25
ENDBRANCH  23  24
ENDBRANCH   6  23
TORSDOF 11
ENDMDL
MODEL 8
REMARK VINA RESULT:      -7.1      1.107      1.719
REMARK  Name = 
REMARK  13 active torsions:
REMARK  status: ('A' for Active; 'I' for Inactive)
REMARK    1  A    between atoms: C_1  and  O_2
REMARK    2  A    between atoms: O_2  and  C_3
REMARK    3  A    between atoms: C_5  and  N_6
REMARK    4  A    between atoms: N_6  and  C_7
REMARK    5  A    between atoms: C_7  and  C_8
REMARK    6  A    between atoms: C_7  and  C_9
REMARK    7  A    between atoms: C_9  and  C_10
REMARK    8  A    between atoms: C_10  and  C_11
REMARK    9  A    between atoms: C_11  and  N_12
REMARK   10  A    between atoms: C_15  and  O_16
REMARK   11  A    between atoms: O_16  and  C_17
REMARK   12  A    between atoms: C_17  and  C_18
REMARK   13  A    between atoms: C_21  and  C_22
REMARK                            x       y       z     vdW  Elec       q    Type
REMARK                         _______ _______ _______ _____ _____    ______ ____
ROOT
ATOM      1  C   UNL     1       4.265   5.939  17.542  0.00  0.00    +0.000 A 
ATOM      2  C   UNL     1       3.853   5.351  18.731  0.00  0.00    +0.000 A 
ATOM      3  C   UNL     1       2.975   5.999  19.624  0.00  0.00    +0.000 A 
ATOM      4  C   UNL     1       2.440   7.266  19.276  0.00  0.00    +0.000 A 
ATOM      5  N   UNL     1       1.513   7.895  20.049  0.00  0.00    +0.000 NA
ATOM      6  C   UNL     1       1.009   9.085  19.637  0.00  0.00    +0.000 A 
ATOM      7  C   UNL     1       1.454   9.737  18.497  0.00  0.00    +0.000 A 
ATOM      8  C   UNL     1       2.388   9.103  17.696  0.00  0.00    +0.000 A 
ATOM      9  C   UNL     1       2.875   7.851  18.063  0.00  0.00    +0.000 A 
ATOM     10  C   UNL     1       3.779   7.197  17.218  0.00  0.00    +0.000 A 
ENDROOT
BRANCH   1  12
ATOM     11  C   UNL     1       5.318   6.132  15.430  0.00  0.00    +0.000 C 
ATOM     12  O   UNL     1       5.126   5.390  16.633  0.00  0.00    +0.000 OA
ENDBRANCH   1  12
BRANCH   3  13
ATOM     13  N   UNL     1       2.706   5.426  20.889  0.00  0.00    +0.000 N 
ATOM     14  H   UNL     1       2.765   6.132  21.626  0.00  0.00    +0.000 HD
BRANCH  13  15
ATOM     15  C   UNL     1       1.680   4.388  21.042  0.00  0.00    +0.000 C 
ATOM     16  C   UNL     1       1.050   4.082  19.678  0.00  0.00    +0.000 C 
BRANCH  15  17
ATOM     17  C   UNL     1       2.301   3.098  21.607  0.00  0.00    +0.000 C 
BRANCH  17  18
ATOM     18  C   UNL     1       2.916   2.170  20.551  0.00  0.00    +0.000 C 
BRANCH  18  19
ATOM     19  C   UNL     1       4.399   2.401  20.255  0.00  0.00    +0.000 C 
BRANCH  19  20
ATOM     20  N   UNL     1       5.262   1.549  21.066  0.00  0.00    +0.000 NA
ATOM     21  H   UNL     1       6.119   1.327  20.563  0.00  0.00    +0.000 HD
ATOM     22  H   UNL     1       4.793   0.659  21.233  0.00  0.00    +0.000 HD
ENDBRANCH  19  20
ENDBRANCH  18  19
ENDBRANCH  17  18
ENDBRANCH  15  17
ENDBRANCH  13  15
ENDBRANCH   3  13
BRANCH   6  23
ATOM     23  O   UNL     1       0.001   9.574  20.431  0.00  0.00    +0.000 OA
BRANCH  23  24
ATOM     24  C   UNL     1       0.258  10.866  20.990  0.00  0.00    +0.000 C 
BRANCH  24  25
ATOM     25  C   UNL     1      -0.998  11.438  21.600  0.00  0.00    +0.000 A 
ATOM     26  C   UNL     1      -1.247  11.322  22.974  0.00  0.00    +0.000 A 
ATOM     27  C   UNL     1      -2.392  11.893  23.537  0.00  0.00    +0.000 A 
ATOM     28  C   UNL     1      -3.304  12.596  22.736  0.00  0.00    +0.000 A 
ATOM     29  C   UNL     1      -3.044  12.723  21.364  0.00  0.00    +0.000 A 
ATOM     30  C   UNL     1      -1.902  12.151  20.802  0.00  0.00    +0.000 A 
BRANCH  28  31
ATOM     31  C   UNL     1      -4.551  13.209  23.323  0.00  0.00    +0.000 C 
ATOM     32  F   UNL     1      -4.431  14.540  23.591  0.00  0.00    +0.000 F 
ATOM     33  F   UNL     1      -5.628  13.093  22.497  0.00  0.00    +0.000 F 
ATOM     34  F   UNL     1      -4.916  12.625  24.498  0.00  0.00    +0.000 F 
ENDBRANCH  28  31
ENDBRANCH  24  25
ENDBRANCH  23  24
ENDBRANCH   6  23
TORSDOF 11
ENDMDL
MODEL 9
REMARK VINA RESULT:      -7.1      5.960     10.311
REMARK  Name = 
REMARK  13 active torsions:
REMARK  status: ('A' for Active; 'I' for Inactive)
REMARK    1  A    between atoms: C_1  and  O_2
REMARK    2  A    between atoms: O_2  and  C_3
REMARK    3  A    between atoms: C_5  and  N_6
REMARK    4  A    between atoms: N_6  and  C_7
REMARK    5  A    between atoms: C_7  and  C_8
REMARK    6  A    between atoms: C_7  and  C_9
REMARK    7  A    between atoms: C_9  and  C_10
REMARK    8  A    between atoms: C_10  and  C_11
REMARK    9  A    between atoms: C_11  and  N_12
REMARK   10  A    between atoms: C_15  and  O_16
REMARK   11  A    between atoms: O_16  and  C_17
REMARK   12  A    between atoms: C_17  and  C_18
REMARK   13  A    between atoms: C_21  and  C_22
REMARK                            x       y       z     vdW  Elec       q    Type
REMARK                         _______ _______ _______ _____ _____    ______ ____
ROOT
ATOM      1  C   UNL     1      -1.836  11.944  21.853  0.00  0.00    +0.000 A 
ATOM      2  C   UNL     1      -2.006  12.136  20.488  0.00  0.00    +0.000 A 
ATOM      3  C   UNL     1      -1.217  11.464  19.531  0.00  0.00    +0.000 A 
ATOM      4  C   UNL     1      -0.258  10.512  19.966  0.00  0.00    +0.000 A 
ATOM      5  N   UNL     1       0.462   9.762  19.087  0.00  0.00    +0.000 NA
ATOM      6  C   UNL     1       1.332   8.839  19.570  0.00  0.00    +0.000 A 
ATOM      7  C   UNL     1       1.583   8.675  20.923  0.00  0.00    +0.000 A 
ATOM      8  C   UNL     1       0.849   9.423  21.827  0.00  0.00    +0.000 A 
ATOM      9  C   UNL     1      -0.096  10.334  21.360  0.00  0.00    +0.000 A 
ATOM     10  C   UNL     1      -0.870  11.047  22.284  0.00  0.00    +0.000 A 
ENDROOT
BRANCH   1  12
ATOM     11  C   UNL     1      -1.996  13.797  23.318  0.00  0.00    +0.000 C 
ATOM     12  O   UNL     1      -2.541  12.567  22.844  0.00  0.00    +0.000 OA
ENDBRANCH   1  12
BRANCH   3  13
ATOM     13  N   UNL     1      -1.324  11.806  18.163  0.00  0.00    +0.000 N 
ATOM     14  H   UNL     1      -0.399  11.865  17.731  0.00  0.00    +0.000 HD
BRANCH  13  15
ATOM     15  C   UNL     1      -2.411  11.271  17.337  0.00  0.00    +0.000 C 
ATOM     16  C   UNL     1      -2.472   9.746  17.489  0.00  0.00    +0.000 C 
BRANCH  15  17
ATOM     17  C   UNL     1      -3.761  11.870  17.771  0.00  0.00    +0.000 C 
BRANCH  17  18
ATOM     18  C   UNL     1      -4.923  10.868  17.806  0.00  0.00    +0.000 C 
BRANCH  18  19
ATOM     19  C   UNL     1      -5.939  11.078  18.931  0.00  0.00    +0.000 C 
BRANCH  19  20
ATOM     20  N   UNL     1      -7.130  10.254  18.758  0.00  0.00    +0.000 NA
ATOM     21  H   UNL     1      -6.879   9.269  18.703  0.00  0.00    +0.000 HD
ATOM     22  H   UNL     1      -7.570  10.484  17.868  0.00  0.00    +0.000 HD
ENDBRANCH  19  20
ENDBRANCH  18  19
ENDBRANCH  17  18
ENDBRANCH  15  17
ENDBRANCH  13  15
ENDBRANCH   3  13
BRANCH   6  23
ATOM     23  O   UNL     1       1.919   8.061  18.602  0.00  0.00    +0.000 OA
BRANCH  23  24
ATOM     24  C   UNL     1       2.574   6.889  19.098  0.00  0.00    +0.000 C 
BRANCH  24  25
ATOM     25  C   UNL     1       3.400   6.245  18.011  0.00  0.00    +0.000 A 
ATOM     26  C   UNL     1       4.325   6.994  17.271  0.00  0.00    +0.000 A 
ATOM     27  C   UNL     1       5.115   6.379  16.297  0.00  0.00    +0.000 A 
ATOM     28  C   UNL     1       5.000   5.003  16.050  0.00  0.00    +0.000 A 
ATOM     29  C   UNL     1       4.084   4.254  16.803  0.00  0.00    +0.000 A 
ATOM     30  C   UNL     1       3.293   4.868  17.774  0.00  0.00    +0.000 A 
BRANCH  28  31
ATOM     31  C   UNL     1       5.836   4.323  14.995  0.00  0.00    +0.000 C 
ATOM     32  F   UNL     1       5.199   4.187  13.798  0.00  0.00    +0.000 F 
ATOM     33  F   UNL     1       6.989   4.998  14.727  0.00  0.00    +0.000 F 
ATOM     34  F   UNL     1       6.214   3.066  15.360  0.00  0.00    +0.000 F 
ENDBRANCH  28  31
ENDBRANCH  24  25
ENDBRANCH  23  24
ENDBRANCH   6  23
TORSDOF 11
ENDMDL
