MODEL 1
REMARK VINA RESULT:      -6.2      0.000      0.000
REMARK  Name = 
REMARK  21 active torsions:
REMARK  status: ('A' for Active; 'I' for Inactive)
REMARK    1  A    between atoms: C_1  and  C_2
REMARK    2  A    between atoms: C_2  and  C_3
REMARK    3  A    between atoms: C_3  and  C_4
REMARK    4  A    between atoms: C_4  and  C_5
REMARK    5  A    between atoms: C_5  and  C_6
REMARK    6  A    between atoms: C_6  and  C_7
REMARK    7  A    between atoms: C_7  and  C_8
REMARK    8  A    between atoms: C_8  and  C_9
REMARK    9  A    between atoms: C_9  and  C_10
REMARK   10  A    between atoms: C_10  and  C_11
REMARK   11  A    between atoms: C_11  and  C_12
REMARK   12  A    between atoms: C_12  and  S_13
REMARK   13  A    between atoms: S_13  and  C_14
REMARK   14  A    between atoms: C_17  and  O_19
REMARK   15  A    between atoms: O_19  and  C_20
REMARK   16  A    between atoms: C_21  and  O_22
REMARK   17  A    between atoms: O_22  and  C_23
REMARK   18  A    between atoms: C_25  and  O_26
REMARK   19  A    between atoms: O_26  and  C_27
REMARK   20  A    between atoms: C_29  and  O_30
REMARK   21  A    between atoms: O_30  and  C_31
REMARK                            x       y       z     vdW  Elec       q    Type
REMARK                         _______ _______ _______ _____ _____    ______ ____
ROOT
ATOM      1  C   UNL     1       1.296   9.179  19.179  0.00  0.00    +0.000 C 
ATOM      2  O   UNL     1       1.518   9.055  20.356  0.00  0.00    +0.000 OA
ATOM      3  N   UNL     1       0.317   9.941  18.574  0.00  0.00    +0.000 N 
ATOM      4  C   UNL     1      -0.492  10.744  19.332  0.00  0.00    +0.000 C 
ATOM      5  O   UNL     1      -0.720  10.532  20.533  0.00  0.00    +0.000 OA
ATOM      6  H   UNL     1       0.436  10.153  17.599  0.00  0.00    +0.000 HD
ENDROOT
BRANCH   4   7
ATOM      7  O   UNL     1      -1.047  11.772  18.582  0.00  0.00    +0.000 OA
BRANCH   7   8
ATOM      8  C   UNL     1      -2.458  11.709  18.410  0.00  0.00    +0.000 A 
ATOM      9  C   UNL     1      -3.035  11.099  17.261  0.00  0.00    +0.000 A 
ATOM     10  C   UNL     1      -4.422  11.080  17.119  0.00  0.00    +0.000 A 
ATOM     11  C   UNL     1      -5.276  11.596  18.066  0.00  0.00    +0.000 A 
ATOM     12  C   UNL     1      -4.717  12.179  19.197  0.00  0.00    +0.000 A 
ATOM     13  C   UNL     1      -3.321  12.258  19.383  0.00  0.00    +0.000 A 
BRANCH  13  14
ATOM     14  O   UNL     1      -3.052  12.913  20.560  0.00  0.00    +0.000 OA
ATOM     15  C   UNL     1      -3.980  12.890  21.628  0.00  0.00    +0.000 C 
ENDBRANCH  13  14
BRANCH  11  16
ATOM     16  O   UNL     1      -6.595  11.503  17.756  0.00  0.00    +0.000 OA
ATOM     17  C   UNL     1      -7.373  12.685  17.918  0.00  0.00    +0.000 C 
ENDBRANCH  11  16
BRANCH   9  18
ATOM     18  O   UNL     1      -2.288  10.534  16.238  0.00  0.00    +0.000 OA
ATOM     19  C   UNL     1      -3.026  10.351  15.013  0.00  0.00    +0.000 C 
ENDBRANCH   9  18
ENDBRANCH   7   8
ENDBRANCH   4   7
BRANCH   1  20
ATOM     20  S   UNL     1       2.278   8.352  17.966  0.00  0.00    +0.000 S 
BRANCH  20  21
ATOM     21  C   UNL     1       2.904   6.938  18.969  0.00  0.00    +0.000 C 
BRANCH  21  22
ATOM     22  C   UNL     1       1.857   5.827  19.142  0.00  0.00    +0.000 C 
BRANCH  22  23
ATOM     23  C   UNL     1       1.895   5.167  20.526  0.00  0.00    +0.000 C 
BRANCH  23  24
ATOM     24  C   UNL     1       1.164   3.821  20.529  0.00  0.00    +0.000 C 
BRANCH  24  25
ATOM     25  C   UNL     1       1.154   3.171  19.143  0.00  0.00    +0.000 C 
BRANCH  25  26
ATOM     26  C   UNL     1       2.129   1.993  19.073  0.00  0.00    +0.000 C 
BRANCH  26  27
ATOM     27  C   UNL     1       3.046   2.105  17.855  0.00  0.00    +0.000 C 
BRANCH  27  28
ATOM     28  C   UNL     1       4.089   3.201  18.050  0.00  0.00    +0.000 C 
BRANCH  28  29
ATOM     29  C   UNL     1       4.444   3.858  16.718  0.00  0.00    +0.000 C 
BRANCH  29  30
ATOM     30  C   UNL     1       5.370   5.052  16.930  0.00  0.00    +0.000 C 
BRANCH  30  32
ATOM     31  C   UNL     1       7.455   5.659  18.187  0.00  0.00    +0.000 C 
ATOM     32  C   UNL     1       6.768   4.600  17.341  0.00  0.00    +0.000 C 
ENDBRANCH  30  32
ENDBRANCH  29  30
ENDBRANCH  28  29
ENDBRANCH  27  28
ENDBRANCH  26  27
ENDBRANCH  25  26
ENDBRANCH  24  25
ENDBRANCH  23  24
ENDBRANCH  22  23
ENDBRANCH  21  22
ENDBRANCH  20  21
ENDBRANCH   1  20
TORSDOF 17
ENDMDL
MODEL 2
REMARK VINA RESULT:      -6.1      1.876      3.986
REMARK  Name = 
REMARK  21 active torsions:
REMARK  status: ('A' for Active; 'I' for Inactive)
REMARK    1  A    between atoms: C_1  and  C_2
REMARK    2  A    between atoms: C_2  and  C_3
REMARK    3  A    between atoms: C_3  and  C_4
REMARK    4  A    between atoms: C_4  and  C_5
REMARK    5  A    between atoms: C_5  and  C_6
REMARK    6  A    between atoms: C_6  and  C_7
REMARK    7  A    between atoms: C_7  and  C_8
REMARK    8  A    between atoms: C_8  and  C_9
REMARK    9  A    between atoms: C_9  and  C_10
REMARK   10  A    between atoms: C_10  and  C_11
REMARK   11  A    between atoms: C_11  and  C_12
REMARK   12  A    between atoms: C_12  and  S_13
REMARK   13  A    between atoms: S_13  and  C_14
REMARK   14  A    between atoms: C_17  and  O_19
REMARK   15  A    between atoms: O_19  and  C_20
REMARK   16  A    between atoms: C_21  and  O_22
REMARK   17  A    between atoms: O_22  and  C_23
REMARK   18  A    between atoms: C_25  and  O_26
REMARK   19  A    between atoms: O_26  and  C_27
REMARK   20  A    between atoms: C_29  and  O_30
REMARK   21  A    between atoms: O_30  and  C_31
REMARK                            x       y       z     vdW  Elec       q    Type
REMARK                         _______ _______ _______ _____ _____    ______ ____
ROOT
ATOM      1  C   UNL     1       0.400   9.706  22.206  0.00  0.00    +0.000 C 
ATOM      2  O   UNL     1       0.537   9.743  23.402  0.00  0.00    +0.000 OA
ATOM      3  N   UNL     1      -0.344  10.553  21.410  0.00  0.00    +0.000 N 
ATOM      4  C   UNL     1      -0.970  11.638  21.962  0.00  0.00    +0.000 C 
ATOM      5  O   UNL     1      -1.291  11.696  23.158  0.00  0.00    +0.000 OA
ATOM      6  H   UNL     1      -0.137  10.559  20.426  0.00  0.00    +0.000 HD
ENDROOT
BRANCH   4   7
ATOM      7  O   UNL     1      -1.233  12.618  21.014  0.00  0.00    +0.000 OA
BRANCH   7   8
ATOM      8  C   UNL     1      -2.454  12.464  20.301  0.00  0.00    +0.000 A 
ATOM      9  C   UNL     1      -3.671  13.017  20.792  0.00  0.00    +0.000 A 
ATOM     10  C   UNL     1      -4.851  12.822  20.076  0.00  0.00    +0.000 A 
ATOM     11  C   UNL     1      -4.894  12.145  18.879  0.00  0.00    +0.000 A 
ATOM     12  C   UNL     1      -3.706  11.617  18.387  0.00  0.00    +0.000 A 
ATOM     13  C   UNL     1      -2.485  11.751  19.083  0.00  0.00    +0.000 A 
BRANCH  13  14
ATOM     14  O   UNL     1      -1.490  11.106  18.390  0.00  0.00    +0.000 OA
ATOM     15  C   UNL     1      -1.801  10.084  17.461  0.00  0.00    +0.000 C 
ENDBRANCH  13  14
BRANCH  11  16
ATOM     16  O   UNL     1      -6.130  12.040  18.327  0.00  0.00    +0.000 OA
ATOM     17  C   UNL     1      -6.803  10.796  18.500  0.00  0.00    +0.000 C 
ENDBRANCH  11  16
BRANCH   9  18
ATOM     18  O   UNL     1      -3.763  13.729  21.979  0.00  0.00    +0.000 OA
ATOM     19  C   UNL     1      -5.115  13.902  22.448  0.00  0.00    +0.000 C 
ENDBRANCH   9  18
ENDBRANCH   7   8
ENDBRANCH   4   7
BRANCH   1  20
ATOM     20  S   UNL     1       1.208   8.480  21.225  0.00  0.00    +0.000 S 
BRANCH  20  21
ATOM     21  C   UNL     1       1.225   9.334  19.592  0.00  0.00    +0.000 C 
BRANCH  21  22
ATOM     22  C   UNL     1       1.430   8.362  18.420  0.00  0.00    +0.000 C 
BRANCH  22  23
ATOM     23  C   UNL     1       2.833   8.443  17.803  0.00  0.00    +0.000 C 
BRANCH  23  24
ATOM     24  C   UNL     1       3.517   7.073  17.776  0.00  0.00    +0.000 C 
BRANCH  24  25
ATOM     25  C   UNL     1       2.588   5.959  18.265  0.00  0.00    +0.000 C 
BRANCH  25  26
ATOM     26  C   UNL     1       2.972   4.607  17.657  0.00  0.00    +0.000 C 
BRANCH  26  27
ATOM     27  C   UNL     1       4.422   4.248  17.977  0.00  0.00    +0.000 C 
BRANCH  27  28
ATOM     28  C   UNL     1       4.532   3.551  19.331  0.00  0.00    +0.000 C 
BRANCH  28  29
ATOM     29  C   UNL     1       3.322   2.655  19.582  0.00  0.00    +0.000 C 
BRANCH  29  30
ATOM     30  C   UNL     1       2.823   2.804  21.017  0.00  0.00    +0.000 C 
BRANCH  30  32
ATOM     31  C   UNL     1       0.703   2.888  19.677  0.00  0.00    +0.000 C 
ATOM     32  C   UNL     1       1.321   3.073  21.052  0.00  0.00    +0.000 C 
ENDBRANCH  30  32
ENDBRANCH  29  30
ENDBRANCH  28  29
ENDBRANCH  27  28
ENDBRANCH  26  27
ENDBRANCH  25  26
ENDBRANCH  24  25
ENDBRANCH  23  24
ENDBRANCH  22  23
ENDBRANCH  21  22
ENDBRANCH  20  21
ENDBRANCH   1  20
TORSDOF 17
ENDMDL
MODEL 3
REMARK VINA RESULT:      -6.0      3.250      4.125
REMARK  Name = 
REMARK  21 active torsions:
REMARK  status: ('A' for Active; 'I' for Inactive)
REMARK    1  A    between atoms: C_1  and  C_2
REMARK    2  A    between atoms: C_2  and  C_3
REMARK    3  A    between atoms: C_3  and  C_4
REMARK    4  A    between atoms: C_4  and  C_5
REMARK    5  A    between atoms: C_5  and  C_6
REMARK    6  A    between atoms: C_6  and  C_7
REMARK    7  A    between atoms: C_7  and  C_8
REMARK    8  A    between atoms: C_8  and  C_9
REMARK    9  A    between atoms: C_9  and  C_10
REMARK   10  A    between atoms: C_10  and  C_11
REMARK   11  A    between atoms: C_11  and  C_12
REMARK   12  A    between atoms: C_12  and  S_13
REMARK   13  A    between atoms: S_13  and  C_14
REMARK   14  A    between atoms: C_17  and  O_19
REMARK   15  A    between atoms: O_19  and  C_20
REMARK   16  A    between atoms: C_21  and  O_22
REMARK   17  A    between atoms: O_22  and  C_23
REMARK   18  A    between atoms: C_25  and  O_26
REMARK   19  A    between atoms: O_26  and  C_27
REMARK   20  A    between atoms: C_29  and  O_30
REMARK   21  A    between atoms: O_30  and  C_31
REMARK                            x       y       z     vdW  Elec       q    Type
REMARK                         _______ _______ _______ _____ _____    ______ ____
ROOT
ATOM      1  C   UNL     1       1.075  10.696  19.396  0.00  0.00    +0.000 C 
ATOM      2  O   UNL     1       0.796  11.071  18.286  0.00  0.00    +0.000 OA
ATOM      3  N   UNL     1       1.204  11.454  20.542  0.00  0.00    +0.000 N 
ATOM      4  C   UNL     1       0.920  12.793  20.513  0.00  0.00    +0.000 C 
ATOM      5  O   UNL     1       0.977  13.472  19.477  0.00  0.00    +0.000 OA
ATOM      6  H   UNL     1       1.168  10.968  21.421  0.00  0.00    +0.000 HD
ENDROOT
BRANCH   4   7
ATOM      7  O   UNL     1       0.618  13.283  21.776  0.00  0.00    +0.000 OA
BRANCH   7   8
ATOM      8  C   UNL     1      -0.717  13.057  22.214  0.00  0.00    +0.000 A 
ATOM      9  C   UNL     1      -1.746  14.010  21.968  0.00  0.00    +0.000 A 
ATOM     10  C   UNL     1      -3.036  13.761  22.435  0.00  0.00    +0.000 A 
ATOM     11  C   UNL     1      -3.379  12.607  23.101  0.00  0.00    +0.000 A 
ATOM     12  C   UNL     1      -2.381  11.667  23.330  0.00  0.00    +0.000 A 
ATOM     13  C   UNL     1      -1.050  11.875  22.911  0.00  0.00    +0.000 A 
BRANCH  13  14
ATOM     14  O   UNL     1      -0.276  10.809  23.299  0.00  0.00    +0.000 OA
ATOM     15  C   UNL     1      -0.626   9.489  22.932  0.00  0.00    +0.000 C 
ENDBRANCH  13  14
BRANCH  11  16
ATOM     16  O   UNL     1      -4.676  12.539  23.495  0.00  0.00    +0.000 OA
ATOM     17  C   UNL     1      -4.911  12.273  24.874  0.00  0.00    +0.000 C 
ENDBRANCH  11  16
BRANCH   9  18
ATOM     18  O   UNL     1      -1.536  15.207  21.302  0.00  0.00    +0.000 OA
ATOM     19  C   UNL     1      -1.243  16.315  22.177  0.00  0.00    +0.000 C 
ENDBRANCH   9  18
ENDBRANCH   7   8
ENDBRANCH   4   7
BRANCH   1  20
ATOM     20  S   UNL     1       1.365   8.988  19.744  0.00  0.00    +0.000 S 
BRANCH  20  21
ATOM     21  C   UNL     1       2.219   8.484  18.191  0.00  0.00    +0.000 C 
BRANCH  21  22
ATOM     22  C   UNL     1       2.560   6.987  18.164  0.00  0.00    +0.000 C 
BRANCH  22  23
ATOM     23  C   UNL     1       2.285   6.277  19.496  0.00  0.00    +0.000 C 
BRANCH  23  24
ATOM     24  C   UNL     1       2.010   4.784  19.294  0.00  0.00    +0.000 C 
BRANCH  24  25
ATOM     25  C   UNL     1       1.706   4.450  17.831  0.00  0.00    +0.000 C 
BRANCH  25  26
ATOM     26  C   UNL     1       2.750   3.496  17.249  0.00  0.00    +0.000 C 
BRANCH  26  27
ATOM     27  C   UNL     1       3.909   3.281  18.223  0.00  0.00    +0.000 C 
BRANCH  27  28
ATOM     28  C   UNL     1       5.144   4.067  17.793  0.00  0.00    +0.000 C 
BRANCH  28  29
ATOM     29  C   UNL     1       4.942   4.687  16.412  0.00  0.00    +0.000 C 
BRANCH  29  30
ATOM     30  C   UNL     1       5.716   5.995  16.284  0.00  0.00    +0.000 C 
BRANCH  30  32
ATOM     31  C   UNL     1       7.455   7.402  17.422  0.00  0.00    +0.000 C 
ATOM     32  C   UNL     1       6.322   6.410  17.622  0.00  0.00    +0.000 C 
ENDBRANCH  30  32
ENDBRANCH  29  30
ENDBRANCH  28  29
ENDBRANCH  27  28
ENDBRANCH  26  27
ENDBRANCH  25  26
ENDBRANCH  24  25
ENDBRANCH  23  24
ENDBRANCH  22  23
ENDBRANCH  21  22
ENDBRANCH  20  21
ENDBRANCH   1  20
TORSDOF 17
ENDMDL
MODEL 4
REMARK VINA RESULT:      -5.8      1.444      3.635
REMARK  Name = 
REMARK  21 active torsions:
REMARK  status: ('A' for Active; 'I' for Inactive)
REMARK    1  A    between atoms: C_1  and  C_2
REMARK    2  A    between atoms: C_2  and  C_3
REMARK    3  A    between atoms: C_3  and  C_4
REMARK    4  A    between atoms: C_4  and  C_5
REMARK    5  A    between atoms: C_5  and  C_6
REMARK    6  A    between atoms: C_6  and  C_7
REMARK    7  A    between atoms: C_7  and  C_8
REMARK    8  A    between atoms: C_8  and  C_9
REMARK    9  A    between atoms: C_9  and  C_10
REMARK   10  A    between atoms: C_10  and  C_11
REMARK   11  A    between atoms: C_11  and  C_12
REMARK   12  A    between atoms: C_12  and  S_13
REMARK   13  A    between atoms: S_13  and  C_14
REMARK   14  A    between atoms: C_17  and  O_19
REMARK   15  A    between atoms: O_19  and  C_20
REMARK   16  A    between atoms: C_21  and  O_22
REMARK   17  A    between atoms: O_22  and  C_23
REMARK   18  A    between atoms: C_25  and  O_26
REMARK   19  A    between atoms: O_26  and  C_27
REMARK   20  A    between atoms: C_29  and  O_30
REMARK   21  A    between atoms: O_30  and  C_31
REMARK                            x       y       z     vdW  Elec       q    Type
REMARK                         _______ _______ _______ _____ _____    ______ ____
ROOT
ATOM      1  C   UNL     1       0.757  10.523  20.386  0.00  0.00    +0.000 C 
ATOM      2  O   UNL     1       1.339  10.868  21.383  0.00  0.00    +0.000 OA
ATOM      3  N   UNL     1      -0.380  11.074  19.832  0.00  0.00    +0.000 N 
ATOM      4  C   UNL     1      -0.930  12.203  20.378  0.00  0.00    +0.000 C 
ATOM      5  O   UNL     1      -0.766  12.528  21.564  0.00  0.00    +0.000 OA
ATOM      6  H   UNL     1      -0.576  10.854  18.871  0.00  0.00    +0.000 HD
ENDROOT
BRANCH   4   7
ATOM      7  O   UNL     1      -1.716  12.888  19.461  0.00  0.00    +0.000 OA
BRANCH   7   8
ATOM      8  C   UNL     1      -2.993  12.317  19.205  0.00  0.00    +0.000 A 
ATOM      9  C   UNL     1      -4.104  12.579  20.057  0.00  0.00    +0.000 A 
ATOM     10  C   UNL     1      -5.332  11.979  19.785  0.00  0.00    +0.000 A 
ATOM     11  C   UNL     1      -5.539  11.163  18.697  0.00  0.00    +0.000 A 
ATOM     12  C   UNL     1      -4.462  10.916  17.854  0.00  0.00    +0.000 A 
ATOM     13  C   UNL     1      -3.186  11.467  18.095  0.00  0.00    +0.000 A 
BRANCH  13  14
ATOM     14  O   UNL     1      -2.309  11.029  17.132  0.00  0.00    +0.000 OA
ATOM     15  C   UNL     1      -2.744  10.815  15.802  0.00  0.00    +0.000 C 
ENDBRANCH  13  14
BRANCH  11  16
ATOM     16  O   UNL     1      -6.795  10.655  18.595  0.00  0.00    +0.000 OA
ATOM     17  C   UNL     1      -7.484  10.406  19.817  0.00  0.00    +0.000 C 
ENDBRANCH  11  16
BRANCH   9  18
ATOM     18  O   UNL     1      -4.032  13.390  21.179  0.00  0.00    +0.000 OA
ATOM     19  C   UNL     1      -5.204  14.205  21.383  0.00  0.00    +0.000 C 
ENDBRANCH   9  18
ENDBRANCH   7   8
ENDBRANCH   4   7
BRANCH   1  20
ATOM     20  S   UNL     1       1.331   9.167  19.410  0.00  0.00    +0.000 S 
BRANCH  20  21
ATOM     21  C   UNL     1       1.391   7.848  20.695  0.00  0.00    +0.000 C 
BRANCH  21  22
ATOM     22  C   UNL     1       1.860   6.497  20.133  0.00  0.00    +0.000 C 
BRANCH  22  23
ATOM     23  C   UNL     1       2.911   6.634  19.024  0.00  0.00    +0.000 C 
BRANCH  23  24
ATOM     24  C   UNL     1       4.104   5.702  19.258  0.00  0.00    +0.000 C 
BRANCH  24  25
ATOM     25  C   UNL     1       4.759   5.268  17.945  0.00  0.00    +0.000 C 
BRANCH  25  26
ATOM     26  C   UNL     1       3.831   4.362  17.132  0.00  0.00    +0.000 C 
BRANCH  26  27
ATOM     27  C   UNL     1       3.998   2.896  17.532  0.00  0.00    +0.000 C 
BRANCH  27  28
ATOM     28  C   UNL     1       2.644   2.225  17.747  0.00  0.00    +0.000 C 
BRANCH  28  29
ATOM     29  C   UNL     1       1.639   3.206  18.345  0.00  0.00    +0.000 C 
BRANCH  29  30
ATOM     30  C   UNL     1       0.776   2.523  19.403  0.00  0.00    +0.000 C 
BRANCH  30  32
ATOM     31  C   UNL     1       2.561   2.826  21.139  0.00  0.00    +0.000 C 
ATOM     32  C   UNL     1       1.097   3.048  20.799  0.00  0.00    +0.000 C 
ENDBRANCH  30  32
ENDBRANCH  29  30
ENDBRANCH  28  29
ENDBRANCH  27  28
ENDBRANCH  26  27
ENDBRANCH  25  26
ENDBRANCH  24  25
ENDBRANCH  23  24
ENDBRANCH  22  23
ENDBRANCH  21  22
ENDBRANCH  20  21
ENDBRANCH   1  20
TORSDOF 17
ENDMDL
MODEL 5
REMARK VINA RESULT:      -5.8      1.958      3.727
REMARK  Name = 
REMARK  21 active torsions:
REMARK  status: ('A' for Active; 'I' for Inactive)
REMARK    1  A    between atoms: C_1  and  C_2
REMARK    2  A    between atoms: C_2  and  C_3
REMARK    3  A    between atoms: C_3  and  C_4
REMARK    4  A    between atoms: C_4  and  C_5
REMARK    5  A    between atoms: C_5  and  C_6
REMARK    6  A    between atoms: C_6  and  C_7
REMARK    7  A    between atoms: C_7  and  C_8
REMARK    8  A    between atoms: C_8  and  C_9
REMARK    9  A    between atoms: C_9  and  C_10
REMARK   10  A    between atoms: C_10  and  C_11
REMARK   11  A    between atoms: C_11  and  C_12
REMARK   12  A    between atoms: C_12  and  S_13
REMARK   13  A    between atoms: S_13  and  C_14
REMARK   14  A    between atoms: C_17  and  O_19
REMARK   15  A    between atoms: O_19  and  C_20
REMARK   16  A    between atoms: C_21  and  O_22
REMARK   17  A    between atoms: O_22  and  C_23
REMARK   18  A    between atoms: C_25  and  O_26
REMARK   19  A    between atoms: O_26  and  C_27
REMARK   20  A    between atoms: C_29  and  O_30
REMARK   21  A    between atoms: O_30  and  C_31
REMARK                            x       y       z     vdW  Elec       q    Type
REMARK                         _______ _______ _______ _____ _____    ______ ____
ROOT
ATOM      1  C   UNL     1      -0.590  10.611  22.670  0.00  0.00    +0.000 C 
ATOM      2  O   UNL     1      -1.064  10.969  23.718  0.00  0.00    +0.000 OA
ATOM      3  N   UNL     1      -0.949  11.004  21.396  0.00  0.00    +0.000 N 
ATOM      4  C   UNL     1      -1.898  11.975  21.221  0.00  0.00    +0.000 C 
ATOM      5  O   UNL     1      -2.770  12.227  22.067  0.00  0.00    +0.000 OA
ATOM      6  H   UNL     1      -0.289  10.831  20.659  0.00  0.00    +0.000 HD
ENDROOT
BRANCH   4   7
ATOM      7  O   UNL     1      -1.785  12.588  19.981  0.00  0.00    +0.000 OA
BRANCH   7   8
ATOM      8  C   UNL     1      -2.179  11.792  18.869  0.00  0.00    +0.000 A 
ATOM      9  C   UNL     1      -1.226  11.035  18.129  0.00  0.00    +0.000 A 
ATOM     10  C   UNL     1      -1.649  10.288  17.031  0.00  0.00    +0.000 A 
ATOM     11  C   UNL     1      -2.967  10.213  16.643  0.00  0.00    +0.000 A 
ATOM     12  C   UNL     1      -3.902  10.937  17.371  0.00  0.00    +0.000 A 
ATOM     13  C   UNL     1      -3.532  11.739  18.472  0.00  0.00    +0.000 A 
BRANCH  13  14
ATOM     14  O   UNL     1      -4.645  12.366  18.976  0.00  0.00    +0.000 OA
ATOM     15  C   UNL     1      -5.699  11.618  19.551  0.00  0.00    +0.000 C 
ENDBRANCH  13  14
BRANCH  11  16
ATOM     16  O   UNL     1      -3.195   9.448  15.543  0.00  0.00    +0.000 OA
ATOM     17  C   UNL     1      -3.154  10.113  14.284  0.00  0.00    +0.000 C 
ENDBRANCH  11  16
BRANCH   9  18
ATOM     18  O   UNL     1       0.129  11.016  18.422  0.00  0.00    +0.000 OA
ATOM     19  C   UNL     1       0.750  12.317  18.381  0.00  0.00    +0.000 C 
ENDBRANCH   9  18
ENDBRANCH   7   8
ENDBRANCH   4   7
BRANCH   1  20
ATOM     20  S   UNL     1       0.745   9.456  22.611  0.00  0.00    +0.000 S 
BRANCH  20  21
ATOM     21  C   UNL     1       0.691   8.992  20.828  0.00  0.00    +0.000 C 
BRANCH  21  22
ATOM     22  C   UNL     1       1.550   7.758  20.513  0.00  0.00    +0.000 C 
BRANCH  22  23
ATOM     23  C   UNL     1       2.204   7.812  19.126  0.00  0.00    +0.000 C 
BRANCH  23  24
ATOM     24  C   UNL     1       2.370   6.413  18.526  0.00  0.00    +0.000 C 
BRANCH  24  25
ATOM     25  C   UNL     1       3.844   6.044  18.333  0.00  0.00    +0.000 C 
BRANCH  25  26
ATOM     26  C   UNL     1       4.032   5.109  17.137  0.00  0.00    +0.000 C 
BRANCH  26  27
ATOM     27  C   UNL     1       3.998   3.643  17.569  0.00  0.00    +0.000 C 
BRANCH  27  28
ATOM     28  C   UNL     1       2.633   3.019  17.296  0.00  0.00    +0.000 C 
BRANCH  28  29
ATOM     29  C   UNL     1       2.067   2.372  18.557  0.00  0.00    +0.000 C 
BRANCH  29  30
ATOM     30  C   UNL     1       3.052   2.487  19.717  0.00  0.00    +0.000 C 
BRANCH  30  32
ATOM     31  C   UNL     1       1.120   3.811  20.616  0.00  0.00    +0.000 C 
ATOM     32  C   UNL     1       2.367   3.018  20.972  0.00  0.00    +0.000 C 
ENDBRANCH  30  32
ENDBRANCH  29  30
ENDBRANCH  28  29
ENDBRANCH  27  28
ENDBRANCH  26  27
ENDBRANCH  25  26
ENDBRANCH  24  25
ENDBRANCH  23  24
ENDBRANCH  22  23
ENDBRANCH  21  22
ENDBRANCH  20  21
ENDBRANCH   1  20
TORSDOF 17
ENDMDL
MODEL 6
REMARK VINA RESULT:      -5.8      3.076      4.535
REMARK  Name = 
REMARK  21 active torsions:
REMARK  status: ('A' for Active; 'I' for Inactive)
REMARK    1  A    between atoms: C_1  and  C_2
REMARK    2  A    between atoms: C_2  and  C_3
REMARK    3  A    between atoms: C_3  and  C_4
REMARK    4  A    between atoms: C_4  and  C_5
REMARK    5  A    between atoms: C_5  and  C_6
REMARK    6  A    between atoms: C_6  and  C_7
REMARK    7  A    between atoms: C_7  and  C_8
REMARK    8  A    between atoms: C_8  and  C_9
REMARK    9  A    between atoms: C_9  and  C_10
REMARK   10  A    between atoms: C_10  and  C_11
REMARK   11  A    between atoms: C_11  and  C_12
REMARK   12  A    between atoms: C_12  and  S_13
REMARK   13  A    between atoms: S_13  and  C_14
REMARK   14  A    between atoms: C_17  and  O_19
REMARK   15  A    between atoms: O_19  and  C_20
REMARK   16  A    between atoms: C_21  and  O_22
REMARK   17  A    between atoms: O_22  and  C_23
REMARK   18  A    between atoms: C_25  and  O_26
REMARK   19  A    between atoms: O_26  and  C_27
REMARK   20  A    between atoms: C_29  and  O_30
REMARK   21  A    between atoms: O_30  and  C_31
REMARK                            x       y       z     vdW  Elec       q    Type
REMARK                         _______ _______ _______ _____ _____    ______ ____
ROOT
ATOM      1  C   UNL     1       1.407  11.253  19.094  0.00  0.00    +0.000 C 
ATOM      2  O   UNL     1       1.904  11.821  18.155  0.00  0.00    +0.000 OA
ATOM      3  N   UNL     1       1.284  11.705  20.392  0.00  0.00    +0.000 N 
ATOM      4  C   UNL     1       1.680  12.975  20.715  0.00  0.00    +0.000 C 
ATOM      5  O   UNL     1       2.529  13.604  20.065  0.00  0.00    +0.000 OA
ATOM      6  H   UNL     1       0.613  11.241  20.978  0.00  0.00    +0.000 HD
ENDROOT
BRANCH   4   7
ATOM      7  O   UNL     1       1.056  13.432  21.869  0.00  0.00    +0.000 OA
BRANCH   7   8
ATOM      8  C   UNL     1      -0.352  13.236  21.917  0.00  0.00    +0.000 A 
ATOM      9  C   UNL     1      -0.916  12.082  22.533  0.00  0.00    +0.000 A 
ATOM     10  C   UNL     1      -2.300  11.916  22.537  0.00  0.00    +0.000 A 
ATOM     11  C   UNL     1      -3.165  12.843  22.002  0.00  0.00    +0.000 A 
ATOM     12  C   UNL     1      -2.620  13.978  21.415  0.00  0.00    +0.000 A 
ATOM     13  C   UNL     1      -1.226  14.188  21.349  0.00  0.00    +0.000 A 
BRANCH  13  14
ATOM     14  O   UNL     1      -0.971  15.363  20.686  0.00  0.00    +0.000 OA
ATOM     15  C   UNL     1      -0.553  15.356  19.335  0.00  0.00    +0.000 C 
ENDBRANCH  13  14
BRANCH  11  16
ATOM     16  O   UNL     1      -4.479  12.511  22.083  0.00  0.00    +0.000 OA
ATOM     17  C   UNL     1      -5.317  13.397  22.819  0.00  0.00    +0.000 C 
ENDBRANCH  11  16
BRANCH   9  18
ATOM     18  O   UNL     1      -0.158  11.079  23.116  0.00  0.00    +0.000 OA
ATOM     19  C   UNL     1      -0.664   9.751  22.870  0.00  0.00    +0.000 C 
ENDBRANCH   9  18
ENDBRANCH   7   8
ENDBRANCH   4   7
BRANCH   1  20
ATOM     20  S   UNL     1       0.696   9.645  18.925  0.00  0.00    +0.000 S 
BRANCH  20  21
ATOM     21  C   UNL     1       1.860   8.906  17.701  0.00  0.00    +0.000 C 
BRANCH  21  22
ATOM     22  C   UNL     1       2.849   7.923  18.346  0.00  0.00    +0.000 C 
BRANCH  22  23
ATOM     23  C   UNL     1       3.892   7.379  17.362  0.00  0.00    +0.000 C 
BRANCH  23  24
ATOM     24  C   UNL     1       4.565   6.111  17.896  0.00  0.00    +0.000 C 
BRANCH  24  25
ATOM     25  C   UNL     1       4.475   4.952  16.901  0.00  0.00    +0.000 C 
BRANCH  25  26
ATOM     26  C   UNL     1       3.999   3.667  17.583  0.00  0.00    +0.000 C 
BRANCH  26  27
ATOM     27  C   UNL     1       2.588   3.290  17.131  0.00  0.00    +0.000 C 
BRANCH  27  28
ATOM     28  C   UNL     1       1.532   3.934  18.025  0.00  0.00    +0.000 C 
BRANCH  28  29
ATOM     29  C   UNL     1       1.017   2.939  19.063  0.00  0.00    +0.000 C 
BRANCH  29  30
ATOM     30  C   UNL     1       1.006   3.563  20.456  0.00  0.00    +0.000 C 
BRANCH  30  32
ATOM     31  C   UNL     1       1.501   5.986  20.877  0.00  0.00    +0.000 C 
ATOM     32  C   UNL     1       2.100   4.619  20.595  0.00  0.00    +0.000 C 
ENDBRANCH  30  32
ENDBRANCH  29  30
ENDBRANCH  28  29
ENDBRANCH  27  28
ENDBRANCH  26  27
ENDBRANCH  25  26
ENDBRANCH  24  25
ENDBRANCH  23  24
ENDBRANCH  22  23
ENDBRANCH  21  22
ENDBRANCH  20  21
ENDBRANCH   1  20
TORSDOF 17
ENDMDL
MODEL 7
REMARK VINA RESULT:      -5.8      7.189     10.292
REMARK  Name = 
REMARK  21 active torsions:
REMARK  status: ('A' for Active; 'I' for Inactive)
REMARK    1  A    between atoms: C_1  and  C_2
REMARK    2  A    between atoms: C_2  and  C_3
REMARK    3  A    between atoms: C_3  and  C_4
REMARK    4  A    between atoms: C_4  and  C_5
REMARK    5  A    between atoms: C_5  and  C_6
REMARK    6  A    between atoms: C_6  and  C_7
REMARK    7  A    between atoms: C_7  and  C_8
REMARK    8  A    between atoms: C_8  and  C_9
REMARK    9  A    between atoms: C_9  and  C_10
REMARK   10  A    between atoms: C_10  and  C_11
REMARK   11  A    between atoms: C_11  and  C_12
REMARK   12  A    between atoms: C_12  and  S_13
REMARK   13  A    between atoms: S_13  and  C_14
REMARK   14  A    between atoms: C_17  and  O_19
REMARK   15  A    between atoms: O_19  and  C_20
REMARK   16  A    between atoms: C_21  and  O_22
REMARK   17  A    between atoms: O_22  and  C_23
REMARK   18  A    between atoms: C_25  and  O_26
REMARK   19  A    between atoms: O_26  and  C_27
REMARK   20  A    between atoms: C_29  and  O_30
REMARK   21  A    between atoms: O_30  and  C_31
REMARK                            x       y       z     vdW  Elec       q    Type
REMARK                         _______ _______ _______ _____ _____    ______ ____
ROOT
ATOM      1  C   UNL     1       8.158   8.737  18.263  0.00  0.00    +0.000 C 
ATOM      2  O   UNL     1       7.458   9.389  17.531  0.00  0.00    +0.000 OA
ATOM      3  N   UNL     1       9.174   9.182  19.085  0.00  0.00    +0.000 N 
ATOM      4  C   UNL     1       9.427  10.522  19.198  0.00  0.00    +0.000 C 
ATOM      5  O   UNL     1       9.126  11.342  18.317  0.00  0.00    +0.000 OA
ATOM      6  H   UNL     1       9.470   8.567  19.823  0.00  0.00    +0.000 HD
ENDROOT
BRANCH   4   7
ATOM      7  O   UNL     1      10.092  10.823  20.379  0.00  0.00    +0.000 OA
BRANCH   7   8
ATOM      8  C   UNL     1       9.898  12.145  20.868  0.00  0.00    +0.000 A 
ATOM      9  C   UNL     1      10.763  13.209  20.483  0.00  0.00    +0.000 A 
ATOM     10  C   UNL     1      10.553  14.485  21.004  0.00  0.00    +0.000 A 
ATOM     11  C   UNL     1       9.515  14.781  21.856  0.00  0.00    +0.000 A 
ATOM     12  C   UNL     1       8.659  13.750  22.223  0.00  0.00    +0.000 A 
ATOM     13  C   UNL     1       8.838  12.430  21.755  0.00  0.00    +0.000 A 
BRANCH  13  14
ATOM     14  O   UNL     1       7.877  11.616  22.304  0.00  0.00    +0.000 OA
ATOM     15  C   UNL     1       7.263  11.949  23.534  0.00  0.00    +0.000 C 
ENDBRANCH  13  14
BRANCH  11  16
ATOM     16  O   UNL     1       9.472  16.072  22.276  0.00  0.00    +0.000 OA
ATOM     17  C   UNL     1       9.970  17.054  21.372  0.00  0.00    +0.000 C 
ENDBRANCH  11  16
BRANCH   9  18
ATOM     18  O   UNL     1      11.839  13.046  19.624  0.00  0.00    +0.000 OA
ATOM     19  C   UNL     1      11.866  13.997  18.540  0.00  0.00    +0.000 C 
ENDBRANCH   9  18
ENDBRANCH   7   8
ENDBRANCH   4   7
BRANCH   1  20
ATOM     20  S   UNL     1       7.958   6.989  18.411  0.00  0.00    +0.000 S 
BRANCH  20  21
ATOM     21  C   UNL     1       6.444   6.751  17.386  0.00  0.00    +0.000 C 
BRANCH  21  22
ATOM     22  C   UNL     1       5.601   5.552  17.849  0.00  0.00    +0.000 C 
BRANCH  22  23
ATOM     23  C   UNL     1       4.258   5.436  17.116  0.00  0.00    +0.000 C 
BRANCH  23  24
ATOM     24  C   UNL     1       3.104   5.981  17.962  0.00  0.00    +0.000 C 
BRANCH  24  25
ATOM     25  C   UNL     1       3.447   5.999  19.454  0.00  0.00    +0.000 C 
BRANCH  25  26
ATOM     26  C   UNL     1       2.407   5.232  20.274  0.00  0.00    +0.000 C 
BRANCH  26  27
ATOM     27  C   UNL     1       1.386   4.544  19.369  0.00  0.00    +0.000 C 
BRANCH  27  28
ATOM     28  C   UNL     1       0.854   3.265  20.010  0.00  0.00    +0.000 C 
BRANCH  28  29
ATOM     29  C   UNL     1       1.246   2.040  19.189  0.00  0.00    +0.000 C 
BRANCH  29  30
ATOM     30  C   UNL     1       2.137   2.434  18.015  0.00  0.00    +0.000 C 
BRANCH  30  32
ATOM     31  C   UNL     1       4.202   2.116  19.403  0.00  0.00    +0.000 C 
ATOM     32  C   UNL     1       3.500   1.754  18.106  0.00  0.00    +0.000 C 
ENDBRANCH  30  32
ENDBRANCH  29  30
ENDBRANCH  28  29
ENDBRANCH  27  28
ENDBRANCH  26  27
ENDBRANCH  25  26
ENDBRANCH  24  25
ENDBRANCH  23  24
ENDBRANCH  22  23
ENDBRANCH  21  22
ENDBRANCH  20  21
ENDBRANCH   1  20
TORSDOF 17
ENDMDL
MODEL 8
REMARK VINA RESULT:      -5.7      1.612      3.099
REMARK  Name = 
REMARK  21 active torsions:
REMARK  status: ('A' for Active; 'I' for Inactive)
REMARK    1  A    between atoms: C_1  and  C_2
REMARK    2  A    between atoms: C_2  and  C_3
REMARK    3  A    between atoms: C_3  and  C_4
REMARK    4  A    between atoms: C_4  and  C_5
REMARK    5  A    between atoms: C_5  and  C_6
REMARK    6  A    between atoms: C_6  and  C_7
REMARK    7  A    between atoms: C_7  and  C_8
REMARK    8  A    between atoms: C_8  and  C_9
REMARK    9  A    between atoms: C_9  and  C_10
REMARK   10  A    between atoms: C_10  and  C_11
REMARK   11  A    between atoms: C_11  and  C_12
REMARK   12  A    between atoms: C_12  and  S_13
REMARK   13  A    between atoms: S_13  and  C_14
REMARK   14  A    between atoms: C_17  and  O_19
REMARK   15  A    between atoms: O_19  and  C_20
REMARK   16  A    between atoms: C_21  and  O_22
REMARK   17  A    between atoms: O_22  and  C_23
REMARK   18  A    between atoms: C_25  and  O_26
REMARK   19  A    between atoms: O_26  and  C_27
REMARK   20  A    between atoms: C_29  and  O_30
REMARK   21  A    between atoms: O_30  and  C_31
REMARK                            x       y       z     vdW  Elec       q    Type
REMARK                         _______ _______ _______ _____ _____    ______ ____
ROOT
ATOM      1  C   UNL     1       1.300   9.115  19.263  0.00  0.00    +0.000 C 
ATOM      2  O   UNL     1       1.492   8.791  20.407  0.00  0.00    +0.000 OA
ATOM      3  N   UNL     1       0.348   9.987  18.775  0.00  0.00    +0.000 N 
ATOM      4  C   UNL     1      -0.464  10.669  19.641  0.00  0.00    +0.000 C 
ATOM      5  O   UNL     1      -0.723  10.263  20.784  0.00  0.00    +0.000 OA
ATOM      6  H   UNL     1       0.494  10.357  17.852  0.00  0.00    +0.000 HD
ENDROOT
BRANCH   4   7
ATOM      7  O   UNL     1      -0.983  11.819  19.063  0.00  0.00    +0.000 OA
BRANCH   7   8
ATOM      8  C   UNL     1      -2.400  11.941  19.113  0.00  0.00    +0.000 A 
ATOM      9  C   UNL     1      -3.038  12.737  20.106  0.00  0.00    +0.000 A 
ATOM     10  C   UNL     1      -4.430  12.810  20.135  0.00  0.00    +0.000 A 
ATOM     11  C   UNL     1      -5.230  12.171  19.216  0.00  0.00    +0.000 A 
ATOM     12  C   UNL     1      -4.611  11.405  18.236  0.00  0.00    +0.000 A 
ATOM     13  C   UNL     1      -3.208  11.265  18.173  0.00  0.00    +0.000 A 
BRANCH  13  14
ATOM     14  O   UNL     1      -2.877  10.428  17.136  0.00  0.00    +0.000 OA
ATOM     15  C   UNL     1      -2.787  10.918  15.812  0.00  0.00    +0.000 C 
ENDBRANCH  13  14
BRANCH  11  16
ATOM     16  O   UNL     1      -6.564  12.341  19.405  0.00  0.00    +0.000 OA
ATOM     17  C   UNL     1      -7.284  11.224  19.918  0.00  0.00    +0.000 C 
ENDBRANCH  11  16
BRANCH   9  18
ATOM     18  O   UNL     1      -2.348  13.439  21.083  0.00  0.00    +0.000 OA
ATOM     19  C   UNL     1      -2.280  14.859  20.839  0.00  0.00    +0.000 C 
ENDBRANCH   9  18
ENDBRANCH   7   8
ENDBRANCH   4   7
BRANCH   1  20
ATOM     20  S   UNL     1       2.296   8.482  17.948  0.00  0.00    +0.000 S 
BRANCH  20  21
ATOM     21  C   UNL     1       2.745   6.837  18.648  0.00  0.00    +0.000 C 
BRANCH  21  22
ATOM     22  C   UNL     1       2.024   5.679  17.942  0.00  0.00    +0.000 C 
BRANCH  22  23
ATOM     23  C   UNL     1       1.891   4.424  18.815  0.00  0.00    +0.000 C 
BRANCH  23  24
ATOM     24  C   UNL     1       1.991   3.143  17.982  0.00  0.00    +0.000 C 
BRANCH  24  25
ATOM     25  C   UNL     1       3.375   2.498  18.086  0.00  0.00    +0.000 C 
BRANCH  25  26
ATOM     26  C   UNL     1       4.376   3.173  17.145  0.00  0.00    +0.000 C 
BRANCH  26  27
ATOM     27  C   UNL     1       5.297   4.127  17.906  0.00  0.00    +0.000 C 
BRANCH  27  28
ATOM     28  C   UNL     1       6.088   5.012  16.947  0.00  0.00    +0.000 C 
BRANCH  28  29
ATOM     29  C   UNL     1       5.403   5.087  15.584  0.00  0.00    +0.000 C 
BRANCH  29  30
ATOM     30  C   UNL     1       6.388   4.766  14.463  0.00  0.00    +0.000 C 
BRANCH  30  32
ATOM     31  C   UNL     1       6.665   3.638  12.239  0.00  0.00    +0.000 C 
ATOM     32  C   UNL     1       5.790   3.769  13.473  0.00  0.00    +0.000 C 
ENDBRANCH  30  32
ENDBRANCH  29  30
ENDBRANCH  28  29
ENDBRANCH  27  28
ENDBRANCH  26  27
ENDBRANCH  25  26
ENDBRANCH  24  25
ENDBRANCH  23  24
ENDBRANCH  22  23
ENDBRANCH  21  22
ENDBRANCH  20  21
ENDBRANCH   1  20
TORSDOF 17
ENDMDL
MODEL 9
REMARK VINA RESULT:      -5.7      1.379      3.721
REMARK  Name = 
REMARK  21 active torsions:
REMARK  status: ('A' for Active; 'I' for Inactive)
REMARK    1  A    between atoms: C_1  and  C_2
REMARK    2  A    between atoms: C_2  and  C_3
REMARK    3  A    between atoms: C_3  and  C_4
REMARK    4  A    between atoms: C_4  and  C_5
REMARK    5  A    between atoms: C_5  and  C_6
REMARK    6  A    between atoms: C_6  and  C_7
REMARK    7  A    between atoms: C_7  and  C_8
REMARK    8  A    between atoms: C_8  and  C_9
REMARK    9  A    between atoms: C_9  and  C_10
REMARK   10  A    between atoms: C_10  and  C_11
REMARK   11  A    between atoms: C_11  and  C_12
REMARK   12  A    between atoms: C_12  and  S_13
REMARK   13  A    between atoms: S_13  and  C_14
REMARK   14  A    between atoms: C_17  and  O_19
REMARK   15  A    between atoms: O_19  and  C_20
REMARK   16  A    between atoms: C_21  and  O_22
REMARK   17  A    between atoms: O_22  and  C_23
REMARK   18  A    between atoms: C_25  and  O_26
REMARK   19  A    between atoms: O_26  and  C_27
REMARK   20  A    between atoms: C_29  and  O_30
REMARK   21  A    between atoms: O_30  and  C_31
REMARK                            x       y       z     vdW  Elec       q    Type
REMARK                         _______ _______ _______ _____ _____    ______ ____
ROOT
ATOM      1  C   UNL     1       0.864   9.704  19.571  0.00  0.00    +0.000 C 
ATOM      2  O   UNL     1       1.484   9.276  20.512  0.00  0.00    +0.000 OA
ATOM      3  N   UNL     1      -0.129  10.662  19.573  0.00  0.00    +0.000 N 
ATOM      4  C   UNL     1      -0.455  11.309  20.735  0.00  0.00    +0.000 C 
ATOM      5  O   UNL     1      -0.252  10.823  21.858  0.00  0.00    +0.000 OA
ATOM      6  H   UNL     1      -0.347  11.099  18.695  0.00  0.00    +0.000 HD
ENDROOT
BRANCH   4   7
ATOM      7  O   UNL     1      -1.071  12.529  20.489  0.00  0.00    +0.000 OA
BRANCH   7   8
ATOM      8  C   UNL     1      -2.480  12.473  20.302  0.00  0.00    +0.000 A 
ATOM      9  C   UNL     1      -3.378  12.820  21.351  0.00  0.00    +0.000 A 
ATOM     10  C   UNL     1      -4.752  12.728  21.134  0.00  0.00    +0.000 A 
ATOM     11  C   UNL     1      -5.294  12.350  19.928  0.00  0.00    +0.000 A 
ATOM     12  C   UNL     1      -4.421  12.025  18.896  0.00  0.00    +0.000 A 
ATOM     13  C   UNL     1      -3.020  12.066  19.063  0.00  0.00    +0.000 A 
BRANCH  13  14
ATOM     14  O   UNL     1      -2.409  11.663  17.902  0.00  0.00    +0.000 OA
ATOM     15  C   UNL     1      -2.817  10.480  17.242  0.00  0.00    +0.000 C 
ENDBRANCH  13  14
BRANCH  11  16
ATOM     16  O   UNL     1      -6.651  12.303  19.900  0.00  0.00    +0.000 OA
ATOM     17  C   UNL     1      -7.242  11.558  18.840  0.00  0.00    +0.000 C 
ENDBRANCH  11  16
BRANCH   9  18
ATOM     18  O   UNL     1      -2.963  13.226  22.610  0.00  0.00    +0.000 OA
ATOM     19  C   UNL     1      -3.015  12.182  23.603  0.00  0.00    +0.000 C 
ENDBRANCH   9  18
ENDBRANCH   7   8
ENDBRANCH   4   7
BRANCH   1  20
ATOM     20  S   UNL     1       1.176   9.134  17.929  0.00  0.00    +0.000 S 
BRANCH  20  21
ATOM     21  C   UNL     1       2.846   8.388  18.159  0.00  0.00    +0.000 C 
BRANCH  21  22
ATOM     22  C   UNL     1       2.896   6.912  17.738  0.00  0.00    +0.000 C 
BRANCH  22  23
ATOM     23  C   UNL     1       4.322   6.349  17.670  0.00  0.00    +0.000 C 
BRANCH  23  24
ATOM     24  C   UNL     1       4.353   4.972  16.999  0.00  0.00    +0.000 C 
BRANCH  24  25
ATOM     25  C   UNL     1       5.070   3.930  17.863  0.00  0.00    +0.000 C 
BRANCH  25  26
ATOM     26  C   UNL     1       4.071   3.053  18.621  0.00  0.00    +0.000 C 
BRANCH  26  27
ATOM     27  C   UNL     1       3.110   2.350  17.661  0.00  0.00    +0.000 C 
BRANCH  27  28
ATOM     28  C   UNL     1       1.728   2.186  18.287  0.00  0.00    +0.000 C 
BRANCH  28  29
ATOM     29  C   UNL     1       1.203   3.522  18.807  0.00  0.00    +0.000 C 
BRANCH  29  30
ATOM     30  C   UNL     1       0.869   3.434  20.294  0.00  0.00    +0.000 C 
BRANCH  30  32
ATOM     31  C   UNL     1       1.883   5.694  20.693  0.00  0.00    +0.000 C 
ATOM     32  C   UNL     1       1.860   4.239  21.130  0.00  0.00    +0.000 C 
ENDBRANCH  30  32
ENDBRANCH  29  30
ENDBRANCH  28  29
ENDBRANCH  27  28
ENDBRANCH  26  27
ENDBRANCH  25  26
ENDBRANCH  24  25
ENDBRANCH  23  24
ENDBRANCH  22  23
ENDBRANCH  21  22
ENDBRANCH  20  21
ENDBRANCH   1  20
TORSDOF 17
ENDMDL
