MODEL 1
REMARK VINA RESULT:      -7.6      0.000      0.000
REMARK  Name = 
REMARK  5 active torsions:
REMARK  status: ('A' for Active; 'I' for Inactive)
REMARK    1  A    between atoms: C_1  and  C_2
REMARK    2  A    between atoms: C_3  and  C_4
REMARK    3  A    between atoms: N_6  and  N_7
REMARK    4  A    between atoms: N_14  and  C_15
REMARK    5  A    between atoms: C_26  and  C_27
REMARK                            x       y       z     vdW  Elec       q    Type
REMARK                         _______ _______ _______ _____ _____    ______ ____
ROOT
ATOM      1  C   UNL     1       2.155  12.390  20.793  0.00  0.00    +0.000 C 
ATOM      2  C   UNL     1       0.787  11.870  20.510  0.00  0.00    +0.000 A 
ATOM      3  C   UNL     1       0.345  10.515  20.640  0.00  0.00    +0.000 A 
ATOM      4  N   UNL     1      -0.958  10.419  20.335  0.00  0.00    +0.000 NA
ATOM      5  N   UNL     1      -1.354  11.658  19.941  0.00  0.00    +0.000 N 
ATOM      6  C   UNL     1      -0.334  12.609  20.106  0.00  0.00    +0.000 A 
ENDROOT
BRANCH   5   7
ATOM      7  C   UNL     1      -2.653  11.805  19.352  0.00  0.00    +0.000 A 
ATOM      8  C   UNL     1      -3.637  12.495  20.073  0.00  0.00    +0.000 A 
ATOM      9  C   UNL     1      -4.879  12.651  19.500  0.00  0.00    +0.000 A 
ATOM     10  N   UNL     1      -5.186  12.223  18.262  0.00  0.00    +0.000 NA
ATOM     11  C   UNL     1      -4.245  11.592  17.547  0.00  0.00    +0.000 A 
ATOM     12  C   UNL     1      -4.593  11.199  16.264  0.00  0.00    +0.000 A 
ATOM     13  C   UNL     1      -3.707  10.503  15.449  0.00  0.00    +0.000 A 
ATOM     14 CL   UNL     1      -4.165  10.069  13.850  0.00  0.00    +0.000 Cl
ATOM     15  C   UNL     1      -2.457  10.150  15.927  0.00  0.00    +0.000 A 
ATOM     16  C   UNL     1      -2.088  10.537  17.215  0.00  0.00    +0.000 A 
ATOM     17  C   UNL     1      -2.949  11.311  18.044  0.00  0.00    +0.000 A 
ENDBRANCH   5   7
BRANCH   6  18
ATOM     18  C   UNL     1      -0.484  14.081  19.938  0.00  0.00    +0.000 A 
ATOM     19  C   UNL     1      -0.167  14.726  18.725  0.00  0.00    +0.000 A 
ATOM     20  C   UNL     1      -0.236  16.119  18.600  0.00  0.00    +0.000 A 
ATOM     21  C   UNL     1      -0.699  16.881  19.662  0.00  0.00    +0.000 A 
ATOM     22  F   UNL     1      -0.782  18.211  19.538  0.00  0.00    +0.000 F 
ATOM     23  C   UNL     1      -1.074  16.276  20.850  0.00  0.00    +0.000 A 
ATOM     24  C   UNL     1      -0.946  14.888  20.992  0.00  0.00    +0.000 A 
ENDBRANCH   6  18
BRANCH   3  25
ATOM     25  C   UNL     1       1.107   9.303  21.063  0.00  0.00    +0.000 C 
ATOM     26  O   UNL     1       1.386   9.062  22.237  0.00  0.00    +0.000 OA
ATOM     27  N   UNL     1       1.463   8.485  19.987  0.00  0.00    +0.000 N 
ATOM     28  H   UNL     1       1.177   8.824  19.066  0.00  0.00    +0.000 HD
BRANCH  27  29
ATOM     29  N   UNL     1       2.181   7.263  20.057  0.00  0.00    +0.000 NA
ATOM     30  C   UNL     1       1.418   6.162  20.659  0.00  0.00    +0.000 C 
ATOM     31  C   UNL     1       2.322   4.950  20.919  0.00  0.00    +0.000 C 
ATOM     32  C   UNL     1       3.037   4.498  19.649  0.00  0.00    +0.000 C 
ATOM     33  C   UNL     1       3.747   5.676  18.989  0.00  0.00    +0.000 C 
ATOM     34  C   UNL     1       2.804   6.869  18.788  0.00  0.00    +0.000 C 
ENDBRANCH  27  29
ENDBRANCH   3  25
TORSDOF 4
ENDMDL
MODEL 2
REMARK VINA RESULT:      -7.5      1.709      2.622
REMARK  Name = 
REMARK  5 active torsions:
REMARK  status: ('A' for Active; 'I' for Inactive)
REMARK    1  A    between atoms: C_1  and  C_2
REMARK    2  A    between atoms: C_3  and  C_4
REMARK    3  A    between atoms: N_6  and  N_7
REMARK    4  A    between atoms: N_14  and  C_15
REMARK    5  A    between atoms: C_26  and  C_27
REMARK                            x       y       z     vdW  Elec       q    Type
REMARK                         _______ _______ _______ _____ _____    ______ ____
ROOT
ATOM      1  C   UNL     1       1.958  12.576  20.673  0.00  0.00    +0.000 C 
ATOM      2  C   UNL     1       0.652  11.987  20.264  0.00  0.00    +0.000 A 
ATOM      3  C   UNL     1       0.284  10.605  20.319  0.00  0.00    +0.000 A 
ATOM      4  N   UNL     1      -0.982  10.444  19.905  0.00  0.00    +0.000 NA
ATOM      5  N   UNL     1      -1.420  11.669  19.515  0.00  0.00    +0.000 N 
ATOM      6  C   UNL     1      -0.476  12.672  19.790  0.00  0.00    +0.000 A 
ENDROOT
BRANCH   5   7
ATOM      7  C   UNL     1      -2.673  11.760  18.826  0.00  0.00    +0.000 A 
ATOM      8  C   UNL     1      -2.712  11.423  17.466  0.00  0.00    +0.000 A 
ATOM      9  C   UNL     1      -3.920  11.493  16.808  0.00  0.00    +0.000 A 
ATOM     10  N   UNL     1      -5.077  11.816  17.413  0.00  0.00    +0.000 NA
ATOM     11  C   UNL     1      -5.062  12.107  18.720  0.00  0.00    +0.000 A 
ATOM     12  C   UNL     1      -6.282  12.401  19.309  0.00  0.00    +0.000 A 
ATOM     13  C   UNL     1      -6.377  12.755  20.651  0.00  0.00    +0.000 A 
ATOM     14 CL   UNL     1      -7.915  13.073  21.352  0.00  0.00    +0.000 Cl
ATOM     15  C   UNL     1      -5.233  12.861  21.422  0.00  0.00    +0.000 A 
ATOM     16  C   UNL     1      -3.997  12.568  20.848  0.00  0.00    +0.000 A 
ATOM     17  C   UNL     1      -3.878  12.135  19.497  0.00  0.00    +0.000 A 
ENDBRANCH   5   7
BRANCH   6  18
ATOM     18  C   UNL     1      -0.701  14.138  19.652  0.00  0.00    +0.000 A 
ATOM     19  C   UNL     1      -0.153  14.876  18.584  0.00  0.00    +0.000 A 
ATOM     20  C   UNL     1      -0.305  16.266  18.504  0.00  0.00    +0.000 A 
ATOM     21  C   UNL     1      -1.073  16.927  19.449  0.00  0.00    +0.000 A 
ATOM     22  F   UNL     1      -1.233  18.254  19.365  0.00  0.00    +0.000 F 
ATOM     23  C   UNL     1      -1.674  16.227  20.482  0.00  0.00    +0.000 A 
ATOM     24  C   UNL     1      -1.471  14.845  20.593  0.00  0.00    +0.000 A 
ENDBRANCH   6  18
BRANCH   3  25
ATOM     25  C   UNL     1       1.082   9.426  20.768  0.00  0.00    +0.000 C 
ATOM     26  O   UNL     1       1.373   9.224  21.946  0.00  0.00    +0.000 OA
ATOM     27  N   UNL     1       1.456   8.591  19.712  0.00  0.00    +0.000 N 
ATOM     28  H   UNL     1       1.156   8.898  18.785  0.00  0.00    +0.000 HD
BRANCH  27  29
ATOM     29  N   UNL     1       2.208   7.392  19.809  0.00  0.00    +0.000 NA
ATOM     30  C   UNL     1       1.510   6.311  20.518  0.00  0.00    +0.000 C 
ATOM     31  C   UNL     1       2.459   5.137  20.792  0.00  0.00    +0.000 C 
ATOM     32  C   UNL     1       3.110   4.628  19.510  0.00  0.00    +0.000 C 
ATOM     33  C   UNL     1       3.750   5.781  18.743  0.00  0.00    +0.000 C 
ATOM     34  C   UNL     1       2.766   6.938  18.530  0.00  0.00    +0.000 C 
ENDBRANCH  27  29
ENDBRANCH   3  25
TORSDOF 4
ENDMDL
MODEL 3
REMARK VINA RESULT:      -7.4      1.865      2.353
REMARK  Name = 
REMARK  5 active torsions:
REMARK  status: ('A' for Active; 'I' for Inactive)
REMARK    1  A    between atoms: C_1  and  C_2
REMARK    2  A    between atoms: C_3  and  C_4
REMARK    3  A    between atoms: N_6  and  N_7
REMARK    4  A    between atoms: N_14  and  C_15
REMARK    5  A    between atoms: C_26  and  C_27
REMARK                            x       y       z     vdW  Elec       q    Type
REMARK                         _______ _______ _______ _____ _____    ______ ____
ROOT
ATOM      1  C   UNL     1       2.593  12.311  18.016  0.00  0.00    +0.000 C 
ATOM      2  C   UNL     1       1.367  11.873  18.741  0.00  0.00    +0.000 A 
ATOM      3  C   UNL     1       0.949  10.524  18.975  0.00  0.00    +0.000 A 
ATOM      4  N   UNL     1      -0.184  10.507  19.693  0.00  0.00    +0.000 NA
ATOM      5  N   UNL     1      -0.550  11.804  19.869  0.00  0.00    +0.000 N 
ATOM      6  C   UNL     1       0.417  12.691  19.368  0.00  0.00    +0.000 A 
ENDROOT
BRANCH   5   7
ATOM      7  C   UNL     1      -1.844  12.079  20.422  0.00  0.00    +0.000 A 
ATOM      8  C   UNL     1      -1.929  12.423  21.778  0.00  0.00    +0.000 A 
ATOM      9  C   UNL     1      -3.169  12.705  22.305  0.00  0.00    +0.000 A 
ATOM     10  N   UNL     1      -4.300  12.720  21.577  0.00  0.00    +0.000 NA
ATOM     11  C   UNL     1      -4.230  12.428  20.271  0.00  0.00    +0.000 A 
ATOM     12  C   UNL     1      -5.413  12.491  19.552  0.00  0.00    +0.000 A 
ATOM     13  C   UNL     1      -5.462  12.169  18.200  0.00  0.00    +0.000 A 
ATOM     14 CL   UNL     1      -6.943  12.298  17.336  0.00  0.00    +0.000 Cl
ATOM     15  C   UNL     1      -4.320  11.736  17.549  0.00  0.00    +0.000 A 
ATOM     16  C   UNL     1      -3.120  11.668  18.255  0.00  0.00    +0.000 A 
ATOM     17  C   UNL     1      -3.027  12.059  19.621  0.00  0.00    +0.000 A 
ENDBRANCH   5   7
BRANCH   6  18
ATOM     18  C   UNL     1       0.415  14.169  19.551  0.00  0.00    +0.000 A 
ATOM     19  C   UNL     1       0.985  14.777  20.687  0.00  0.00    +0.000 A 
ATOM     20  C   UNL     1       0.910  16.162  20.888  0.00  0.00    +0.000 A 
ATOM     21  C   UNL     1       0.334  16.965  19.917  0.00  0.00    +0.000 A 
ATOM     22  F   UNL     1       0.277  18.290  20.100  0.00  0.00    +0.000 F 
ATOM     23  C   UNL     1      -0.186  16.408  18.760  0.00  0.00    +0.000 A 
ATOM     24  C   UNL     1      -0.163  15.018  18.590  0.00  0.00    +0.000 A 
ENDBRANCH   6  18
BRANCH   3  25
ATOM     25  C   UNL     1       1.593   9.244  18.559  0.00  0.00    +0.000 C 
ATOM     26  O   UNL     1       1.948   9.016  17.404  0.00  0.00    +0.000 OA
ATOM     27  N   UNL     1       1.741   8.344  19.618  0.00  0.00    +0.000 N 
ATOM     28  H   UNL     1       1.381   8.665  20.519  0.00  0.00    +0.000 HD
BRANCH  27  29
ATOM     29  N   UNL     1       2.320   7.050  19.552  0.00  0.00    +0.000 NA
ATOM     30  C   UNL     1       1.730   6.090  20.494  0.00  0.00    +0.000 C 
ATOM     31  C   UNL     1       2.552   4.794  20.538  0.00  0.00    +0.000 C 
ATOM     32  C   UNL     1       2.713   4.182  19.150  0.00  0.00    +0.000 C 
ATOM     33  C   UNL     1       3.240   5.222  18.165  0.00  0.00    +0.000 C 
ATOM     34  C   UNL     1       2.401   6.506  18.192  0.00  0.00    +0.000 C 
ENDBRANCH  27  29
ENDBRANCH   3  25
TORSDOF 4
ENDMDL
MODEL 4
REMARK VINA RESULT:      -7.1      1.859      2.817
REMARK  Name = 
REMARK  5 active torsions:
REMARK  status: ('A' for Active; 'I' for Inactive)
REMARK    1  A    between atoms: C_1  and  C_2
REMARK    2  A    between atoms: C_3  and  C_4
REMARK    3  A    between atoms: N_6  and  N_7
REMARK    4  A    between atoms: N_14  and  C_15
REMARK    5  A    between atoms: C_26  and  C_27
REMARK                            x       y       z     vdW  Elec       q    Type
REMARK                         _______ _______ _______ _____ _____    ______ ____
ROOT
ATOM      1  C   UNL     1       2.074  12.158  20.262  0.00  0.00    +0.000 C 
ATOM      2  C   UNL     1       0.779  11.618  19.758  0.00  0.00    +0.000 A 
ATOM      3  C   UNL     1       0.440  10.239  19.579  0.00  0.00    +0.000 A 
ATOM      4  N   UNL     1      -0.823  10.123  19.143  0.00  0.00    +0.000 NA
ATOM      5  N   UNL     1      -1.288  11.388  18.965  0.00  0.00    +0.000 N 
ATOM      6  C   UNL     1      -0.364  12.349  19.406  0.00  0.00    +0.000 A 
ENDROOT
BRANCH   5   7
ATOM      7  C   UNL     1      -2.545  11.566  18.300  0.00  0.00    +0.000 A 
ATOM      8  C   UNL     1      -2.616  11.301  16.926  0.00  0.00    +0.000 A 
ATOM      9  C   UNL     1      -3.827  11.456  16.291  0.00  0.00    +0.000 A 
ATOM     10  N   UNL     1      -4.962  11.797  16.928  0.00  0.00    +0.000 NA
ATOM     11  C   UNL     1      -4.918  12.021  18.248  0.00  0.00    +0.000 A 
ATOM     12  C   UNL     1      -6.116  12.335  18.869  0.00  0.00    +0.000 A 
ATOM     13  C   UNL     1      -6.178  12.625  20.228  0.00  0.00    +0.000 A 
ATOM     14 CL   UNL     1      -7.692  12.972  20.967  0.00  0.00    +0.000 Cl
ATOM     15  C   UNL     1      -5.021  12.642  20.987  0.00  0.00    +0.000 A 
ATOM     16  C   UNL     1      -3.806  12.327  20.380  0.00  0.00    +0.000 A 
ATOM     17  C   UNL     1      -3.724  11.958  19.007  0.00  0.00    +0.000 A 
ENDBRANCH   5   7
BRANCH   6  18
ATOM     18  C   UNL     1      -0.621  13.812  19.517  0.00  0.00    +0.000 A 
ATOM     19  C   UNL     1      -1.314  14.364  20.613  0.00  0.00    +0.000 A 
ATOM     20  C   UNL     1      -1.619  15.730  20.671  0.00  0.00    +0.000 A 
ATOM     21  C   UNL     1      -1.167  16.576  19.671  0.00  0.00    +0.000 A 
ATOM     22  F   UNL     1      -1.443  17.885  19.733  0.00  0.00    +0.000 F 
ATOM     23  C   UNL     1      -0.433  16.079  18.606  0.00  0.00    +0.000 A 
ATOM     24  C   UNL     1      -0.181  14.703  18.521  0.00  0.00    +0.000 A 
ENDBRANCH   6  18
BRANCH   3  25
ATOM     25  C   UNL     1       1.264   9.018  19.824  0.00  0.00    +0.000 C 
ATOM     26  O   UNL     1       1.378   8.499  20.934  0.00  0.00    +0.000 OA
ATOM     27  N   UNL     1       1.882   8.541  18.666  0.00  0.00    +0.000 N 
ATOM     28  H   UNL     1       1.709   9.088  17.820  0.00  0.00    +0.000 HD
BRANCH  27  29
ATOM     29  N   UNL     1       2.720   7.400  18.564  0.00  0.00    +0.000 NA
ATOM     30  C   UNL     1       1.985   6.130  18.505  0.00  0.00    +0.000 C 
ATOM     31  C   UNL     1       2.944   4.939  18.636  0.00  0.00    +0.000 C 
ATOM     32  C   UNL     1       4.049   4.989  17.586  0.00  0.00    +0.000 C 
ATOM     33  C   UNL     1       4.739   6.349  17.601  0.00  0.00    +0.000 C 
ATOM     34  C   UNL     1       3.730   7.500  17.504  0.00  0.00    +0.000 C 
ENDBRANCH  27  29
ENDBRANCH   3  25
TORSDOF 4
ENDMDL
MODEL 5
REMARK VINA RESULT:      -7.1      2.753      3.658
REMARK  Name = 
REMARK  5 active torsions:
REMARK  status: ('A' for Active; 'I' for Inactive)
REMARK    1  A    between atoms: C_1  and  C_2
REMARK    2  A    between atoms: C_3  and  C_4
REMARK    3  A    between atoms: N_6  and  N_7
REMARK    4  A    between atoms: N_14  and  C_15
REMARK    5  A    between atoms: C_26  and  C_27
REMARK                            x       y       z     vdW  Elec       q    Type
REMARK                         _______ _______ _______ _____ _____    ______ ____
ROOT
ATOM      1  C   UNL     1       2.832  12.273  18.200  0.00  0.00    +0.000 C 
ATOM      2  C   UNL     1       1.488  11.811  18.651  0.00  0.00    +0.000 A 
ATOM      3  C   UNL     1       1.031  10.457  18.725  0.00  0.00    +0.000 A 
ATOM      4  N   UNL     1      -0.219  10.414  19.210  0.00  0.00    +0.000 NA
ATOM      5  N   UNL     1      -0.611  11.704  19.383  0.00  0.00    +0.000 N 
ATOM      6  C   UNL     1       0.435  12.605  19.127  0.00  0.00    +0.000 A 
ENDROOT
BRANCH   5   7
ATOM      7  C   UNL     1      -1.986  11.964  19.691  0.00  0.00    +0.000 A 
ATOM      8  C   UNL     1      -2.928  11.881  18.657  0.00  0.00    +0.000 A 
ATOM      9  C   UNL     1      -4.251  12.115  18.956  0.00  0.00    +0.000 A 
ATOM     10  N   UNL     1      -4.699  12.366  20.200  0.00  0.00    +0.000 NA
ATOM     11  C   UNL     1      -3.815  12.415  21.205  0.00  0.00    +0.000 A 
ATOM     12  C   UNL     1      -4.323  12.642  22.475  0.00  0.00    +0.000 A 
ATOM     13  C   UNL     1      -3.491  12.750  23.584  0.00  0.00    +0.000 A 
ATOM     14 CL   UNL     1      -4.166  12.992  25.147  0.00  0.00    +0.000 Cl
ATOM     15  C   UNL     1      -2.118  12.671  23.431  0.00  0.00    +0.000 A 
ATOM     16  C   UNL     1      -1.588  12.441  22.162  0.00  0.00    +0.000 A 
ATOM     17  C   UNL     1      -2.419  12.256  21.021  0.00  0.00    +0.000 A 
ENDBRANCH   5   7
BRANCH   6  18
ATOM     18  C   UNL     1       0.400  14.071  19.387  0.00  0.00    +0.000 A 
ATOM     19  C   UNL     1      -0.264  14.963  18.521  0.00  0.00    +0.000 A 
ATOM     20  C   UNL     1      -0.226  16.348  18.730  0.00  0.00    +0.000 A 
ATOM     21  C   UNL     1       0.412  16.854  19.851  0.00  0.00    +0.000 A 
ATOM     22  F   UNL     1       0.435  18.176  20.061  0.00  0.00    +0.000 F 
ATOM     23  C   UNL     1       1.028  16.004  20.755  0.00  0.00    +0.000 A 
ATOM     24  C   UNL     1       1.039  14.624  20.511  0.00  0.00    +0.000 A 
ENDBRANCH   6  18
BRANCH   3  25
ATOM     25  C   UNL     1       1.742   9.193  18.371  0.00  0.00    +0.000 C 
ATOM     26  O   UNL     1       2.217   8.981  17.256  0.00  0.00    +0.000 OA
ATOM     27  N   UNL     1       1.802   8.290  19.435  0.00  0.00    +0.000 N 
ATOM     28  H   UNL     1       1.347   8.598  20.297  0.00  0.00    +0.000 HD
BRANCH  27  29
ATOM     29  N   UNL     1       2.414   7.009  19.423  0.00  0.00    +0.000 NA
ATOM     30  C   UNL     1       1.834   6.068  20.390  0.00  0.00    +0.000 C 
ATOM     31  C   UNL     1       2.686   4.796  20.490  0.00  0.00    +0.000 C 
ATOM     32  C   UNL     1       2.882   4.140  19.127  0.00  0.00    +0.000 C 
ATOM     33  C   UNL     1       3.398   5.157  18.114  0.00  0.00    +0.000 C 
ATOM     34  C   UNL     1       2.528   6.421  18.084  0.00  0.00    +0.000 C 
ENDBRANCH  27  29
ENDBRANCH   3  25
TORSDOF 4
ENDMDL
MODEL 6
REMARK VINA RESULT:      -7.0      2.353      3.097
REMARK  Name = 
REMARK  5 active torsions:
REMARK  status: ('A' for Active; 'I' for Inactive)
REMARK    1  A    between atoms: C_1  and  C_2
REMARK    2  A    between atoms: C_3  and  C_4
REMARK    3  A    between atoms: N_6  and  N_7
REMARK    4  A    between atoms: N_14  and  C_15
REMARK    5  A    between atoms: C_26  and  C_27
REMARK                            x       y       z     vdW  Elec       q    Type
REMARK                         _______ _______ _______ _____ _____    ______ ____
ROOT
ATOM      1  C   UNL     1       2.578  11.988  17.716  0.00  0.00    +0.000 C 
ATOM      2  C   UNL     1       1.544  11.617  18.724  0.00  0.00    +0.000 A 
ATOM      3  C   UNL     1       1.138  10.293  19.084  0.00  0.00    +0.000 A 
ATOM      4  N   UNL     1       0.210  10.338  20.052  0.00  0.00    +0.000 NA
ATOM      5  N   UNL     1      -0.050  11.653  20.277  0.00  0.00    +0.000 N 
ATOM      6  C   UNL     1       0.805  12.487  19.538  0.00  0.00    +0.000 A 
ENDROOT
BRANCH   5   7
ATOM      7  C   UNL     1      -1.161  11.996  21.115  0.00  0.00    +0.000 A 
ATOM      8  C   UNL     1      -0.926  12.210  22.480  0.00  0.00    +0.000 A 
ATOM      9  C   UNL     1      -1.990  12.556  23.281  0.00  0.00    +0.000 A 
ATOM     10  N   UNL     1      -3.237  12.753  22.817  0.00  0.00    +0.000 NA
ATOM     11  C   UNL     1      -3.471  12.586  21.508  0.00  0.00    +0.000 A 
ATOM     12  C   UNL     1      -4.762  12.833  21.068  0.00  0.00    +0.000 A 
ATOM     13  C   UNL     1      -5.125  12.653  19.737  0.00  0.00    +0.000 A 
ATOM     14 CL   UNL     1      -6.727  13.009  19.225  0.00  0.00    +0.000 Cl
ATOM     15  C   UNL     1      -4.199  12.179  18.824  0.00  0.00    +0.000 A 
ATOM     16  C   UNL     1      -2.895  11.926  19.249  0.00  0.00    +0.000 A 
ATOM     17  C   UNL     1      -2.479  12.169  20.588  0.00  0.00    +0.000 A 
ENDBRANCH   5   7
BRANCH   6  18
ATOM     18  C   UNL     1       0.907  13.966  19.678  0.00  0.00    +0.000 A 
ATOM     19  C   UNL     1       0.083  14.841  18.941  0.00  0.00    +0.000 A 
ATOM     20  C   UNL     1       0.239  16.231  19.020  0.00  0.00    +0.000 A 
ATOM     21  C   UNL     1       1.170  16.767  19.896  0.00  0.00    +0.000 A 
ATOM     22  F   UNL     1       1.309  18.096  19.985  0.00  0.00    +0.000 F 
ATOM     23  C   UNL     1       1.959  15.940  20.678  0.00  0.00    +0.000 A 
ATOM     24  C   UNL     1       1.842  14.549  20.553  0.00  0.00    +0.000 A 
ENDBRANCH   6  18
BRANCH   3  25
ATOM     25  C   UNL     1       1.611   8.978  18.560  0.00  0.00    +0.000 C 
ATOM     26  O   UNL     1       1.836   8.774  17.368  0.00  0.00    +0.000 OA
ATOM     27  N   UNL     1       1.764   8.018  19.564  0.00  0.00    +0.000 N 
ATOM     28  H   UNL     1       1.522   8.329  20.507  0.00  0.00    +0.000 HD
BRANCH  27  29
ATOM     29  N   UNL     1       2.204   6.680  19.393  0.00  0.00    +0.000 NA
ATOM     30  C   UNL     1       3.617   6.565  19.012  0.00  0.00    +0.000 C 
ATOM     31  C   UNL     1       3.960   5.123  18.616  0.00  0.00    +0.000 C 
ATOM     32  C   UNL     1       3.602   4.135  19.722  0.00  0.00    +0.000 C 
ATOM     33  C   UNL     1       2.157   4.333  20.168  0.00  0.00    +0.000 C 
ATOM     34  C   UNL     1       1.864   5.798  20.516  0.00  0.00    +0.000 C 
ENDBRANCH  27  29
ENDBRANCH   3  25
TORSDOF 4
ENDMDL
MODEL 7
REMARK VINA RESULT:      -7.0      4.467      7.046
REMARK  Name = 
REMARK  5 active torsions:
REMARK  status: ('A' for Active; 'I' for Inactive)
REMARK    1  A    between atoms: C_1  and  C_2
REMARK    2  A    between atoms: C_3  and  C_4
REMARK    3  A    between atoms: N_6  and  N_7
REMARK    4  A    between atoms: N_14  and  C_15
REMARK    5  A    between atoms: C_26  and  C_27
REMARK                            x       y       z     vdW  Elec       q    Type
REMARK                         _______ _______ _______ _____ _____    ______ ____
ROOT
ATOM      1  C   UNL     1       2.615  12.403  18.138  0.00  0.00    +0.000 C 
ATOM      2  C   UNL     1       1.801  12.677  19.356  0.00  0.00    +0.000 A 
ATOM      3  C   UNL     1       2.206  13.434  20.501  0.00  0.00    +0.000 A 
ATOM      4  N   UNL     1       1.203  13.505  21.390  0.00  0.00    +0.000 NA
ATOM      5  N   UNL     1       0.187  12.756  20.887  0.00  0.00    +0.000 N 
ATOM      6  C   UNL     1       0.475  12.288  19.595  0.00  0.00    +0.000 A 
ENDROOT
BRANCH   5   7
ATOM      7  C   UNL     1      -0.939  12.478  21.729  0.00  0.00    +0.000 A 
ATOM      8  C   UNL     1      -0.880  11.361  22.574  0.00  0.00    +0.000 A 
ATOM      9  C   UNL     1      -1.955  11.105  23.395  0.00  0.00    +0.000 A 
ATOM     10  N   UNL     1      -3.039  11.898  23.471  0.00  0.00    +0.000 NA
ATOM     11  C   UNL     1      -3.095  12.988  22.695  0.00  0.00    +0.000 A 
ATOM     12  C   UNL     1      -4.213  13.796  22.831  0.00  0.00    +0.000 A 
ATOM     13  C   UNL     1      -4.392  14.930  22.046  0.00  0.00    +0.000 A 
ATOM     14 CL   UNL     1      -5.775  15.926  22.275  0.00  0.00    +0.000 Cl
ATOM     15  C   UNL     1      -3.462  15.256  21.076  0.00  0.00    +0.000 A 
ATOM     16  C   UNL     1      -2.329  14.457  20.925  0.00  0.00    +0.000 A 
ATOM     17  C   UNL     1      -2.086  13.330  21.761  0.00  0.00    +0.000 A 
ENDBRANCH   5   7
BRANCH   6  18
ATOM     18  C   UNL     1      -0.481  11.589  18.691  0.00  0.00    +0.000 A 
ATOM     19  C   UNL     1      -1.586  12.255  18.123  0.00  0.00    +0.000 A 
ATOM     20  C   UNL     1      -2.524  11.572  17.338  0.00  0.00    +0.000 A 
ATOM     21  C   UNL     1      -2.327  10.231  17.045  0.00  0.00    +0.000 A 
ATOM     22  F   UNL     1      -3.213   9.581  16.281  0.00  0.00    +0.000 F 
ATOM     23  C   UNL     1      -1.222   9.558  17.540  0.00  0.00    +0.000 A 
ATOM     24  C   UNL     1      -0.318  10.229  18.374  0.00  0.00    +0.000 A 
ENDBRANCH   6  18
BRANCH   3  25
ATOM     25  C   UNL     1       3.506  14.112  20.782  0.00  0.00    +0.000 C 
ATOM     26  O   UNL     1       4.049  14.089  21.886  0.00  0.00    +0.000 OA
ATOM     27  N   UNL     1       4.026  14.769  19.664  0.00  0.00    +0.000 N 
ATOM     28  H   UNL     1       3.452  14.716  18.819  0.00  0.00    +0.000 HD
BRANCH  27  29
ATOM     29  N   UNL     1       5.242  15.497  19.602  0.00  0.00    +0.000 NA
ATOM     30  C   UNL     1       6.042  15.209  18.405  0.00  0.00    +0.000 C 
ATOM     31  C   UNL     1       7.437  15.841  18.516  0.00  0.00    +0.000 C 
ATOM     32  C   UNL     1       7.356  17.341  18.781  0.00  0.00    +0.000 C 
ATOM     33  C   UNL     1       6.446  17.624  19.972  0.00  0.00    +0.000 C 
ATOM     34  C   UNL     1       5.082  16.939  19.822  0.00  0.00    +0.000 C 
ENDBRANCH  27  29
ENDBRANCH   3  25
TORSDOF 4
ENDMDL
MODEL 8
REMARK VINA RESULT:      -6.9      0.943      1.341
REMARK  Name = 
REMARK  5 active torsions:
REMARK  status: ('A' for Active; 'I' for Inactive)
REMARK    1  A    between atoms: C_1  and  C_2
REMARK    2  A    between atoms: C_3  and  C_4
REMARK    3  A    between atoms: N_6  and  N_7
REMARK    4  A    between atoms: N_14  and  C_15
REMARK    5  A    between atoms: C_26  and  C_27
REMARK                            x       y       z     vdW  Elec       q    Type
REMARK                         _______ _______ _______ _____ _____    ______ ____
ROOT
ATOM      1  C   UNL     1       2.188  12.112  20.374  0.00  0.00    +0.000 C 
ATOM      2  C   UNL     1       0.853  11.572  19.990  0.00  0.00    +0.000 A 
ATOM      3  C   UNL     1       0.497  10.193  19.851  0.00  0.00    +0.000 A 
ATOM      4  N   UNL     1      -0.800  10.078  19.529  0.00  0.00    +0.000 NA
ATOM      5  N   UNL     1      -1.276  11.342  19.384  0.00  0.00    +0.000 N 
ATOM      6  C   UNL     1      -0.315  12.304  19.735  0.00  0.00    +0.000 A 
ENDROOT
BRANCH   5   7
ATOM      7  C   UNL     1      -2.587  11.520  18.831  0.00  0.00    +0.000 A 
ATOM      8  C   UNL     1      -3.545  12.204  19.593  0.00  0.00    +0.000 A 
ATOM      9  C   UNL     1      -4.798  12.389  19.055  0.00  0.00    +0.000 A 
ATOM     10  N   UNL     1      -5.140  11.996  17.815  0.00  0.00    +0.000 NA
ATOM     11  C   UNL     1      -4.225  11.372  17.061  0.00  0.00    +0.000 A 
ATOM     12  C   UNL     1      -4.610  11.016  15.778  0.00  0.00    +0.000 A 
ATOM     13  C   UNL     1      -3.753  10.329  14.925  0.00  0.00    +0.000 A 
ATOM     14 CL   UNL     1      -4.256   9.941  13.327  0.00  0.00    +0.000 Cl
ATOM     15  C   UNL     1      -2.496   9.949  15.363  0.00  0.00    +0.000 A 
ATOM     16  C   UNL     1      -2.091  10.299  16.650  0.00  0.00    +0.000 A 
ATOM     17  C   UNL     1      -2.921  11.063  17.519  0.00  0.00    +0.000 A 
ENDBRANCH   5   7
BRANCH   6  18
ATOM     18  C   UNL     1      -0.558  13.769  19.858  0.00  0.00    +0.000 A 
ATOM     19  C   UNL     1      -1.134  14.332  21.015  0.00  0.00    +0.000 A 
ATOM     20  C   UNL     1      -1.430  15.699  21.091  0.00  0.00    +0.000 A 
ATOM     21  C   UNL     1      -1.083  16.535  20.041  0.00  0.00    +0.000 A 
ATOM     22  F   UNL     1      -1.350  17.844  20.119  0.00  0.00    +0.000 F 
ATOM     23  C   UNL     1      -0.464  16.026  18.911  0.00  0.00    +0.000 A 
ATOM     24  C   UNL     1      -0.223  14.650  18.813  0.00  0.00    +0.000 A 
ENDBRANCH   6  18
BRANCH   3  25
ATOM     25  C   UNL     1       1.336   8.972  20.031  0.00  0.00    +0.000 C 
ATOM     26  O   UNL     1       1.532   8.448  21.127  0.00  0.00    +0.000 OA
ATOM     27  N   UNL     1       1.868   8.499  18.829  0.00  0.00    +0.000 N 
ATOM     28  H   UNL     1       1.633   9.049  18.000  0.00  0.00    +0.000 HD
BRANCH  27  29
ATOM     29  N   UNL     1       2.696   7.359  18.662  0.00  0.00    +0.000 NA
ATOM     30  C   UNL     1       1.953   6.095  18.576  0.00  0.00    +0.000 C 
ATOM     31  C   UNL     1       2.908   4.896  18.636  0.00  0.00    +0.000 C 
ATOM     32  C   UNL     1       3.986   4.979  17.559  0.00  0.00    +0.000 C 
ATOM     33  C   UNL     1       4.683   6.335  17.606  0.00  0.00    +0.000 C 
ATOM     34  C   UNL     1       3.678   7.493  17.580  0.00  0.00    +0.000 C 
ENDBRANCH  27  29
ENDBRANCH   3  25
TORSDOF 4
ENDMDL
MODEL 9
REMARK VINA RESULT:      -6.8      2.179      2.770
REMARK  Name = 
REMARK  5 active torsions:
REMARK  status: ('A' for Active; 'I' for Inactive)
REMARK    1  A    between atoms: C_1  and  C_2
REMARK    2  A    between atoms: C_3  and  C_4
REMARK    3  A    between atoms: N_6  and  N_7
REMARK    4  A    between atoms: N_14  and  C_15
REMARK    5  A    between atoms: C_26  and  C_27
REMARK                            x       y       z     vdW  Elec       q    Type
REMARK                         _______ _______ _______ _____ _____    ______ ____
ROOT
ATOM      1  C   UNL     1       1.824  12.626  20.290  0.00  0.00    +0.000 C 
ATOM      2  C   UNL     1       0.575  12.256  21.012  0.00  0.00    +0.000 A 
ATOM      3  C   UNL     1       0.271  10.987  21.599  0.00  0.00    +0.000 A 
ATOM      4  N   UNL     1      -0.929  11.027  22.198  0.00  0.00    +0.000 NA
ATOM      5  N   UNL     1      -1.442  12.261  21.954  0.00  0.00    +0.000 N 
ATOM      6  C   UNL     1      -0.519  13.087  21.293  0.00  0.00    +0.000 A 
ENDROOT
BRANCH   5   7
ATOM      7  C   UNL     1      -2.811  12.511  22.297  0.00  0.00    +0.000 A 
ATOM      8  C   UNL     1      -3.125  12.774  23.637  0.00  0.00    +0.000 A 
ATOM      9  C   UNL     1      -4.437  13.032  23.964  0.00  0.00    +0.000 A 
ATOM     10  N   UNL     1      -5.430  13.098  23.057  0.00  0.00    +0.000 NA
ATOM     11  C   UNL     1      -5.139  12.883  21.767  0.00  0.00    +0.000 A 
ATOM     12  C   UNL     1      -6.185  12.995  20.864  0.00  0.00    +0.000 A 
ATOM     13  C   UNL     1      -6.003  12.754  19.506  0.00  0.00    +0.000 A 
ATOM     14 CL   UNL     1      -7.318  12.943  18.414  0.00  0.00    +0.000 Cl
ATOM     15  C   UNL     1      -4.767  12.354  19.032  0.00  0.00    +0.000 A 
ATOM     16  C   UNL     1      -3.703  12.237  19.926  0.00  0.00    +0.000 A 
ATOM     17  C   UNL     1      -3.842  12.546  21.308  0.00  0.00    +0.000 A 
ENDBRANCH   5   7
BRANCH   6  18
ATOM     18  C   UNL     1      -0.691  14.543  21.030  0.00  0.00    +0.000 A 
ATOM     19  C   UNL     1      -0.968  15.037  19.739  0.00  0.00    +0.000 A 
ATOM     20  C   UNL     1      -1.051  16.413  19.487  0.00  0.00    +0.000 A 
ATOM     21  C   UNL     1      -0.935  17.311  20.537  0.00  0.00    +0.000 A 
ATOM     22  F   UNL     1      -1.031  18.625  20.300  0.00  0.00    +0.000 F 
ATOM     23  C   UNL     1      -0.719  16.859  21.828  0.00  0.00    +0.000 A 
ATOM     24  C   UNL     1      -0.577  15.486  22.068  0.00  0.00    +0.000 A 
ENDBRANCH   6  18
BRANCH   3  25
ATOM     25  C   UNL     1       1.084   9.736  21.632  0.00  0.00    +0.000 C 
ATOM     26  O   UNL     1       1.616   9.309  22.656  0.00  0.00    +0.000 OA
ATOM     27  N   UNL     1       1.174   9.115  20.383  0.00  0.00    +0.000 N 
ATOM     28  H   UNL     1       0.694   9.597  19.620  0.00  0.00    +0.000 HD
BRANCH  27  29
ATOM     29  N   UNL     1       1.864   7.912  20.085  0.00  0.00    +0.000 NA
ATOM     30  C   UNL     1       1.219   6.710  20.627  0.00  0.00    +0.000 C 
ATOM     31  C   UNL     1       2.131   5.485  20.475  0.00  0.00    +0.000 C 
ATOM     32  C   UNL     1       2.560   5.279  19.025  0.00  0.00    +0.000 C 
ATOM     33  C   UNL     1       3.144   6.567  18.453  0.00  0.00    +0.000 C 
ATOM     34  C   UNL     1       2.204   7.761  18.666  0.00  0.00    +0.000 C 
ENDBRANCH  27  29
ENDBRANCH   3  25
TORSDOF 4
ENDMDL
