MODEL 1
REMARK VINA RESULT:      -8.7      0.000      0.000
REMARK  Name = 
REMARK  6 active torsions:
REMARK  status: ('A' for Active; 'I' for Inactive)
REMARK    1  A    between atoms: C_1  and  C_2
REMARK    2  A    between atoms: C_2  and  N_3
REMARK    3  A    between atoms: C_12  and  C_13
REMARK    4  A    between atoms: C_17  and  C_18
REMARK    5  A    between atoms: C_18  and  O_20
REMARK    6  A    between atoms: N_24  and  C_25
REMARK                            x       y       z     vdW  Elec       q    Type
REMARK                         _______ _______ _______ _____ _____    ______ ____
ROOT
ATOM      1  N   UNL     1      -1.977  11.504  19.367  0.00  0.00    +0.000 N 
ATOM      2  C   UNL     1      -2.750  11.319  18.239  0.00  0.00    +0.000 A 
ATOM      3  C   UNL     1      -3.986  11.876  17.870  0.00  0.00    +0.000 A 
ATOM      4  C   UNL     1      -4.516  11.538  16.623  0.00  0.00    +0.000 A 
ATOM      5  C   UNL     1      -3.840  10.669  15.773  0.00  0.00    +0.000 A 
ATOM      6  C   UNL     1      -2.621  10.101  16.159  0.00  0.00    +0.000 A 
ATOM      7  C   UNL     1      -2.062  10.424  17.414  0.00  0.00    +0.000 A 
ATOM      8  C   UNL     1      -0.867  10.030  18.102  0.00  0.00    +0.000 A 
ATOM      9  C   UNL     1       0.201   9.147  17.802  0.00  0.00    +0.000 A 
ATOM     10  C   UNL     1       1.269   8.978  18.705  0.00  0.00    +0.000 A 
ATOM     11  C   UNL     1       1.279   9.745  19.873  0.00  0.00    +0.000 A 
ATOM     12  C   UNL     1       0.223  10.595  20.214  0.00  0.00    +0.000 A 
ATOM     13  C   UNL     1      -0.839  10.725  19.313  0.00  0.00    +0.000 A 
ENDROOT
BRANCH  10  14
ATOM     14  C   UNL     1       2.354   8.025  18.384  0.00  0.00    +0.000 A 
ATOM     15  N   UNL     1       3.146   8.120  17.327  0.00  0.00    +0.000 NA
ATOM     16  C   UNL     1       4.012   7.059  17.383  0.00  0.00    +0.000 A 
ATOM     17  C   UNL     1       5.046   6.707  16.500  0.00  0.00    +0.000 A 
ATOM     18  C   UNL     1       5.808   5.563  16.785  0.00  0.00    +0.000 A 
ATOM     19  C   UNL     1       5.518   4.770  17.903  0.00  0.00    +0.000 A 
ATOM     20  C   UNL     1       4.482   5.105  18.780  0.00  0.00    +0.000 A 
ATOM     21  C   UNL     1       3.749   6.264  18.488  0.00  0.00    +0.000 A 
ATOM     22  N   UNL     1       2.674   6.876  19.098  0.00  0.00    +0.000 N 
ATOM     23  C   UNL     1       1.973   6.337  20.241  0.00  0.00    +0.000 C 
BRANCH  18  24
ATOM     24  C   UNL     1       6.918   5.119  15.902  0.00  0.00    +0.000 C 
ATOM     25  O   UNL     1       7.872   4.479  16.313  0.00  0.00    +0.000 OA
BRANCH  24  26
ATOM     26  O   UNL     1       6.808   5.534  14.624  0.00  0.00    +0.000 OA
ATOM     27  H   UNL     1       7.063   4.880  13.950  0.00  0.00    +0.000 HD
ENDBRANCH  24  26
ENDBRANCH  18  24
ENDBRANCH  10  14
BRANCH   1  29
ATOM     28  C   UNL     1      -1.633  13.814  20.194  0.00  0.00    +0.000 C 
ATOM     29  C   UNL     1      -2.275  12.458  20.426  0.00  0.00    +0.000 C 
ENDBRANCH   1  29
TORSDOF 4
ENDMDL
MODEL 2
REMARK VINA RESULT:      -8.5      4.781      9.240
REMARK  Name = 
REMARK  6 active torsions:
REMARK  status: ('A' for Active; 'I' for Inactive)
REMARK    1  A    between atoms: C_1  and  C_2
REMARK    2  A    between atoms: C_2  and  N_3
REMARK    3  A    between atoms: C_12  and  C_13
REMARK    4  A    between atoms: C_17  and  C_18
REMARK    5  A    between atoms: C_18  and  O_20
REMARK    6  A    between atoms: N_24  and  C_25
REMARK                            x       y       z     vdW  Elec       q    Type
REMARK                         _______ _______ _______ _____ _____    ______ ____
ROOT
ATOM      1  N   UNL     1       4.123   4.018  18.723  0.00  0.00    +0.000 N 
ATOM      2  C   UNL     1       4.735   4.515  17.590  0.00  0.00    +0.000 A 
ATOM      3  C   UNL     1       5.644   3.920  16.699  0.00  0.00    +0.000 A 
ATOM      4  C   UNL     1       6.063   4.660  15.591  0.00  0.00    +0.000 A 
ATOM      5  C   UNL     1       5.596   5.953  15.380  0.00  0.00    +0.000 A 
ATOM      6  C   UNL     1       4.709   6.546  16.286  0.00  0.00    +0.000 A 
ATOM      7  C   UNL     1       4.270   5.822  17.414  0.00  0.00    +0.000 A 
ATOM      8  C   UNL     1       3.393   6.122  18.509  0.00  0.00    +0.000 A 
ATOM      9  C   UNL     1       2.648   7.265  18.895  0.00  0.00    +0.000 A 
ATOM     10  C   UNL     1       1.846   7.243  20.053  0.00  0.00    +0.000 A 
ATOM     11  C   UNL     1       1.757   6.051  20.776  0.00  0.00    +0.000 A 
ATOM     12  C   UNL     1       2.507   4.920  20.443  0.00  0.00    +0.000 A 
ATOM     13  C   UNL     1       3.317   4.976  19.303  0.00  0.00    +0.000 A 
ENDROOT
BRANCH  10  14
ATOM     14  C   UNL     1       1.107   8.461  20.454  0.00  0.00    +0.000 A 
ATOM     15  N   UNL     1       0.492   8.613  21.616  0.00  0.00    +0.000 NA
ATOM     16  C   UNL     1      -0.070   9.863  21.606  0.00  0.00    +0.000 A 
ATOM     17  C   UNL     1      -0.827  10.507  22.599  0.00  0.00    +0.000 A 
ATOM     18  C   UNL     1      -1.288  11.809  22.350  0.00  0.00    +0.000 A 
ATOM     19  C   UNL     1      -1.033  12.435  21.123  0.00  0.00    +0.000 A 
ATOM     20  C   UNL     1      -0.293  11.798  20.123  0.00  0.00    +0.000 A 
ATOM     21  C   UNL     1       0.178  10.507  20.403  0.00  0.00    +0.000 A 
ATOM     22  N   UNL     1       0.902   9.591  19.671  0.00  0.00    +0.000 N 
ATOM     23  C   UNL     1       1.295   9.780  18.294  0.00  0.00    +0.000 C 
BRANCH  18  24
ATOM     24  C   UNL     1      -2.097  12.560  23.345  0.00  0.00    +0.000 C 
ATOM     25  O   UNL     1      -1.744  13.631  23.809  0.00  0.00    +0.000 OA
BRANCH  24  26
ATOM     26  O   UNL     1      -3.223  11.926  23.734  0.00  0.00    +0.000 OA
ATOM     27  H   UNL     1      -3.964  11.969  23.104  0.00  0.00    +0.000 HD
ENDBRANCH  24  26
ENDBRANCH  18  24
ENDBRANCH  10  14
BRANCH   1  29
ATOM     28  C   UNL     1       3.238   1.712  18.535  0.00  0.00    +0.000 C 
ATOM     29  C   UNL     1       4.241   2.645  19.190  0.00  0.00    +0.000 C 
ENDBRANCH   1  29
TORSDOF 4
ENDMDL
MODEL 3
REMARK VINA RESULT:      -8.3      2.165      2.690
REMARK  Name = 
REMARK  6 active torsions:
REMARK  status: ('A' for Active; 'I' for Inactive)
REMARK    1  A    between atoms: C_1  and  C_2
REMARK    2  A    between atoms: C_2  and  N_3
REMARK    3  A    between atoms: C_12  and  C_13
REMARK    4  A    between atoms: C_17  and  C_18
REMARK    5  A    between atoms: C_18  and  O_20
REMARK    6  A    between atoms: N_24  and  C_25
REMARK                            x       y       z     vdW  Elec       q    Type
REMARK                         _______ _______ _______ _____ _____    ______ ____
ROOT
ATOM      1  N   UNL     1      -0.355  10.371  21.581  0.00  0.00    +0.000 N 
ATOM      2  C   UNL     1      -0.601  11.388  20.680  0.00  0.00    +0.000 A 
ATOM      3  C   UNL     1      -1.365  12.561  20.803  0.00  0.00    +0.000 A 
ATOM      4  C   UNL     1      -1.392  13.446  19.724  0.00  0.00    +0.000 A 
ATOM      5  C   UNL     1      -0.686  13.171  18.558  0.00  0.00    +0.000 A 
ATOM      6  C   UNL     1       0.053  11.988  18.436  0.00  0.00    +0.000 A 
ATOM      7  C   UNL     1       0.098  11.075  19.510  0.00  0.00    +0.000 A 
ATOM      8  C   UNL     1       0.737   9.806  19.712  0.00  0.00    +0.000 A 
ATOM      9  C   UNL     1       1.548   8.968  18.906  0.00  0.00    +0.000 A 
ATOM     10  C   UNL     1       2.047   7.751  19.408  0.00  0.00    +0.000 A 
ATOM     11  C   UNL     1       1.773   7.421  20.738  0.00  0.00    +0.000 A 
ATOM     12  C   UNL     1       0.947   8.206  21.546  0.00  0.00    +0.000 A 
ATOM     13  C   UNL     1       0.441   9.397  21.014  0.00  0.00    +0.000 A 
ENDROOT
BRANCH  10  14
ATOM     14  C   UNL     1       2.862   6.878  18.535  0.00  0.00    +0.000 A 
ATOM     15  N   UNL     1       3.769   7.317  17.676  0.00  0.00    +0.000 NA
ATOM     16  C   UNL     1       4.301   6.212  17.062  0.00  0.00    +0.000 A 
ATOM     17  C   UNL     1       5.297   6.136  16.075  0.00  0.00    +0.000 A 
ATOM     18  C   UNL     1       5.681   4.869  15.609  0.00  0.00    +0.000 A 
ATOM     19  C   UNL     1       5.056   3.710  16.089  0.00  0.00    +0.000 A 
ATOM     20  C   UNL     1       4.054   3.777  17.062  0.00  0.00    +0.000 A 
ATOM     21  C   UNL     1       3.703   5.051  17.530  0.00  0.00    +0.000 A 
ATOM     22  N   UNL     1       2.771   5.495  18.444  0.00  0.00    +0.000 N 
ATOM     23  C   UNL     1       1.821   4.638  19.115  0.00  0.00    +0.000 C 
BRANCH  18  24
ATOM     24  C   UNL     1       6.724   4.698  14.564  0.00  0.00    +0.000 C 
ATOM     25  O   UNL     1       7.683   5.445  14.462  0.00  0.00    +0.000 OA
BRANCH  24  26
ATOM     26  O   UNL     1       6.486   3.685  13.706  0.00  0.00    +0.000 OA
ATOM     27  H   UNL     1       5.690   3.785  13.155  0.00  0.00    +0.000 HD
ENDBRANCH  24  26
ENDBRANCH  18  24
ENDBRANCH  10  14
BRANCH   1  29
ATOM     28  C   UNL     1      -1.852  11.427  23.248  0.00  0.00    +0.000 C 
ATOM     29  C   UNL     1      -0.798  10.371  22.968  0.00  0.00    +0.000 C 
ENDBRANCH   1  29
TORSDOF 4
ENDMDL
MODEL 4
REMARK VINA RESULT:      -8.2      4.580      9.355
REMARK  Name = 
REMARK  6 active torsions:
REMARK  status: ('A' for Active; 'I' for Inactive)
REMARK    1  A    between atoms: C_1  and  C_2
REMARK    2  A    between atoms: C_2  and  N_3
REMARK    3  A    between atoms: C_12  and  C_13
REMARK    4  A    between atoms: C_17  and  C_18
REMARK    5  A    between atoms: C_18  and  O_20
REMARK    6  A    between atoms: N_24  and  C_25
REMARK                            x       y       z     vdW  Elec       q    Type
REMARK                         _______ _______ _______ _____ _____    ______ ____
ROOT
ATOM      1  N   UNL     1       3.593   5.575  18.159  0.00  0.00    +0.000 N 
ATOM      2  C   UNL     1       3.363   4.605  19.114  0.00  0.00    +0.000 A 
ATOM      3  C   UNL     1       3.819   3.280  19.207  0.00  0.00    +0.000 A 
ATOM      4  C   UNL     1       3.458   2.536  20.332  0.00  0.00    +0.000 A 
ATOM      5  C   UNL     1       2.663   3.090  21.328  0.00  0.00    +0.000 A 
ATOM      6  C   UNL     1       2.193   4.404  21.215  0.00  0.00    +0.000 A 
ATOM      7  C   UNL     1       2.541   5.179  20.089  0.00  0.00    +0.000 A 
ATOM      8  C   UNL     1       2.238   6.517  19.669  0.00  0.00    +0.000 A 
ATOM      9  C   UNL     1       1.454   7.568  20.208  0.00  0.00    +0.000 A 
ATOM     10  C   UNL     1       1.361   8.808  19.545  0.00  0.00    +0.000 A 
ATOM     11  C   UNL     1       2.107   8.994  18.379  0.00  0.00    +0.000 A 
ATOM     12  C   UNL     1       2.859   7.967  17.803  0.00  0.00    +0.000 A 
ATOM     13  C   UNL     1       2.913   6.736  18.467  0.00  0.00    +0.000 A 
ENDROOT
BRANCH  10  14
ATOM     14  C   UNL     1       0.507   9.877  20.109  0.00  0.00    +0.000 A 
ATOM     15  N   UNL     1       0.591  10.323  21.353  0.00  0.00    +0.000 NA
ATOM     16  C   UNL     1      -0.358  11.302  21.488  0.00  0.00    +0.000 A 
ATOM     17  C   UNL     1      -0.674  12.087  22.610  0.00  0.00    +0.000 A 
ATOM     18  C   UNL     1      -1.695  13.042  22.491  0.00  0.00    +0.000 A 
ATOM     19  C   UNL     1      -2.409  13.182  21.293  0.00  0.00    +0.000 A 
ATOM     20  C   UNL     1      -2.111  12.396  20.176  0.00  0.00    +0.000 A 
ATOM     21  C   UNL     1      -1.072  11.465  20.310  0.00  0.00    +0.000 A 
ATOM     22  N   UNL     1      -0.529  10.531  19.453  0.00  0.00    +0.000 N 
ATOM     23  C   UNL     1      -1.033  10.254  18.128  0.00  0.00    +0.000 C 
BRANCH  18  24
ATOM     24  C   UNL     1      -2.094  13.911  23.628  0.00  0.00    +0.000 C 
ATOM     25  O   UNL     1      -3.260  14.118  23.924  0.00  0.00    +0.000 OA
BRANCH  24  26
ATOM     26  O   UNL     1      -1.060  14.497  24.266  0.00  0.00    +0.000 OA
ATOM     27  H   UNL     1      -0.414  14.944  23.689  0.00  0.00    +0.000 HD
ENDBRANCH  24  26
ENDBRANCH  18  24
ENDBRANCH  10  14
BRANCH   1  29
ATOM     28  C   UNL     1       5.914   5.881  17.348  0.00  0.00    +0.000 C 
ATOM     29  C   UNL     1       4.501   5.425  17.031  0.00  0.00    +0.000 C 
ENDBRANCH   1  29
TORSDOF 4
ENDMDL
MODEL 5
REMARK VINA RESULT:      -7.9      4.301      8.816
REMARK  Name = 
REMARK  6 active torsions:
REMARK  status: ('A' for Active; 'I' for Inactive)
REMARK    1  A    between atoms: C_1  and  C_2
REMARK    2  A    between atoms: C_2  and  N_3
REMARK    3  A    between atoms: C_12  and  C_13
REMARK    4  A    between atoms: C_17  and  C_18
REMARK    5  A    between atoms: C_18  and  O_20
REMARK    6  A    between atoms: N_24  and  C_25
REMARK                            x       y       z     vdW  Elec       q    Type
REMARK                         _______ _______ _______ _____ _____    ______ ____
ROOT
ATOM      1  N   UNL     1       4.097   4.095  18.344  0.00  0.00    +0.000 N 
ATOM      2  C   UNL     1       4.814   4.378  17.199  0.00  0.00    +0.000 A 
ATOM      3  C   UNL     1       5.683   3.579  16.436  0.00  0.00    +0.000 A 
ATOM      4  C   UNL     1       6.236   4.126  15.277  0.00  0.00    +0.000 A 
ATOM      5  C   UNL     1       5.940   5.429  14.893  0.00  0.00    +0.000 A 
ATOM      6  C   UNL     1       5.092   6.226  15.671  0.00  0.00    +0.000 A 
ATOM      7  C   UNL     1       4.519   5.699  16.848  0.00  0.00    +0.000 A 
ATOM      8  C   UNL     1       3.637   6.227  17.848  0.00  0.00    +0.000 A 
ATOM      9  C   UNL     1       3.020   7.487  18.057  0.00  0.00    +0.000 A 
ATOM     10  C   UNL     1       2.171   7.698  19.161  0.00  0.00    +0.000 A 
ATOM     11  C   UNL     1       1.907   6.620  20.009  0.00  0.00    +0.000 A 
ATOM     12  C   UNL     1       2.528   5.377  19.852  0.00  0.00    +0.000 A 
ATOM     13  C   UNL     1       3.388   5.202  18.763  0.00  0.00    +0.000 A 
ENDROOT
BRANCH  10  14
ATOM     14  C   UNL     1       1.568   9.031  19.376  0.00  0.00    +0.000 A 
ATOM     15  N   UNL     1       1.815  10.093  18.625  0.00  0.00    +0.000 NA
ATOM     16  C   UNL     1       1.073  11.125  19.141  0.00  0.00    +0.000 A 
ATOM     17  C   UNL     1       0.980  12.457  18.708  0.00  0.00    +0.000 A 
ATOM     18  C   UNL     1       0.132  13.330  19.407  0.00  0.00    +0.000 A 
ATOM     19  C   UNL     1      -0.574  12.891  20.534  0.00  0.00    +0.000 A 
ATOM     20  C   UNL     1      -0.478  11.570  20.981  0.00  0.00    +0.000 A 
ATOM     21  C   UNL     1       0.357  10.710  20.254  0.00  0.00    +0.000 A 
ATOM     22  N   UNL     1       0.706   9.385  20.407  0.00  0.00    +0.000 N 
ATOM     23  C   UNL     1       0.286   8.557  21.514  0.00  0.00    +0.000 C 
BRANCH  18  24
ATOM     24  C   UNL     1      -0.023  14.756  19.017  0.00  0.00    +0.000 C 
ATOM     25  O   UNL     1       0.906  15.432  18.607  0.00  0.00    +0.000 OA
BRANCH  24  26
ATOM     26  O   UNL     1      -1.262  15.251  19.212  0.00  0.00    +0.000 OA
ATOM     27  H   UNL     1      -1.606  15.165  20.119  0.00  0.00    +0.000 HD
ENDBRANCH  24  26
ENDBRANCH  18  24
ENDBRANCH  10  14
BRANCH   1  29
ATOM     28  C   UNL     1       2.943   1.903  18.376  0.00  0.00    +0.000 C 
ATOM     29  C   UNL     1       4.027   2.783  18.972  0.00  0.00    +0.000 C 
ENDBRANCH   1  29
TORSDOF 4
ENDMDL
MODEL 6
REMARK VINA RESULT:      -7.9      4.651      9.273
REMARK  Name = 
REMARK  6 active torsions:
REMARK  status: ('A' for Active; 'I' for Inactive)
REMARK    1  A    between atoms: C_1  and  C_2
REMARK    2  A    between atoms: C_2  and  N_3
REMARK    3  A    between atoms: C_12  and  C_13
REMARK    4  A    between atoms: C_17  and  C_18
REMARK    5  A    between atoms: C_18  and  O_20
REMARK    6  A    between atoms: N_24  and  C_25
REMARK                            x       y       z     vdW  Elec       q    Type
REMARK                         _______ _______ _______ _____ _____    ______ ____
ROOT
ATOM      1  N   UNL     1       3.777   5.538  18.081  0.00  0.00    +0.000 N 
ATOM      2  C   UNL     1       3.567   4.514  18.982  0.00  0.00    +0.000 A 
ATOM      3  C   UNL     1       4.073   3.204  19.020  0.00  0.00    +0.000 A 
ATOM      4  C   UNL     1       3.720   2.392  20.099  0.00  0.00    +0.000 A 
ATOM      5  C   UNL     1       2.885   2.866  21.105  0.00  0.00    +0.000 A 
ATOM      6  C   UNL     1       2.365   4.165  21.046  0.00  0.00    +0.000 A 
ATOM      7  C   UNL     1       2.705   5.008  19.967  0.00  0.00    +0.000 A 
ATOM      8  C   UNL     1       2.358   6.352  19.606  0.00  0.00    +0.000 A 
ATOM      9  C   UNL     1       1.522   7.344  20.178  0.00  0.00    +0.000 A 
ATOM     10  C   UNL     1       1.393   8.610  19.575  0.00  0.00    +0.000 A 
ATOM     11  C   UNL     1       2.153   8.883  18.435  0.00  0.00    +0.000 A 
ATOM     12  C   UNL     1       2.957   7.914  17.826  0.00  0.00    +0.000 A 
ATOM     13  C   UNL     1       3.046   6.656  18.430  0.00  0.00    +0.000 A 
ENDROOT
BRANCH  10  14
ATOM     14  C   UNL     1       0.487   9.617  20.172  0.00  0.00    +0.000 A 
ATOM     15  N   UNL     1      -0.263  10.455  19.474  0.00  0.00    +0.000 NA
ATOM     16  C   UNL     1      -0.951  11.219  20.380  0.00  0.00    +0.000 A 
ATOM     17  C   UNL     1      -1.877  12.251  20.153  0.00  0.00    +0.000 A 
ATOM     18  C   UNL     1      -2.461  12.882  21.263  0.00  0.00    +0.000 A 
ATOM     19  C   UNL     1      -2.098  12.518  22.566  0.00  0.00    +0.000 A 
ATOM     20  C   UNL     1      -1.167  11.501  22.802  0.00  0.00    +0.000 A 
ATOM     21  C   UNL     1      -0.614  10.869  21.679  0.00  0.00    +0.000 A 
ATOM     22  N   UNL     1       0.323   9.870  21.528  0.00  0.00    +0.000 N 
ATOM     23  C   UNL     1       1.050   9.266  22.622  0.00  0.00    +0.000 C 
BRANCH  18  24
ATOM     24  C   UNL     1      -3.447  13.983  21.112  0.00  0.00    +0.000 C 
ATOM     25  O   UNL     1      -4.599  13.896  21.505  0.00  0.00    +0.000 OA
BRANCH  24  26
ATOM     26  O   UNL     1      -2.976  15.060  20.450  0.00  0.00    +0.000 OA
ATOM     27  H   UNL     1      -2.608  15.765  21.011  0.00  0.00    +0.000 HD
ENDBRANCH  24  26
ENDBRANCH  18  24
ENDBRANCH  10  14
BRANCH   1  29
ATOM     28  C   UNL     1       6.106   5.949  17.341  0.00  0.00    +0.000 C 
ATOM     29  C   UNL     1       4.712   5.479  16.966  0.00  0.00    +0.000 C 
ENDBRANCH   1  29
TORSDOF 4
ENDMDL
MODEL 7
REMARK VINA RESULT:      -7.9      0.890      1.055
REMARK  Name = 
REMARK  6 active torsions:
REMARK  status: ('A' for Active; 'I' for Inactive)
REMARK    1  A    between atoms: C_1  and  C_2
REMARK    2  A    between atoms: C_2  and  N_3
REMARK    3  A    between atoms: C_12  and  C_13
REMARK    4  A    between atoms: C_17  and  C_18
REMARK    5  A    between atoms: C_18  and  O_20
REMARK    6  A    between atoms: N_24  and  C_25
REMARK                            x       y       z     vdW  Elec       q    Type
REMARK                         _______ _______ _______ _____ _____    ______ ____
ROOT
ATOM      1  N   UNL     1      -1.404  11.554  20.215  0.00  0.00    +0.000 N 
ATOM      2  C   UNL     1      -2.350  11.456  19.216  0.00  0.00    +0.000 A 
ATOM      3  C   UNL     1      -3.585  12.106  19.051  0.00  0.00    +0.000 A 
ATOM      4  C   UNL     1      -4.320  11.842  17.894  0.00  0.00    +0.000 A 
ATOM      5  C   UNL     1      -3.845  10.955  16.934  0.00  0.00    +0.000 A 
ATOM      6  C   UNL     1      -2.625  10.294  17.118  0.00  0.00    +0.000 A 
ATOM      7  C   UNL     1      -1.861  10.541  18.278  0.00  0.00    +0.000 A 
ATOM      8  C   UNL     1      -0.607  10.046  18.768  0.00  0.00    +0.000 A 
ATOM      9  C   UNL     1       0.338   9.103  18.291  0.00  0.00    +0.000 A 
ATOM     10  C   UNL     1       1.515   8.835  19.016  0.00  0.00    +0.000 A 
ATOM     11  C   UNL     1       1.756   9.564  20.183  0.00  0.00    +0.000 A 
ATOM     12  C   UNL     1       0.828  10.473  20.698  0.00  0.00    +0.000 A 
ATOM     13  C   UNL     1      -0.346  10.701  19.973  0.00  0.00    +0.000 A 
ENDROOT
BRANCH  10  14
ATOM     14  C   UNL     1       2.468   7.820  18.515  0.00  0.00    +0.000 A 
ATOM     15  N   UNL     1       3.266   7.994  17.473  0.00  0.00    +0.000 NA
ATOM     16  C   UNL     1       3.988   6.837  17.328  0.00  0.00    +0.000 A 
ATOM     17  C   UNL     1       4.968   6.513  16.376  0.00  0.00    +0.000 A 
ATOM     18  C   UNL     1       5.576   5.250  16.447  0.00  0.00    +0.000 A 
ATOM     19  C   UNL     1       5.185   4.320  17.419  0.00  0.00    +0.000 A 
ATOM     20  C   UNL     1       4.200   4.629  18.362  0.00  0.00    +0.000 A 
ATOM     21  C   UNL     1       3.623   5.905  18.288  0.00  0.00    +0.000 A 
ATOM     22  N   UNL     1       2.636   6.535  19.015  0.00  0.00    +0.000 N 
ATOM     23  C   UNL     1       1.871   5.902  20.065  0.00  0.00    +0.000 C 
BRANCH  18  24
ATOM     24  C   UNL     1       6.620   4.825  15.478  0.00  0.00    +0.000 C 
ATOM     25  O   UNL     1       7.588   5.516  15.206  0.00  0.00    +0.000 OA
BRANCH  24  26
ATOM     26  O   UNL     1       6.373   3.640  14.883  0.00  0.00    +0.000 OA
ATOM     27  H   UNL     1       6.327   3.664  13.911  0.00  0.00    +0.000 HD
ENDBRANCH  24  26
ENDBRANCH  18  24
ENDBRANCH  10  14
BRANCH   1  29
ATOM     28  C   UNL     1      -1.989  11.859  22.603  0.00  0.00    +0.000 C 
ATOM     29  C   UNL     1      -1.469  12.494  21.326  0.00  0.00    +0.000 C 
ENDBRANCH   1  29
TORSDOF 4
ENDMDL
MODEL 8
REMARK VINA RESULT:      -7.8      4.564      9.176
REMARK  Name = 
REMARK  6 active torsions:
REMARK  status: ('A' for Active; 'I' for Inactive)
REMARK    1  A    between atoms: C_1  and  C_2
REMARK    2  A    between atoms: C_2  and  N_3
REMARK    3  A    between atoms: C_12  and  C_13
REMARK    4  A    between atoms: C_17  and  C_18
REMARK    5  A    between atoms: C_18  and  O_20
REMARK    6  A    between atoms: N_24  and  C_25
REMARK                            x       y       z     vdW  Elec       q    Type
REMARK                         _______ _______ _______ _____ _____    ______ ____
ROOT
ATOM      1  N   UNL     1       3.634   4.389  19.090  0.00  0.00    +0.000 N 
ATOM      2  C   UNL     1       4.334   4.779  17.966  0.00  0.00    +0.000 A 
ATOM      3  C   UNL     1       5.244   4.075  17.159  0.00  0.00    +0.000 A 
ATOM      4  C   UNL     1       5.767   4.721  16.037  0.00  0.00    +0.000 A 
ATOM      5  C   UNL     1       5.402   6.028  15.732  0.00  0.00    +0.000 A 
ATOM      6  C   UNL     1       4.514   6.729  16.555  0.00  0.00    +0.000 A 
ATOM      7  C   UNL     1       3.970   6.102  17.696  0.00  0.00    +0.000 A 
ATOM      8  C   UNL     1       3.061   6.520  18.724  0.00  0.00    +0.000 A 
ATOM      9  C   UNL     1       2.378   7.730  19.007  0.00  0.00    +0.000 A 
ATOM     10  C   UNL     1       1.520   7.828  20.119  0.00  0.00    +0.000 A 
ATOM     11  C   UNL     1       1.313   6.688  20.900  0.00  0.00    +0.000 A 
ATOM     12  C   UNL     1       1.999   5.492  20.669  0.00  0.00    +0.000 A 
ATOM     13  C   UNL     1       2.867   5.430  19.573  0.00  0.00    +0.000 A 
ENDROOT
BRANCH  10  14
ATOM     14  C   UNL     1       0.847   9.112  20.413  0.00  0.00    +0.000 A 
ATOM     15  N   UNL     1       0.581   9.556  21.632  0.00  0.00    +0.000 NA
ATOM     16  C   UNL     1      -0.043  10.768  21.487  0.00  0.00    +0.000 A 
ATOM     17  C   UNL     1      -0.524  11.645  22.472  0.00  0.00    +0.000 A 
ATOM     18  C   UNL     1      -1.124  12.846  22.063  0.00  0.00    +0.000 A 
ATOM     19  C   UNL     1      -1.273  13.144  20.702  0.00  0.00    +0.000 A 
ATOM     20  C   UNL     1      -0.809  12.271  19.714  0.00  0.00    +0.000 A 
ATOM     21  C   UNL     1      -0.193  11.088  20.146  0.00  0.00    +0.000 A 
ATOM     22  N   UNL     1       0.351  10.012  19.477  0.00  0.00    +0.000 N 
ATOM     23  C   UNL     1       0.320   9.847  18.042  0.00  0.00    +0.000 C 
BRANCH  18  24
ATOM     24  C   UNL     1      -1.662  13.828  23.040  0.00  0.00    +0.000 C 
ATOM     25  O   UNL     1      -2.737  14.387  22.890  0.00  0.00    +0.000 OA
BRANCH  24  26
ATOM     26  O   UNL     1      -0.834  14.092  24.071  0.00  0.00    +0.000 OA
ATOM     27  H   UNL     1      -0.815  13.417  24.773  0.00  0.00    +0.000 HD
ENDBRANCH  24  26
ENDBRANCH  18  24
ENDBRANCH  10  14
BRANCH   1  29
ATOM     28  C   UNL     1       2.573   2.152  19.011  0.00  0.00    +0.000 C 
ATOM     29  C   UNL     1       3.634   3.040  19.636  0.00  0.00    +0.000 C 
ENDBRANCH   1  29
TORSDOF 4
ENDMDL
MODEL 9
REMARK VINA RESULT:      -7.8      1.060      2.925
REMARK  Name = 
REMARK  6 active torsions:
REMARK  status: ('A' for Active; 'I' for Inactive)
REMARK    1  A    between atoms: C_1  and  C_2
REMARK    2  A    between atoms: C_2  and  N_3
REMARK    3  A    between atoms: C_12  and  C_13
REMARK    4  A    between atoms: C_17  and  C_18
REMARK    5  A    between atoms: C_18  and  O_20
REMARK    6  A    between atoms: N_24  and  C_25
REMARK                            x       y       z     vdW  Elec       q    Type
REMARK                         _______ _______ _______ _____ _____    ______ ____
ROOT
ATOM      1  N   UNL     1      -2.052  11.532  19.123  0.00  0.00    +0.000 N 
ATOM      2  C   UNL     1      -1.915  11.900  20.446  0.00  0.00    +0.000 A 
ATOM      3  C   UNL     1      -2.662  12.793  21.234  0.00  0.00    +0.000 A 
ATOM      4  C   UNL     1      -2.318  12.930  22.580  0.00  0.00    +0.000 A 
ATOM      5  C   UNL     1      -1.261  12.207  23.123  0.00  0.00    +0.000 A 
ATOM      6  C   UNL     1      -0.508  11.338  22.325  0.00  0.00    +0.000 A 
ATOM      7  C   UNL     1      -0.833  11.180  20.961  0.00  0.00    +0.000 A 
ATOM      8  C   UNL     1      -0.283  10.399  19.890  0.00  0.00    +0.000 A 
ATOM      9  C   UNL     1       0.811   9.504  19.781  0.00  0.00    +0.000 A 
ATOM     10  C   UNL     1       1.098   8.864  18.559  0.00  0.00    +0.000 A 
ATOM     11  C   UNL     1       0.242   9.088  17.477  0.00  0.00    +0.000 A 
ATOM     12  C   UNL     1      -0.822   9.991  17.543  0.00  0.00    +0.000 A 
ATOM     13  C   UNL     1      -1.068  10.635  18.761  0.00  0.00    +0.000 A 
ENDROOT
BRANCH  10  14
ATOM     14  C   UNL     1       2.266   7.962  18.462  0.00  0.00    +0.000 A 
ATOM     15  N   UNL     1       3.176   8.018  17.502  0.00  0.00    +0.000 NA
ATOM     16  C   UNL     1       4.087   7.027  17.760  0.00  0.00    +0.000 A 
ATOM     17  C   UNL     1       5.241   6.670  17.043  0.00  0.00    +0.000 A 
ATOM     18  C   UNL     1       6.026   5.610  17.525  0.00  0.00    +0.000 A 
ATOM     19  C   UNL     1       5.644   4.900  18.671  0.00  0.00    +0.000 A 
ATOM     20  C   UNL     1       4.490   5.240  19.383  0.00  0.00    +0.000 A 
ATOM     21  C   UNL     1       3.734   6.316  18.898  0.00  0.00    +0.000 A 
ATOM     22  N   UNL     1       2.559   6.905  19.314  0.00  0.00    +0.000 N 
ATOM     23  C   UNL     1       1.754   6.422  20.413  0.00  0.00    +0.000 C 
BRANCH  18  24
ATOM     24  C   UNL     1       7.260   5.166  16.826  0.00  0.00    +0.000 C 
ATOM     25  O   UNL     1       8.013   4.324  17.287  0.00  0.00    +0.000 OA
BRANCH  24  26
ATOM     26  O   UNL     1       7.505   5.817  15.670  0.00  0.00    +0.000 OA
ATOM     27  H   UNL     1       8.446   5.945  15.456  0.00  0.00    +0.000 HD
ENDBRANCH  24  26
ENDBRANCH  18  24
ENDBRANCH  10  14
BRANCH   1  29
ATOM     28  C   UNL     1      -4.212  10.900  18.086  0.00  0.00    +0.000 C 
ATOM     29  C   UNL     1      -3.139  11.961  18.254  0.00  0.00    +0.000 C 
ENDBRANCH   1  29
TORSDOF 4
ENDMDL
