MODEL 1
REMARK VINA RESULT:      -8.3      0.000      0.000
REMARK  Name = 
REMARK  5 active torsions:
REMARK  status: ('A' for Active; 'I' for Inactive)
REMARK    1  A    between atoms: C_4  and  C_5
REMARK    2  A    between atoms: C_5  and  C_6
REMARK    3  A    between atoms: C_9  and  C_10
REMARK    4  A    between atoms: C_15  and  O_16
REMARK    5  A    between atoms: O_16  and  C_17
REMARK                            x       y       z     vdW  Elec       q    Type
REMARK                         _______ _______ _______ _____ _____    ______ ____
ROOT
ATOM      1  C   UNL     1       2.571   5.271  19.744  0.00  0.00    +0.000 A 
ATOM      2  C   UNL     1       1.486   4.474  20.196  0.00  0.00    +0.000 A 
ATOM      3  C   UNL     1       1.599   3.099  20.417  0.00  0.00    +0.000 A 
ATOM      4  C   UNL     1       2.822   2.515  20.202  0.00  0.00    +0.000 A 
ATOM      5  N   UNL     1       3.897   3.220  19.815  0.00  0.00    +0.000 NA
ATOM      6  C   UNL     1       3.774   4.566  19.597  0.00  0.00    +0.000 A 
ENDROOT
BRANCH   1  10
ATOM      7  C   UNL     1       1.839   8.726  18.896  0.00  0.00    +0.000 A 
ATOM      8  N   UNL     1       1.374   8.633  20.150  0.00  0.00    +0.000 NA
ATOM      9  O   UNL     1       1.677   7.342  20.528  0.00  0.00    +0.000 OA
ATOM     10  C   UNL     1       2.309   6.713  19.478  0.00  0.00    +0.000 A 
ATOM     11  N   UNL     1       2.448   7.540  18.449  0.00  0.00    +0.000 NA
BRANCH   7  12
ATOM     12  C   UNL     1       1.300   9.833  18.032  0.00  0.00    +0.000 C 
BRANCH  12  16
ATOM     13  C   UNL     1      -2.700  11.471  18.403  0.00  0.00    +0.000 A 
ATOM     14  C   UNL     1      -1.660  11.984  19.173  0.00  0.00    +0.000 A 
ATOM     15  C   UNL     1      -0.384  11.403  19.138  0.00  0.00    +0.000 A 
ATOM     16  C   UNL     1      -0.118  10.291  18.330  0.00  0.00    +0.000 A 
ATOM     17  C   UNL     1      -1.195   9.773  17.570  0.00  0.00    +0.000 A 
ATOM     18  C   UNL     1      -2.475  10.350  17.613  0.00  0.00    +0.000 A 
ENDBRANCH  12  16
ENDBRANCH   7  12
ENDBRANCH   1  10
BRANCH   6  19
ATOM     19  O   UNL     1       4.923   5.184  19.166  0.00  0.00    +0.000 OA
BRANCH  19  20
ATOM     20  C   UNL     1       5.542   4.578  17.997  0.00  0.00    +0.000 C 
ATOM     21  C   UNL     1       7.027   4.948  18.046  0.00  0.00    +0.000 C 
ATOM     22  C   UNL     1       7.186   6.459  17.916  0.00  0.00    +0.000 C 
ATOM     23  N   UNL     1       6.653   6.969  16.651  0.00  0.00    +0.000 NA
ATOM     24  C   UNL     1       5.262   6.573  16.436  0.00  0.00    +0.000 C 
ATOM     25  C   UNL     1       5.004   5.079  16.642  0.00  0.00    +0.000 C 
ATOM     26  H   UNL     1       7.230   6.637  15.879  0.00  0.00    +0.000 HD
ENDBRANCH  19  20
ENDBRANCH   6  19
TORSDOF 5
ENDMDL
MODEL 2
REMARK VINA RESULT:      -8.1      1.666      4.021
REMARK  Name = 
REMARK  5 active torsions:
REMARK  status: ('A' for Active; 'I' for Inactive)
REMARK    1  A    between atoms: C_4  and  C_5
REMARK    2  A    between atoms: C_5  and  C_6
REMARK    3  A    between atoms: C_9  and  C_10
REMARK    4  A    between atoms: C_15  and  O_16
REMARK    5  A    between atoms: O_16  and  C_17
REMARK                            x       y       z     vdW  Elec       q    Type
REMARK                         _______ _______ _______ _____ _____    ______ ____
ROOT
ATOM      1  C   UNL     1       4.220   6.368  17.600  0.00  0.00    +0.000 A 
ATOM      2  C   UNL     1       5.468   6.894  17.172  0.00  0.00    +0.000 A 
ATOM      3  C   UNL     1       6.574   6.085  16.898  0.00  0.00    +0.000 A 
ATOM      4  C   UNL     1       6.424   4.728  17.033  0.00  0.00    +0.000 A 
ATOM      5  N   UNL     1       5.258   4.166  17.391  0.00  0.00    +0.000 NA
ATOM      6  C   UNL     1       4.182   4.968  17.663  0.00  0.00    +0.000 A 
ENDROOT
BRANCH   1  10
ATOM      7  C   UNL     1       1.652   8.726  18.620  0.00  0.00    +0.000 A 
ATOM      8  N   UNL     1       2.149   9.302  17.515  0.00  0.00    +0.000 NA
ATOM      9  O   UNL     1       3.101   8.409  17.068  0.00  0.00    +0.000 OA
ATOM     10  C   UNL     1       3.136   7.335  17.929  0.00  0.00    +0.000 A 
ATOM     11  N   UNL     1       2.241   7.480  18.899  0.00  0.00    +0.000 NA
BRANCH   7  12
ATOM     12  C   UNL     1       0.918   9.606  19.594  0.00  0.00    +0.000 C 
BRANCH  12  16
ATOM     13  C   UNL     1      -2.756  11.586  18.412  0.00  0.00    +0.000 A 
ATOM     14  C   UNL     1      -2.282  10.499  17.684  0.00  0.00    +0.000 A 
ATOM     15  C   UNL     1      -1.047   9.908  17.992  0.00  0.00    +0.000 A 
ATOM     16  C   UNL     1      -0.256  10.395  19.039  0.00  0.00    +0.000 A 
ATOM     17  C   UNL     1      -0.748  11.514  19.754  0.00  0.00    +0.000 A 
ATOM     18  C   UNL     1      -1.979  12.110  19.438  0.00  0.00    +0.000 A 
ENDBRANCH  12  16
ENDBRANCH   7  12
ENDBRANCH   1  10
BRANCH   6  19
ATOM     19  O   UNL     1       3.051   4.295  18.060  0.00  0.00    +0.000 OA
BRANCH  19  20
ATOM     20  C   UNL     1       3.212   3.481  19.255  0.00  0.00    +0.000 C 
ATOM     21  C   UNL     1       2.420   2.192  19.017  0.00  0.00    +0.000 C 
ATOM     22  C   UNL     1       0.936   2.518  18.882  0.00  0.00    +0.000 C 
ATOM     23  N   UNL     1       0.391   3.147  20.087  0.00  0.00    +0.000 NA
ATOM     24  C   UNL     1       1.149   4.333  20.483  0.00  0.00    +0.000 C 
ATOM     25  C   UNL     1       2.660   4.109  20.550  0.00  0.00    +0.000 C 
ATOM     26  H   UNL     1       0.382   2.471  20.850  0.00  0.00    +0.000 HD
ENDBRANCH  19  20
ENDBRANCH   6  19
TORSDOF 5
ENDMDL
MODEL 3
REMARK VINA RESULT:      -8.0      2.410      7.383
REMARK  Name = 
REMARK  5 active torsions:
REMARK  status: ('A' for Active; 'I' for Inactive)
REMARK    1  A    between atoms: C_4  and  C_5
REMARK    2  A    between atoms: C_5  and  C_6
REMARK    3  A    between atoms: C_9  and  C_10
REMARK    4  A    between atoms: C_15  and  O_16
REMARK    5  A    between atoms: O_16  and  C_17
REMARK                            x       y       z     vdW  Elec       q    Type
REMARK                         _______ _______ _______ _____ _____    ______ ____
ROOT
ATOM      1  C   UNL     1       3.396   6.801  18.468  0.00  0.00    +0.000 A 
ATOM      2  C   UNL     1       3.173   8.005  17.748  0.00  0.00    +0.000 A 
ATOM      3  C   UNL     1       2.172   8.917  18.093  0.00  0.00    +0.000 A 
ATOM      4  C   UNL     1       1.395   8.632  19.187  0.00  0.00    +0.000 A 
ATOM      5  N   UNL     1       1.583   7.532  19.934  0.00  0.00    +0.000 NA
ATOM      6  C   UNL     1       2.563   6.642  19.584  0.00  0.00    +0.000 A 
ENDROOT
BRANCH   1  10
ATOM      7  C   UNL     1       6.024   4.707  17.091  0.00  0.00    +0.000 A 
ATOM      8  N   UNL     1       6.209   4.568  18.412  0.00  0.00    +0.000 NA
ATOM      9  O   UNL     1       5.195   5.315  18.975  0.00  0.00    +0.000 OA
ATOM     10  C   UNL     1       4.447   5.874  17.962  0.00  0.00    +0.000 A 
ATOM     11  N   UNL     1       4.914   5.510  16.775  0.00  0.00    +0.000 NA
BRANCH   7  12
ATOM     12  C   UNL     1       7.185   4.393  16.188  0.00  0.00    +0.000 C 
BRANCH  12  16
ATOM     13  C   UNL     1       6.797   4.232  11.870  0.00  0.00    +0.000 A 
ATOM     14  C   UNL     1       7.667   5.144  12.460  0.00  0.00    +0.000 A 
ATOM     15  C   UNL     1       7.734   5.278  13.855  0.00  0.00    +0.000 A 
ATOM     16  C   UNL     1       6.927   4.499  14.694  0.00  0.00    +0.000 A 
ATOM     17  C   UNL     1       6.034   3.593  14.072  0.00  0.00    +0.000 A 
ATOM     18  C   UNL     1       5.962   3.467  12.675  0.00  0.00    +0.000 A 
ENDBRANCH  12  16
ENDBRANCH   7  12
ENDBRANCH   1  10
BRANCH   6  19
ATOM     19  O   UNL     1       2.644   5.532  20.391  0.00  0.00    +0.000 OA
BRANCH  19  20
ATOM     20  C   UNL     1       1.498   4.639  20.319  0.00  0.00    +0.000 C 
ATOM     21  C   UNL     1       1.750   3.519  21.333  0.00  0.00    +0.000 C 
ATOM     22  C   UNL     1       2.981   2.719  20.920  0.00  0.00    +0.000 C 
ATOM     23  N   UNL     1       2.822   2.089  19.608  0.00  0.00    +0.000 NA
ATOM     24  C   UNL     1       2.459   3.053  18.571  0.00  0.00    +0.000 C 
ATOM     25  C   UNL     1       1.288   3.960  18.951  0.00  0.00    +0.000 C 
ATOM     26  H   UNL     1       2.115   1.358  19.664  0.00  0.00    +0.000 HD
ENDBRANCH  19  20
ENDBRANCH   6  19
TORSDOF 5
ENDMDL
MODEL 4
REMARK VINA RESULT:      -8.0      2.530      7.302
REMARK  Name = 
REMARK  5 active torsions:
REMARK  status: ('A' for Active; 'I' for Inactive)
REMARK    1  A    between atoms: C_4  and  C_5
REMARK    2  A    between atoms: C_5  and  C_6
REMARK    3  A    between atoms: C_9  and  C_10
REMARK    4  A    between atoms: C_15  and  O_16
REMARK    5  A    between atoms: O_16  and  C_17
REMARK                            x       y       z     vdW  Elec       q    Type
REMARK                         _______ _______ _______ _____ _____    ______ ____
ROOT
ATOM      1  C   UNL     1       2.941   6.949  18.823  0.00  0.00    +0.000 A 
ATOM      2  C   UNL     1       2.428   8.216  18.434  0.00  0.00    +0.000 A 
ATOM      3  C   UNL     1       1.469   8.904  19.182  0.00  0.00    +0.000 A 
ATOM      4  C   UNL     1       1.030   8.327  20.347  0.00  0.00    +0.000 A 
ATOM      5  N   UNL     1       1.507   7.153  20.791  0.00  0.00    +0.000 NA
ATOM      6  C   UNL     1       2.442   6.485  20.048  0.00  0.00    +0.000 A 
ENDROOT
BRANCH   1  10
ATOM      7  C   UNL     1       5.168   5.134  16.602  0.00  0.00    +0.000 A 
ATOM      8  N   UNL     1       5.000   6.297  15.954  0.00  0.00    +0.000 NA
ATOM      9  O   UNL     1       4.193   7.037  16.792  0.00  0.00    +0.000 OA
ATOM     10  C   UNL     1       3.908   6.282  17.909  0.00  0.00    +0.000 A 
ATOM     11  N   UNL     1       4.507   5.099  17.842  0.00  0.00    +0.000 NA
BRANCH   7  12
ATOM     12  C   UNL     1       5.622   3.947  15.798  0.00  0.00    +0.000 C 
BRANCH  12  16
ATOM     13  C   UNL     1       7.244   4.256  11.786  0.00  0.00    +0.000 A 
ATOM     14  C   UNL     1       7.816   4.977  12.829  0.00  0.00    +0.000 A 
ATOM     15  C   UNL     1       7.247   4.966  14.111  0.00  0.00    +0.000 A 
ATOM     16  C   UNL     1       6.086   4.230  14.379  0.00  0.00    +0.000 A 
ATOM     17  C   UNL     1       5.508   3.520  13.298  0.00  0.00    +0.000 A 
ATOM     18  C   UNL     1       6.075   3.540  12.013  0.00  0.00    +0.000 A 
ENDBRANCH  12  16
ENDBRANCH   7  12
ENDBRANCH   1  10
BRANCH   6  19
ATOM     19  O   UNL     1       2.833   5.275  20.573  0.00  0.00    +0.000 OA
BRANCH  19  20
ATOM     20  C   UNL     1       1.743   4.361  20.877  0.00  0.00    +0.000 C 
ATOM     21  C   UNL     1       2.380   3.103  21.474  0.00  0.00    +0.000 C 
ATOM     22  C   UNL     1       3.264   2.429  20.430  0.00  0.00    +0.000 C 
ATOM     23  N   UNL     1       2.511   2.014  19.245  0.00  0.00    +0.000 NA
ATOM     24  C   UNL     1       1.758   3.118  18.652  0.00  0.00    +0.000 C 
ATOM     25  C   UNL     1       0.916   3.904  19.659  0.00  0.00    +0.000 C 
ATOM     26  H   UNL     1       1.876   1.256  19.493  0.00  0.00    +0.000 HD
ENDBRANCH  19  20
ENDBRANCH   6  19
TORSDOF 5
ENDMDL
MODEL 5
REMARK VINA RESULT:      -8.0      1.602      3.934
REMARK  Name = 
REMARK  5 active torsions:
REMARK  status: ('A' for Active; 'I' for Inactive)
REMARK    1  A    between atoms: C_4  and  C_5
REMARK    2  A    between atoms: C_5  and  C_6
REMARK    3  A    between atoms: C_9  and  C_10
REMARK    4  A    between atoms: C_15  and  O_16
REMARK    5  A    between atoms: O_16  and  C_17
REMARK                            x       y       z     vdW  Elec       q    Type
REMARK                         _______ _______ _______ _____ _____    ______ ____
ROOT
ATOM      1  C   UNL     1       4.059   6.425  17.709  0.00  0.00    +0.000 A 
ATOM      2  C   UNL     1       5.031   6.755  16.727  0.00  0.00    +0.000 A 
ATOM      3  C   UNL     1       6.096   5.909  16.404  0.00  0.00    +0.000 A 
ATOM      4  C   UNL     1       6.179   4.706  17.058  0.00  0.00    +0.000 A 
ATOM      5  N   UNL     1       5.268   4.317  17.965  0.00  0.00    +0.000 NA
ATOM      6  C   UNL     1       4.232   5.156  18.278  0.00  0.00    +0.000 A 
ENDROOT
BRANCH   1  10
ATOM      7  C   UNL     1       1.585   8.904  18.670  0.00  0.00    +0.000 A 
ATOM      8  N   UNL     1       2.064   9.406  17.523  0.00  0.00    +0.000 NA
ATOM      9  O   UNL     1       2.979   8.465  17.098  0.00  0.00    +0.000 OA
ATOM     10  C   UNL     1       3.011   7.437  18.015  0.00  0.00    +0.000 A 
ATOM     11  N   UNL     1       2.149   7.658  19.000  0.00  0.00    +0.000 NA
BRANCH   7  12
ATOM     12  C   UNL     1       0.902   9.854  19.616  0.00  0.00    +0.000 C 
BRANCH  12  16
ATOM     13  C   UNL     1      -2.802  11.543  18.118  0.00  0.00    +0.000 A 
ATOM     14  C   UNL     1      -2.282  11.969  19.337  0.00  0.00    +0.000 A 
ATOM     15  C   UNL     1      -1.139  11.365  19.883  0.00  0.00    +0.000 A 
ATOM     16  C   UNL     1      -0.489  10.317  19.219  0.00  0.00    +0.000 A 
ATOM     17  C   UNL     1      -1.047   9.886  17.991  0.00  0.00    +0.000 A 
ATOM     18  C   UNL     1      -2.197  10.485  17.451  0.00  0.00    +0.000 A 
ENDBRANCH  12  16
ENDBRANCH   7  12
ENDBRANCH   1  10
BRANCH   6  19
ATOM     19  O   UNL     1       3.381   4.678  19.246  0.00  0.00    +0.000 OA
BRANCH  19  20
ATOM     20  C   UNL     1       3.194   3.235  19.237  0.00  0.00    +0.000 C 
ATOM     21  C   UNL     1       1.761   2.983  18.758  0.00  0.00    +0.000 C 
ATOM     22  C   UNL     1       0.772   3.567  19.761  0.00  0.00    +0.000 C 
ATOM     23  N   UNL     1       0.900   2.959  21.087  0.00  0.00    +0.000 NA
ATOM     24  C   UNL     1       2.266   3.035  21.602  0.00  0.00    +0.000 C 
ATOM     25  C   UNL     1       3.328   2.553  20.612  0.00  0.00    +0.000 C 
ATOM     26  H   UNL     1       0.598   1.987  21.047  0.00  0.00    +0.000 HD
ENDBRANCH  19  20
ENDBRANCH   6  19
TORSDOF 5
ENDMDL
MODEL 6
REMARK VINA RESULT:      -7.9      0.779      1.183
REMARK  Name = 
REMARK  5 active torsions:
REMARK  status: ('A' for Active; 'I' for Inactive)
REMARK    1  A    between atoms: C_4  and  C_5
REMARK    2  A    between atoms: C_5  and  C_6
REMARK    3  A    between atoms: C_9  and  C_10
REMARK    4  A    between atoms: C_15  and  O_16
REMARK    5  A    between atoms: O_16  and  C_17
REMARK                            x       y       z     vdW  Elec       q    Type
REMARK                         _______ _______ _______ _____ _____    ______ ____
ROOT
ATOM      1  C   UNL     1       2.801   5.336  19.814  0.00  0.00    +0.000 A 
ATOM      2  C   UNL     1       2.159   4.709  20.916  0.00  0.00    +0.000 A 
ATOM      3  C   UNL     1       2.380   3.372  21.257  0.00  0.00    +0.000 A 
ATOM      4  C   UNL     1       3.272   2.657  20.500  0.00  0.00    +0.000 A 
ATOM      5  N   UNL     1       3.943   3.203  19.473  0.00  0.00    +0.000 NA
ATOM      6  C   UNL     1       3.715   4.512  19.143  0.00  0.00    +0.000 A 
ENDROOT
BRANCH   1  10
ATOM      7  C   UNL     1       1.814   8.700  18.864  0.00  0.00    +0.000 A 
ATOM      8  N   UNL     1       1.335   8.601  20.113  0.00  0.00    +0.000 NA
ATOM      9  O   UNL     1       1.732   7.348  20.530  0.00  0.00    +0.000 OA
ATOM     10  C   UNL     1       2.431   6.745  19.507  0.00  0.00    +0.000 A 
ATOM     11  N   UNL     1       2.522   7.555  18.458  0.00  0.00    +0.000 NA
BRANCH   7  12
ATOM     12  C   UNL     1       1.205   9.739  17.964  0.00  0.00    +0.000 C 
BRANCH  12  16
ATOM     13  C   UNL     1      -2.735  11.457  18.552  0.00  0.00    +0.000 A 
ATOM     14  C   UNL     1      -1.662  11.884  19.329  0.00  0.00    +0.000 A 
ATOM     15  C   UNL     1      -0.404  11.272  19.221  0.00  0.00    +0.000 A 
ATOM     16  C   UNL     1      -0.191  10.214  18.329  0.00  0.00    +0.000 A 
ATOM     17  C   UNL     1      -1.301   9.782  17.563  0.00  0.00    +0.000 A 
ATOM     18  C   UNL     1      -2.561  10.390  17.680  0.00  0.00    +0.000 A 
ENDBRANCH  12  16
ENDBRANCH   7  12
ENDBRANCH   1  10
BRANCH   6  19
ATOM     19  O   UNL     1       4.423   4.960  18.053  0.00  0.00    +0.000 OA
BRANCH  19  20
ATOM     20  C   UNL     1       5.647   5.679  18.373  0.00  0.00    +0.000 C 
ATOM     21  C   UNL     1       5.728   6.859  17.399  0.00  0.00    +0.000 C 
ATOM     22  C   UNL     1       5.862   6.340  15.972  0.00  0.00    +0.000 C 
ATOM     23  N   UNL     1       7.071   5.536  15.782  0.00  0.00    +0.000 NA
ATOM     24  C   UNL     1       7.163   4.438  16.743  0.00  0.00    +0.000 C 
ATOM     25  C   UNL     1       6.944   4.867  18.195  0.00  0.00    +0.000 C 
ATOM     26  H   UNL     1       7.893   6.133  15.859  0.00  0.00    +0.000 HD
ENDBRANCH  19  20
ENDBRANCH   6  19
TORSDOF 5
ENDMDL
MODEL 7
REMARK VINA RESULT:      -7.9      1.826      4.142
REMARK  Name = 
REMARK  5 active torsions:
REMARK  status: ('A' for Active; 'I' for Inactive)
REMARK    1  A    between atoms: C_4  and  C_5
REMARK    2  A    between atoms: C_5  and  C_6
REMARK    3  A    between atoms: C_9  and  C_10
REMARK    4  A    between atoms: C_15  and  O_16
REMARK    5  A    between atoms: O_16  and  C_17
REMARK                            x       y       z     vdW  Elec       q    Type
REMARK                         _______ _______ _______ _____ _____    ______ ____
ROOT
ATOM      1  C   UNL     1       4.241   6.280  17.591  0.00  0.00    +0.000 A 
ATOM      2  C   UNL     1       5.488   6.806  17.160  0.00  0.00    +0.000 A 
ATOM      3  C   UNL     1       6.584   5.995  16.855  0.00  0.00    +0.000 A 
ATOM      4  C   UNL     1       6.426   4.637  16.962  0.00  0.00    +0.000 A 
ATOM      5  N   UNL     1       5.261   4.076  17.323  0.00  0.00    +0.000 NA
ATOM      6  C   UNL     1       4.194   4.880  17.625  0.00  0.00    +0.000 A 
ENDROOT
BRANCH   1  10
ATOM      7  C   UNL     1       1.726   8.663  18.681  0.00  0.00    +0.000 A 
ATOM      8  N   UNL     1       2.066   9.136  17.473  0.00  0.00    +0.000 NA
ATOM      9  O   UNL     1       2.990   8.227  17.002  0.00  0.00    +0.000 OA
ATOM     10  C   UNL     1       3.168   7.247  17.954  0.00  0.00    +0.000 A 
ATOM     11  N   UNL     1       2.390   7.467  19.007  0.00  0.00    +0.000 NA
BRANCH   7  12
ATOM     12  C   UNL     1       1.080   9.617  19.647  0.00  0.00    +0.000 C 
BRANCH  12  16
ATOM     13  C   UNL     1      -0.493  13.505  18.537  0.00  0.00    +0.000 A 
ATOM     14  C   UNL     1      -1.256  12.359  18.337  0.00  0.00    +0.000 A 
ATOM     15  C   UNL     1      -0.727  11.086  18.598  0.00  0.00    +0.000 A 
ATOM     16  C   UNL     1       0.583  10.931  19.067  0.00  0.00    +0.000 A 
ATOM     17  C   UNL     1       1.348  12.109  19.245  0.00  0.00    +0.000 A 
ATOM     18  C   UNL     1       0.820  13.382  18.974  0.00  0.00    +0.000 A 
ENDBRANCH  12  16
ENDBRANCH   7  12
ENDBRANCH   1  10
BRANCH   6  19
ATOM     19  O   UNL     1       3.063   4.206  18.021  0.00  0.00    +0.000 OA
BRANCH  19  20
ATOM     20  C   UNL     1       3.217   3.411  19.230  0.00  0.00    +0.000 C 
ATOM     21  C   UNL     1       2.392   2.137  19.024  0.00  0.00    +0.000 C 
ATOM     22  C   UNL     1       0.916   2.495  18.896  0.00  0.00    +0.000 C 
ATOM     23  N   UNL     1       0.397   3.159  20.094  0.00  0.00    +0.000 NA
ATOM     24  C   UNL     1       1.185   4.334  20.460  0.00  0.00    +0.000 C 
ATOM     25  C   UNL     1       2.692   4.076  20.517  0.00  0.00    +0.000 C 
ATOM     26  H   UNL     1       0.380   2.498  20.869  0.00  0.00    +0.000 HD
ENDBRANCH  19  20
ENDBRANCH   6  19
TORSDOF 5
ENDMDL
MODEL 8
REMARK VINA RESULT:      -7.9      1.652      3.849
REMARK  Name = 
REMARK  5 active torsions:
REMARK  status: ('A' for Active; 'I' for Inactive)
REMARK    1  A    between atoms: C_4  and  C_5
REMARK    2  A    between atoms: C_5  and  C_6
REMARK    3  A    between atoms: C_9  and  C_10
REMARK    4  A    between atoms: C_15  and  O_16
REMARK    5  A    between atoms: O_16  and  C_17
REMARK                            x       y       z     vdW  Elec       q    Type
REMARK                         _______ _______ _______ _____ _____    ______ ____
ROOT
ATOM      1  C   UNL     1       3.979   6.537  17.986  0.00  0.00    +0.000 A 
ATOM      2  C   UNL     1       5.043   6.854  17.100  0.00  0.00    +0.000 A 
ATOM      3  C   UNL     1       6.122   5.994  16.879  0.00  0.00    +0.000 A 
ATOM      4  C   UNL     1       6.128   4.790  17.537  0.00  0.00    +0.000 A 
ATOM      5  N   UNL     1       5.130   4.414  18.353  0.00  0.00    +0.000 NA
ATOM      6  C   UNL     1       4.080   5.266  18.568  0.00  0.00    +0.000 A 
ENDROOT
BRANCH   1  10
ATOM      7  C   UNL     1       1.481   9.075  18.702  0.00  0.00    +0.000 A 
ATOM      8  N   UNL     1       1.937   9.451  17.498  0.00  0.00    +0.000 NA
ATOM      9  O   UNL     1       2.860   8.481  17.167  0.00  0.00    +0.000 OA
ATOM     10  C   UNL     1       2.920   7.564  18.193  0.00  0.00    +0.000 A 
ATOM     11  N   UNL     1       2.068   7.882  19.160  0.00  0.00    +0.000 NA
BRANCH   7  12
ATOM     12  C   UNL     1       0.797  10.116  19.545  0.00  0.00    +0.000 C 
BRANCH  12  16
ATOM     13  C   UNL     1      -3.156  11.475  18.384  0.00  0.00    +0.000 A 
ATOM     14  C   UNL     1      -2.547  10.428  17.699  0.00  0.00    +0.000 A 
ATOM     15  C   UNL     1      -1.232  10.040  17.996  0.00  0.00    +0.000 A 
ATOM     16  C   UNL     1      -0.493  10.694  18.989  0.00  0.00    +0.000 A 
ATOM     17  C   UNL     1      -1.124  11.770  19.660  0.00  0.00    +0.000 A 
ATOM     18  C   UNL     1      -2.437  12.164  19.354  0.00  0.00    +0.000 A 
ENDBRANCH  12  16
ENDBRANCH   7  12
ENDBRANCH   1  10
BRANCH   6  19
ATOM     19  O   UNL     1       3.136   4.800  19.451  0.00  0.00    +0.000 OA
BRANCH  19  20
ATOM     20  C   UNL     1       1.828   4.540  18.867  0.00  0.00    +0.000 C 
ATOM     21  C   UNL     1       1.022   3.777  19.922  0.00  0.00    +0.000 C 
ATOM     22  C   UNL     1       1.677   2.428  20.195  0.00  0.00    +0.000 C 
ATOM     23  N   UNL     1       1.736   1.584  18.999  0.00  0.00    +0.000 NA
ATOM     24  C   UNL     1       2.386   2.259  17.877  0.00  0.00    +0.000 C 
ATOM     25  C   UNL     1       1.844   3.662  17.600  0.00  0.00    +0.000 C 
ATOM     26  H   UNL     1       0.793   1.302  18.735  0.00  0.00    +0.000 HD
ENDBRANCH  19  20
ENDBRANCH   6  19
TORSDOF 5
ENDMDL
MODEL 9
REMARK VINA RESULT:      -7.8      3.051      7.572
REMARK  Name = 
REMARK  5 active torsions:
REMARK  status: ('A' for Active; 'I' for Inactive)
REMARK    1  A    between atoms: C_4  and  C_5
REMARK    2  A    between atoms: C_5  and  C_6
REMARK    3  A    between atoms: C_9  and  C_10
REMARK    4  A    between atoms: C_15  and  O_16
REMARK    5  A    between atoms: O_16  and  C_17
REMARK                            x       y       z     vdW  Elec       q    Type
REMARK                         _______ _______ _______ _____ _____    ______ ____
ROOT
ATOM      1  C   UNL     1       4.121   6.490  17.637  0.00  0.00    +0.000 A 
ATOM      2  C   UNL     1       3.621   7.771  17.281  0.00  0.00    +0.000 A 
ATOM      3  C   UNL     1       2.602   8.408  17.994  0.00  0.00    +0.000 A 
ATOM      4  C   UNL     1       2.089   7.765  19.091  0.00  0.00    +0.000 A 
ATOM      5  N   UNL     1       2.548   6.572  19.505  0.00  0.00    +0.000 NA
ATOM      6  C   UNL     1       3.542   5.954  18.796  0.00  0.00    +0.000 A 
ENDROOT
BRANCH   1  10
ATOM      7  C   UNL     1       6.530   5.075  15.316  0.00  0.00    +0.000 A 
ATOM      8  N   UNL     1       7.312   5.769  16.155  0.00  0.00    +0.000 NA
ATOM      9  O   UNL     1       6.435   6.286  17.085  0.00  0.00    +0.000 OA
ATOM     10  C   UNL     1       5.159   5.882  16.759  0.00  0.00    +0.000 A 
ATOM     11  N   UNL     1       5.171   5.113  15.677  0.00  0.00    +0.000 NA
BRANCH   7  12
ATOM     12  C   UNL     1       7.083   4.748  13.956  0.00  0.00    +0.000 C 
BRANCH  12  16
ATOM     13  C   UNL     1       4.883   2.383  11.059  0.00  0.00    +0.000 A 
ATOM     14  C   UNL     1       4.221   3.325  11.841  0.00  0.00    +0.000 A 
ATOM     15  C   UNL     1       4.897   4.029  12.849  0.00  0.00    +0.000 A 
ATOM     16  C   UNL     1       6.256   3.804  13.100  0.00  0.00    +0.000 A 
ATOM     17  C   UNL     1       6.905   2.827  12.306  0.00  0.00    +0.000 A 
ATOM     18  C   UNL     1       6.225   2.117  11.304  0.00  0.00    +0.000 A 
ENDBRANCH  12  16
ENDBRANCH   7  12
ENDBRANCH   1  10
BRANCH   6  19
ATOM     19  O   UNL     1       3.909   4.721  19.280  0.00  0.00    +0.000 OA
BRANCH  19  20
ATOM     20  C   UNL     1       2.804   3.806  19.524  0.00  0.00    +0.000 C 
ATOM     21  C   UNL     1       3.323   2.742  20.495  0.00  0.00    +0.000 C 
ATOM     22  C   UNL     1       4.441   1.943  19.833  0.00  0.00    +0.000 C 
ATOM     23  N   UNL     1       3.989   1.247  18.626  0.00  0.00    +0.000 NA
ATOM     24  C   UNL     1       3.362   2.153  17.666  0.00  0.00    +0.000 C 
ATOM     25  C   UNL     1       2.291   3.058  18.278  0.00  0.00    +0.000 C 
ATOM     26  H   UNL     1       3.336   0.508  18.883  0.00  0.00    +0.000 HD
ENDBRANCH  19  20
ENDBRANCH   6  19
TORSDOF 5
ENDMDL
