MODEL 1
REMARK VINA RESULT:      -6.9      0.000      0.000
REMARK  Name = 
REMARK  8 active torsions:
REMARK  status: ('A' for Active; 'I' for Inactive)
REMARK    1  A    between atoms: C_1  and  O_2
REMARK    2  A    between atoms: O_2  and  C_3
REMARK    3  A    between atoms: C_7  and  O_8
REMARK    4  A    between atoms: O_8  and  C_9
REMARK    5  A    between atoms: C_9  and  C_10
REMARK    6  A    between atoms: C_10  and  S_11
REMARK    7  A    between atoms: S_11  and  C_12
REMARK    8  A    between atoms: C_17  and  N_18
REMARK                            x       y       z     vdW  Elec       q    Type
REMARK                         _______ _______ _______ _____ _____    ______ ____
ROOT
ATOM      1  S   UNL     1       6.872   4.067  15.819  0.00  0.00    +0.000 S 
ENDROOT
BRANCH   1   2
ATOM      2  C   UNL     1       7.365   5.274  17.020  0.00  0.00    +0.000 A 
ATOM      3  N   UNL     1       7.702   4.805  18.231  0.00  0.00    +0.000 NA
ATOM      4  C   UNL     1       8.059   5.714  19.139  0.00  0.00    +0.000 A 
ATOM      5  N   UNL     1       8.352   5.239  20.417  0.00  0.00    +0.000 N 
ATOM      6  C   UNL     1       8.089   7.062  18.869  0.00  0.00    +0.000 A 
ATOM      7  C   UNL     1       7.755   7.439  17.590  0.00  0.00    +0.000 A 
ATOM      8  N   UNL     1       7.389   6.563  16.653  0.00  0.00    +0.000 NA
ATOM      9  H   UNL     1       8.311   4.222  20.386  0.00  0.00    +0.000 HD
ATOM     10  H   UNL     1       9.244   5.572  20.761  0.00  0.00    +0.000 HD
BRANCH   7  11
ATOM     11  N   UNL     1       7.720   8.784  17.230  0.00  0.00    +0.000 N 
ATOM     12  H   UNL     1       8.480   9.316  17.638  0.00  0.00    +0.000 HD
ATOM     13  H   UNL     1       7.717   8.839  16.214  0.00  0.00    +0.000 HD
ENDBRANCH   7  11
ENDBRANCH   1   2
BRANCH   1  14
ATOM     14  C   UNL     1       5.216   4.707  15.406  0.00  0.00    +0.000 C 
BRANCH  14  15
ATOM     15  C   UNL     1       4.436   4.915  16.699  0.00  0.00    +0.000 C 
BRANCH  15  16
ATOM     16  O   UNL     1       3.926   3.657  17.157  0.00  0.00    +0.000 OA
BRANCH  16  21
ATOM     17  C   UNL     1       1.820   4.681  20.047  0.00  0.00    +0.000 A 
ATOM     18  C   UNL     1       0.893   3.639  20.008  0.00  0.00    +0.000 A 
ATOM     19  C   UNL     1       0.988   2.644  19.033  0.00  0.00    +0.000 A 
ATOM     20  C   UNL     1       2.018   2.688  18.095  0.00  0.00    +0.000 A 
ATOM     21  C   UNL     1       2.954   3.723  18.124  0.00  0.00    +0.000 A 
ATOM     22  C   UNL     1       2.846   4.720  19.100  0.00  0.00    +0.000 A 
BRANCH  17  24
ATOM     23  C   UNL     1       1.579   6.963  20.675  0.00  0.00    +0.000 C 
ATOM     24  O   UNL     1       1.627   5.591  21.052  0.00  0.00    +0.000 OA
ENDBRANCH  17  24
ENDBRANCH  16  21
ENDBRANCH  15  16
ENDBRANCH  14  15
ENDBRANCH   1  14
TORSDOF 7
ENDMDL
MODEL 2
REMARK VINA RESULT:      -6.8      0.894      2.113
REMARK  Name = 
REMARK  8 active torsions:
REMARK  status: ('A' for Active; 'I' for Inactive)
REMARK    1  A    between atoms: C_1  and  O_2
REMARK    2  A    between atoms: O_2  and  C_3
REMARK    3  A    between atoms: C_7  and  O_8
REMARK    4  A    between atoms: O_8  and  C_9
REMARK    5  A    between atoms: C_9  and  C_10
REMARK    6  A    between atoms: C_10  and  S_11
REMARK    7  A    between atoms: S_11  and  C_12
REMARK    8  A    between atoms: C_17  and  N_18
REMARK                            x       y       z     vdW  Elec       q    Type
REMARK                         _______ _______ _______ _____ _____    ______ ____
ROOT
ATOM      1  S   UNL     1       6.545   4.267  15.728  0.00  0.00    +0.000 S 
ENDROOT
BRANCH   1   2
ATOM      2  C   UNL     1       7.155   5.374  16.971  0.00  0.00    +0.000 A 
ATOM      3  N   UNL     1       7.195   6.673  16.644  0.00  0.00    +0.000 NA
ATOM      4  C   UNL     1       7.667   7.504  17.574  0.00  0.00    +0.000 A 
ATOM      5  N   UNL     1       7.768   8.849  17.218  0.00  0.00    +0.000 N 
ATOM      6  C   UNL     1       8.093   7.073  18.808  0.00  0.00    +0.000 A 
ATOM      7  C   UNL     1       7.984   5.725  19.058  0.00  0.00    +0.000 A 
ATOM      8  N   UNL     1       7.520   4.860  18.155  0.00  0.00    +0.000 NA
ATOM      9  H   UNL     1       7.364   8.954  16.289  0.00  0.00    +0.000 HD
ATOM     10  H   UNL     1       7.333   9.464  17.894  0.00  0.00    +0.000 HD
BRANCH   7  11
ATOM     11  N   UNL     1       8.423   5.187  20.266  0.00  0.00    +0.000 N 
ATOM     12  H   UNL     1       8.952   5.851  20.819  0.00  0.00    +0.000 HD
ATOM     13  H   UNL     1       7.611   4.833  20.767  0.00  0.00    +0.000 HD
ENDBRANCH   7  11
ENDBRANCH   1   2
BRANCH   1  14
ATOM     14  C   UNL     1       4.767   4.315  16.123  0.00  0.00    +0.000 C 
BRANCH  14  15
ATOM     15  C   UNL     1       4.466   3.234  17.153  0.00  0.00    +0.000 C 
BRANCH  15  16
ATOM     16  O   UNL     1       3.048   3.112  17.319  0.00  0.00    +0.000 OA
BRANCH  16  21
ATOM     17  C   UNL     1       2.045   5.700  19.795  0.00  0.00    +0.000 A 
ATOM     18  C   UNL     1       1.358   4.878  20.688  0.00  0.00    +0.000 A 
ATOM     19  C   UNL     1       1.242   3.509  20.443  0.00  0.00    +0.000 A 
ATOM     20  C   UNL     1       1.822   2.957  19.301  0.00  0.00    +0.000 A 
ATOM     21  C   UNL     1       2.515   3.767  18.400  0.00  0.00    +0.000 A 
ATOM     22  C   UNL     1       2.618   5.140  18.651  0.00  0.00    +0.000 A 
BRANCH  17  24
ATOM     23  C   UNL     1       2.165   7.968  19.083  0.00  0.00    +0.000 C 
ATOM     24  O   UNL     1       2.096   7.023  20.146  0.00  0.00    +0.000 OA
ENDBRANCH  17  24
ENDBRANCH  16  21
ENDBRANCH  15  16
ENDBRANCH  14  15
ENDBRANCH   1  14
TORSDOF 7
ENDMDL
MODEL 3
REMARK VINA RESULT:      -6.7      2.762      4.280
REMARK  Name = 
REMARK  8 active torsions:
REMARK  status: ('A' for Active; 'I' for Inactive)
REMARK    1  A    between atoms: C_1  and  O_2
REMARK    2  A    between atoms: O_2  and  C_3
REMARK    3  A    between atoms: C_7  and  O_8
REMARK    4  A    between atoms: O_8  and  C_9
REMARK    5  A    between atoms: C_9  and  C_10
REMARK    6  A    between atoms: C_10  and  S_11
REMARK    7  A    between atoms: S_11  and  C_12
REMARK    8  A    between atoms: C_17  and  N_18
REMARK                            x       y       z     vdW  Elec       q    Type
REMARK                         _______ _______ _______ _____ _____    ______ ____
ROOT
ATOM      1  S   UNL     1       6.180   4.392  16.712  0.00  0.00    +0.000 S 
ENDROOT
BRANCH   1   2
ATOM      2  C   UNL     1       6.642   4.442  15.001  0.00  0.00    +0.000 A 
ATOM      3  N   UNL     1       5.992   3.601  14.184  0.00  0.00    +0.000 NA
ATOM      4  C   UNL     1       6.349   3.628  12.900  0.00  0.00    +0.000 A 
ATOM      5  N   UNL     1       5.720   2.714  12.056  0.00  0.00    +0.000 N 
ATOM      6  C   UNL     1       7.327   4.466  12.419  0.00  0.00    +0.000 A 
ATOM      7  C   UNL     1       7.914   5.311  13.331  0.00  0.00    +0.000 A 
ATOM      8  N   UNL     1       7.588   5.315  14.624  0.00  0.00    +0.000 NA
ATOM      9  H   UNL     1       5.010   2.228  12.602  0.00  0.00    +0.000 HD
ATOM     10  H   UNL     1       5.331   3.150  11.230  0.00  0.00    +0.000 HD
BRANCH   7  11
ATOM     11  N   UNL     1       8.940   6.173  12.947  0.00  0.00    +0.000 N 
ATOM     12  H   UNL     1       9.066   6.205  11.942  0.00  0.00    +0.000 HD
ATOM     13  H   UNL     1       8.743   7.091  13.337  0.00  0.00    +0.000 HD
ENDBRANCH   7  11
ENDBRANCH   1   2
BRANCH   1  14
ATOM     14  C   UNL     1       6.031   6.179  17.040  0.00  0.00    +0.000 C 
BRANCH  14  15
ATOM     15  C   UNL     1       4.657   6.648  16.577  0.00  0.00    +0.000 C 
BRANCH  15  16
ATOM     16  O   UNL     1       3.911   7.126  17.703  0.00  0.00    +0.000 OA
BRANCH  16  21
ATOM     17  C   UNL     1       1.785   4.168  18.458  0.00  0.00    +0.000 A 
ATOM     18  C   UNL     1       1.466   4.475  19.782  0.00  0.00    +0.000 A 
ATOM     19  C   UNL     1       1.965   5.633  20.379  0.00  0.00    +0.000 A 
ATOM     20  C   UNL     1       2.782   6.494  19.649  0.00  0.00    +0.000 A 
ATOM     21  C   UNL     1       3.107   6.202  18.323  0.00  0.00    +0.000 A 
ATOM     22  C   UNL     1       2.609   5.033  17.735  0.00  0.00    +0.000 A 
BRANCH  17  24
ATOM     23  C   UNL     1       0.660   2.129  18.943  0.00  0.00    +0.000 C 
ATOM     24  O   UNL     1       1.232   3.010  17.983  0.00  0.00    +0.000 OA
ENDBRANCH  17  24
ENDBRANCH  16  21
ENDBRANCH  15  16
ENDBRANCH  14  15
ENDBRANCH   1  14
TORSDOF 7
ENDMDL
MODEL 4
REMARK VINA RESULT:      -6.7      1.210      1.485
REMARK  Name = 
REMARK  8 active torsions:
REMARK  status: ('A' for Active; 'I' for Inactive)
REMARK    1  A    between atoms: C_1  and  O_2
REMARK    2  A    between atoms: O_2  and  C_3
REMARK    3  A    between atoms: C_7  and  O_8
REMARK    4  A    between atoms: O_8  and  C_9
REMARK    5  A    between atoms: C_9  and  C_10
REMARK    6  A    between atoms: C_10  and  S_11
REMARK    7  A    between atoms: S_11  and  C_12
REMARK    8  A    between atoms: C_17  and  N_18
REMARK                            x       y       z     vdW  Elec       q    Type
REMARK                         _______ _______ _______ _____ _____    ______ ____
ROOT
ATOM      1  S   UNL     1       6.517   4.235  15.984  0.00  0.00    +0.000 S 
ENDROOT
BRANCH   1   2
ATOM      2  C   UNL     1       7.194   5.383  17.153  0.00  0.00    +0.000 A 
ATOM      3  N   UNL     1       7.571   4.875  18.336  0.00  0.00    +0.000 NA
ATOM      4  C   UNL     1       8.068   5.740  19.221  0.00  0.00    +0.000 A 
ATOM      5  N   UNL     1       8.405   5.229  20.474  0.00  0.00    +0.000 N 
ATOM      6  C   UNL     1       8.196   7.083  18.955  0.00  0.00    +0.000 A 
ATOM      7  C   UNL     1       7.809   7.500  17.704  0.00  0.00    +0.000 A 
ATOM      8  N   UNL     1       7.306   6.669  16.790  0.00  0.00    +0.000 NA
ATOM      9  H   UNL     1       8.273   4.220  20.441  0.00  0.00    +0.000 HD
ATOM     10  H   UNL     1       9.343   5.481  20.757  0.00  0.00    +0.000 HD
BRANCH   7  11
ATOM     11  N   UNL     1       7.868   8.847  17.352  0.00  0.00    +0.000 N 
ATOM     12  H   UNL     1       7.002   9.183  16.947  0.00  0.00    +0.000 HD
ATOM     13  H   UNL     1       8.135   9.378  18.178  0.00  0.00    +0.000 HD
ENDBRANCH   7  11
ENDBRANCH   1   2
BRANCH   1  14
ATOM     14  C   UNL     1       4.740   4.517  16.277  0.00  0.00    +0.000 C 
BRANCH  14  15
ATOM     15  C   UNL     1       4.162   3.298  16.984  0.00  0.00    +0.000 C 
BRANCH  15  16
ATOM     16  O   UNL     1       2.772   3.515  17.254  0.00  0.00    +0.000 OA
BRANCH  16  21
ATOM     17  C   UNL     1       2.189   6.489  19.411  0.00  0.00    +0.000 A 
ATOM     18  C   UNL     1       1.907   5.826  20.606  0.00  0.00    +0.000 A 
ATOM     19  C   UNL     1       1.911   4.432  20.659  0.00  0.00    +0.000 A 
ATOM     20  C   UNL     1       2.204   3.694  19.513  0.00  0.00    +0.000 A 
ATOM     21  C   UNL     1       2.491   4.343  18.311  0.00  0.00    +0.000 A 
ATOM     22  C   UNL     1       2.476   5.742  18.266  0.00  0.00    +0.000 A 
BRANCH  17  24
ATOM     23  C   UNL     1       1.932   8.561  18.269  0.00  0.00    +0.000 C 
ATOM     24  O   UNL     1       2.160   7.856  19.485  0.00  0.00    +0.000 OA
ENDBRANCH  17  24
ENDBRANCH  16  21
ENDBRANCH  15  16
ENDBRANCH  14  15
ENDBRANCH   1  14
TORSDOF 7
ENDMDL
MODEL 5
REMARK VINA RESULT:      -6.6      0.993      1.252
REMARK  Name = 
REMARK  8 active torsions:
REMARK  status: ('A' for Active; 'I' for Inactive)
REMARK    1  A    between atoms: C_1  and  O_2
REMARK    2  A    between atoms: O_2  and  C_3
REMARK    3  A    between atoms: C_7  and  O_8
REMARK    4  A    between atoms: O_8  and  C_9
REMARK    5  A    between atoms: C_9  and  C_10
REMARK    6  A    between atoms: C_10  and  S_11
REMARK    7  A    between atoms: S_11  and  C_12
REMARK    8  A    between atoms: C_17  and  N_18
REMARK                            x       y       z     vdW  Elec       q    Type
REMARK                         _______ _______ _______ _____ _____    ______ ____
ROOT
ATOM      1  S   UNL     1       6.820   4.081  15.819  0.00  0.00    +0.000 S 
ENDROOT
BRANCH   1   2
ATOM      2  C   UNL     1       7.329   5.284  17.018  0.00  0.00    +0.000 A 
ATOM      3  N   UNL     1       7.695   4.810  18.217  0.00  0.00    +0.000 NA
ATOM      4  C   UNL     1       8.064   5.716  19.124  0.00  0.00    +0.000 A 
ATOM      5  N   UNL     1       8.387   5.235  20.392  0.00  0.00    +0.000 N 
ATOM      6  C   UNL     1       8.077   7.066  18.863  0.00  0.00    +0.000 A 
ATOM      7  C   UNL     1       7.713   7.448  17.594  0.00  0.00    +0.000 A 
ATOM      8  N   UNL     1       7.335   6.576  16.659  0.00  0.00    +0.000 NA
ATOM      9  H   UNL     1       8.353   4.218  20.355  0.00  0.00    +0.000 HD
ATOM     10  H   UNL     1       9.283   5.573  20.720  0.00  0.00    +0.000 HD
BRANCH   7  11
ATOM     11  N   UNL     1       7.661   8.796  17.243  0.00  0.00    +0.000 N 
ATOM     12  H   UNL     1       8.334   9.357  17.751  0.00  0.00    +0.000 HD
ATOM     13  H   UNL     1       7.788   8.865  16.236  0.00  0.00    +0.000 HD
ENDBRANCH   7  11
ENDBRANCH   1   2
BRANCH   1  14
ATOM     14  C   UNL     1       5.136   4.689  15.474  0.00  0.00    +0.000 C 
BRANCH  14  15
ATOM     15  C   UNL     1       4.255   4.397  16.682  0.00  0.00    +0.000 C 
BRANCH  15  16
ATOM     16  O   UNL     1       3.851   5.630  17.289  0.00  0.00    +0.000 OA
BRANCH  16  21
ATOM     17  C   UNL     1       1.834   6.349  20.331  0.00  0.00    +0.000 A 
ATOM     18  C   UNL     1       1.666   5.040  20.783  0.00  0.00    +0.000 A 
ATOM     19  C   UNL     1       2.213   3.971  20.071  0.00  0.00    +0.000 A 
ATOM     20  C   UNL     1       2.937   4.211  18.904  0.00  0.00    +0.000 A 
ATOM     21  C   UNL     1       3.115   5.516  18.442  0.00  0.00    +0.000 A 
ATOM     22  C   UNL     1       2.556   6.581  19.158  0.00  0.00    +0.000 A 
BRANCH  17  24
ATOM     23  C   UNL     1       1.329   8.653  20.645  0.00  0.00    +0.000 C 
ATOM     24  O   UNL     1       1.258   7.311  21.116  0.00  0.00    +0.000 OA
ENDBRANCH  17  24
ENDBRANCH  16  21
ENDBRANCH  15  16
ENDBRANCH  14  15
ENDBRANCH   1  14
TORSDOF 7
ENDMDL
MODEL 6
REMARK VINA RESULT:      -6.6      2.416      3.975
REMARK  Name = 
REMARK  8 active torsions:
REMARK  status: ('A' for Active; 'I' for Inactive)
REMARK    1  A    between atoms: C_1  and  O_2
REMARK    2  A    between atoms: O_2  and  C_3
REMARK    3  A    between atoms: C_7  and  O_8
REMARK    4  A    between atoms: O_8  and  C_9
REMARK    5  A    between atoms: C_9  and  C_10
REMARK    6  A    between atoms: C_10  and  S_11
REMARK    7  A    between atoms: S_11  and  C_12
REMARK    8  A    between atoms: C_17  and  N_18
REMARK                            x       y       z     vdW  Elec       q    Type
REMARK                         _______ _______ _______ _____ _____    ______ ____
ROOT
ATOM      1  S   UNL     1       3.636   3.563  18.124  0.00  0.00    +0.000 S 
ENDROOT
BRANCH   1   2
ATOM      2  C   UNL     1       5.231   4.304  17.901  0.00  0.00    +0.000 A 
ATOM      3  N   UNL     1       5.918   4.583  19.019  0.00  0.00    +0.000 NA
ATOM      4  C   UNL     1       7.112   5.154  18.852  0.00  0.00    +0.000 A 
ATOM      5  N   UNL     1       7.804   5.502  20.011  0.00  0.00    +0.000 N 
ATOM      6  C   UNL     1       7.629   5.446  17.612  0.00  0.00    +0.000 A 
ATOM      7  C   UNL     1       6.860   5.093  16.529  0.00  0.00    +0.000 A 
ATOM      8  N   UNL     1       5.661   4.524  16.650  0.00  0.00    +0.000 NA
ATOM      9  H   UNL     1       7.268   5.162  20.806  0.00  0.00    +0.000 HD
ATOM     10  H   UNL     1       8.755   5.153  20.016  0.00  0.00    +0.000 HD
BRANCH   7  11
ATOM     11  N   UNL     1       7.282   5.380  15.232  0.00  0.00    +0.000 N 
ATOM     12  H   UNL     1       8.227   5.746  15.202  0.00  0.00    +0.000 HD
ATOM     13  H   UNL     1       7.181   4.536  14.673  0.00  0.00    +0.000 HD
ENDBRANCH   7  11
ENDBRANCH   1   2
BRANCH   1  14
ATOM     14  C   UNL     1       3.324   4.026  19.859  0.00  0.00    +0.000 C 
BRANCH  14  15
ATOM     15  C   UNL     1       2.348   5.196  19.884  0.00  0.00    +0.000 C 
BRANCH  15  16
ATOM     16  O   UNL     1       3.045   6.408  19.569  0.00  0.00    +0.000 OA
BRANCH  16  21
ATOM     17  C   UNL     1       0.776   9.267  20.286  0.00  0.00    +0.000 A 
ATOM     18  C   UNL     1       0.733   9.823  19.007  0.00  0.00    +0.000 A 
ATOM     19  C   UNL     1       1.453   9.246  17.960  0.00  0.00    +0.000 A 
ATOM     20  C   UNL     1       2.217   8.103  18.191  0.00  0.00    +0.000 A 
ATOM     21  C   UNL     1       2.268   7.534  19.464  0.00  0.00    +0.000 A 
ATOM     22  C   UNL     1       1.548   8.125  20.510  0.00  0.00    +0.000 A 
BRANCH  17  24
ATOM     23  C   UNL     1      -0.328   9.179  22.392  0.00  0.00    +0.000 C 
ATOM     24  O   UNL     1       0.024   9.918  21.227  0.00  0.00    +0.000 OA
ENDBRANCH  17  24
ENDBRANCH  16  21
ENDBRANCH  15  16
ENDBRANCH  14  15
ENDBRANCH   1  14
TORSDOF 7
ENDMDL
MODEL 7
REMARK VINA RESULT:      -6.6      2.832      4.136
REMARK  Name = 
REMARK  8 active torsions:
REMARK  status: ('A' for Active; 'I' for Inactive)
REMARK    1  A    between atoms: C_1  and  O_2
REMARK    2  A    between atoms: O_2  and  C_3
REMARK    3  A    between atoms: C_7  and  O_8
REMARK    4  A    between atoms: O_8  and  C_9
REMARK    5  A    between atoms: C_9  and  C_10
REMARK    6  A    between atoms: C_10  and  S_11
REMARK    7  A    between atoms: S_11  and  C_12
REMARK    8  A    between atoms: C_17  and  N_18
REMARK                            x       y       z     vdW  Elec       q    Type
REMARK                         _______ _______ _______ _____ _____    ______ ____
ROOT
ATOM      1  S   UNL     1       6.089   4.419  16.448  0.00  0.00    +0.000 S 
ENDROOT
BRANCH   1   2
ATOM      2  C   UNL     1       6.564   4.411  14.740  0.00  0.00    +0.000 A 
ATOM      3  N   UNL     1       5.976   3.489  13.963  0.00  0.00    +0.000 NA
ATOM      4  C   UNL     1       6.344   3.474  12.681  0.00  0.00    +0.000 A 
ATOM      5  N   UNL     1       5.782   2.479  11.882  0.00  0.00    +0.000 N 
ATOM      6  C   UNL     1       7.272   4.347  12.164  0.00  0.00    +0.000 A 
ATOM      7  C   UNL     1       7.795   5.273  13.035  0.00  0.00    +0.000 A 
ATOM      8  N   UNL     1       7.457   5.321  14.324  0.00  0.00    +0.000 NA
ATOM      9  H   UNL     1       5.099   1.978  12.446  0.00  0.00    +0.000 HD
ATOM     10  H   UNL     1       5.375   2.848  11.031  0.00  0.00    +0.000 HD
BRANCH   7  11
ATOM     11  N   UNL     1       8.768   6.177  12.614  0.00  0.00    +0.000 N 
ATOM     12  H   UNL     1       8.374   6.986  12.150  0.00  0.00    +0.000 HD
ATOM     13  H   UNL     1       9.330   6.435  13.422  0.00  0.00    +0.000 HD
ENDBRANCH   7  11
ENDBRANCH   1   2
BRANCH   1  14
ATOM     14  C   UNL     1       6.012   6.217  16.734  0.00  0.00    +0.000 C 
BRANCH  14  15
ATOM     15  C   UNL     1       4.551   6.627  16.878  0.00  0.00    +0.000 C 
BRANCH  15  16
ATOM     16  O   UNL     1       4.210   6.700  18.267  0.00  0.00    +0.000 OA
BRANCH  16  21
ATOM     17  C   UNL     1       2.377   4.263  20.398  0.00  0.00    +0.000 A 
ATOM     18  C   UNL     1       1.545   3.717  19.420  0.00  0.00    +0.000 A 
ATOM     19  C   UNL     1       1.610   4.172  18.102  0.00  0.00    +0.000 A 
ATOM     20  C   UNL     1       2.515   5.175  17.757  0.00  0.00    +0.000 A 
ATOM     21  C   UNL     1       3.356   5.728  18.725  0.00  0.00    +0.000 A 
ATOM     22  C   UNL     1       3.277   5.271  20.045  0.00  0.00    +0.000 A 
BRANCH  17  24
ATOM     23  C   UNL     1       1.364   2.604  21.770  0.00  0.00    +0.000 C 
ATOM     24  O   UNL     1       2.225   3.732  21.650  0.00  0.00    +0.000 OA
ENDBRANCH  17  24
ENDBRANCH  16  21
ENDBRANCH  15  16
ENDBRANCH  14  15
ENDBRANCH   1  14
TORSDOF 7
ENDMDL
MODEL 8
REMARK VINA RESULT:      -6.5      2.741      4.147
REMARK  Name = 
REMARK  8 active torsions:
REMARK  status: ('A' for Active; 'I' for Inactive)
REMARK    1  A    between atoms: C_1  and  O_2
REMARK    2  A    between atoms: O_2  and  C_3
REMARK    3  A    between atoms: C_7  and  O_8
REMARK    4  A    between atoms: O_8  and  C_9
REMARK    5  A    between atoms: C_9  and  C_10
REMARK    6  A    between atoms: C_10  and  S_11
REMARK    7  A    between atoms: S_11  and  C_12
REMARK    8  A    between atoms: C_17  and  N_18
REMARK                            x       y       z     vdW  Elec       q    Type
REMARK                         _______ _______ _______ _____ _____    ______ ____
ROOT
ATOM      1  S   UNL     1       6.034   4.350  16.702  0.00  0.00    +0.000 S 
ENDROOT
BRANCH   1   2
ATOM      2  C   UNL     1       6.499   4.391  14.992  0.00  0.00    +0.000 A 
ATOM      3  N   UNL     1       7.521   5.198  14.673  0.00  0.00    +0.000 NA
ATOM      4  C   UNL     1       7.863   5.240  13.385  0.00  0.00    +0.000 A 
ATOM      5  N   UNL     1       8.884   6.123  13.037  0.00  0.00    +0.000 N 
ATOM      6  C   UNL     1       7.216   4.503  12.421  0.00  0.00    +0.000 A 
ATOM      7  C   UNL     1       6.201   3.684  12.853  0.00  0.00    +0.000 A 
ATOM      8  N   UNL     1       5.826   3.613  14.131  0.00  0.00    +0.000 NA
ATOM      9  H   UNL     1       9.247   6.530  13.897  0.00  0.00    +0.000 HD
ATOM     10  H   UNL     1       9.612   5.680  12.490  0.00  0.00    +0.000 HD
BRANCH   7  11
ATOM     11  N   UNL     1       5.462   2.925  11.948  0.00  0.00    +0.000 N 
ATOM     12  H   UNL     1       5.894   2.031  11.746  0.00  0.00    +0.000 HD
ATOM     13  H   UNL     1       4.520   2.820  12.318  0.00  0.00    +0.000 HD
ENDBRANCH   7  11
ENDBRANCH   1   2
BRANCH   1  14
ATOM     14  C   UNL     1       5.998   6.138  17.051  0.00  0.00    +0.000 C 
BRANCH  14  15
ATOM     15  C   UNL     1       4.589   6.658  16.799  0.00  0.00    +0.000 C 
BRANCH  15  16
ATOM     16  O   UNL     1       3.951   6.938  18.051  0.00  0.00    +0.000 OA
BRANCH  16  21
ATOM     17  C   UNL     1       2.244   4.501  20.284  0.00  0.00    +0.000 A 
ATOM     18  C   UNL     1       1.448   3.867  19.330  0.00  0.00    +0.000 A 
ATOM     19  C   UNL     1       1.494   4.266  17.993  0.00  0.00    +0.000 A 
ATOM     20  C   UNL     1       2.345   5.301  17.606  0.00  0.00    +0.000 A 
ATOM     21  C   UNL     1       3.149   5.942  18.550  0.00  0.00    +0.000 A 
ATOM     22  C   UNL     1       3.090   5.540  19.889  0.00  0.00    +0.000 A 
BRANCH  17  24
ATOM     23  C   UNL     1       2.378   2.632  21.751  0.00  0.00    +0.000 C 
ATOM     24  O   UNL     1       2.116   4.018  21.559  0.00  0.00    +0.000 OA
ENDBRANCH  17  24
ENDBRANCH  16  21
ENDBRANCH  15  16
ENDBRANCH  14  15
ENDBRANCH   1  14
TORSDOF 7
ENDMDL
MODEL 9
REMARK VINA RESULT:      -6.4      2.480      4.297
REMARK  Name = 
REMARK  8 active torsions:
REMARK  status: ('A' for Active; 'I' for Inactive)
REMARK    1  A    between atoms: C_1  and  O_2
REMARK    2  A    between atoms: O_2  and  C_3
REMARK    3  A    between atoms: C_7  and  O_8
REMARK    4  A    between atoms: O_8  and  C_9
REMARK    5  A    between atoms: C_9  and  C_10
REMARK    6  A    between atoms: C_10  and  S_11
REMARK    7  A    between atoms: S_11  and  C_12
REMARK    8  A    between atoms: C_17  and  N_18
REMARK                            x       y       z     vdW  Elec       q    Type
REMARK                         _______ _______ _______ _____ _____    ______ ____
ROOT
ATOM      1  S   UNL     1       3.010   3.618  17.443  0.00  0.00    +0.000 S 
ENDROOT
BRANCH   1   2
ATOM      2  C   UNL     1       4.697   4.045  17.103  0.00  0.00    +0.000 A 
ATOM      3  N   UNL     1       5.056   4.069  15.812  0.00  0.00    +0.000 NA
ATOM      4  C   UNL     1       6.329   4.376  15.557  0.00  0.00    +0.000 A 
ATOM      5  N   UNL     1       6.724   4.344  14.220  0.00  0.00    +0.000 N 
ATOM      6  C   UNL     1       7.238   4.657  16.549  0.00  0.00    +0.000 A 
ATOM      7  C   UNL     1       6.765   4.635  17.839  0.00  0.00    +0.000 A 
ATOM      8  N   UNL     1       5.501   4.331  18.138  0.00  0.00    +0.000 NA
ATOM      9  H   UNL     1       5.896   4.159  13.657  0.00  0.00    +0.000 HD
ATOM     10  H   UNL     1       7.196   5.192  13.933  0.00  0.00    +0.000 HD
BRANCH   7  11
ATOM     11  N   UNL     1       7.617   4.871  18.916  0.00  0.00    +0.000 N 
ATOM     12  H   UNL     1       8.323   4.151  19.019  0.00  0.00    +0.000 HD
ATOM     13  H   UNL     1       8.027   5.795  18.797  0.00  0.00    +0.000 HD
ENDBRANCH   7  11
ENDBRANCH   1   2
BRANCH   1  14
ATOM     14  C   UNL     1       3.079   3.528  19.262  0.00  0.00    +0.000 C 
BRANCH  14  15
ATOM     15  C   UNL     1       2.237   4.658  19.840  0.00  0.00    +0.000 C 
BRANCH  15  16
ATOM     16  O   UNL     1       3.043   5.834  19.978  0.00  0.00    +0.000 OA
BRANCH  16  21
ATOM     17  C   UNL     1       1.139   9.029  19.979  0.00  0.00    +0.000 A 
ATOM     18  C   UNL     1       1.298   9.366  18.634  0.00  0.00    +0.000 A 
ATOM     19  C   UNL     1       2.029   8.539  17.780  0.00  0.00    +0.000 A 
ATOM     20  C   UNL     1       2.599   7.365  18.270  0.00  0.00    +0.000 A 
ATOM     21  C   UNL     1       2.445   7.014  19.612  0.00  0.00    +0.000 A 
ATOM     22  C   UNL     1       1.718   7.854  20.463  0.00  0.00    +0.000 A 
BRANCH  17  24
ATOM     23  C   UNL     1      -0.266   9.399  21.863  0.00  0.00    +0.000 C 
ATOM     24  O   UNL     1       0.398   9.915  20.714  0.00  0.00    +0.000 OA
ENDBRANCH  17  24
ENDBRANCH  16  21
ENDBRANCH  15  16
ENDBRANCH  14  15
ENDBRANCH   1  14
TORSDOF 7
ENDMDL
