MODEL 1
REMARK VINA RESULT:      -6.8      0.000      0.000
REMARK  Name = 
REMARK  10 active torsions:
REMARK  status: ('A' for Active; 'I' for Inactive)
REMARK    1  A    between atoms: C_2  and  C_3
REMARK    2  A    between atoms: C_3  and  N_4
REMARK    3  A    between atoms: N_4  and  C_5
REMARK    4  A    between atoms: C_5  and  C_6
REMARK    5  A    between atoms: C_6  and  C_7
REMARK    6  A    between atoms: C_11  and  O_12
REMARK    7  A    between atoms: O_12  and  C_13
REMARK    8  A    between atoms: N_15  and  C_16
REMARK    9  A    between atoms: N_15  and  C_17
REMARK   10  A    between atoms: C_17  and  C_18
REMARK                            x       y       z     vdW  Elec       q    Type
REMARK                         _______ _______ _______ _____ _____    ______ ____
ROOT
ATOM      1  C   UNL     1       6.163   5.476  16.470  0.00  0.00    +0.000 A 
ATOM      2  C   UNL     1       7.187   6.265  17.009  0.00  0.00    +0.000 A 
ATOM      3  C   UNL     1       7.508   6.169  18.360  0.00  0.00    +0.000 A 
ATOM      4  C   UNL     1       6.785   5.302  19.190  0.00  0.00    +0.000 A 
ATOM      5  C   UNL     1       5.728   4.560  18.670  0.00  0.00    +0.000 A 
ATOM      6  C   UNL     1       5.423   4.646  17.319  0.00  0.00    +0.000 A 
ENDROOT
BRANCH   1   7
ATOM      7  C   UNL     1       5.776   5.438  15.014  0.00  0.00    +0.000 C 
BRANCH   7   8
ATOM      8  C   UNL     1       6.800   4.720  14.162  0.00  0.00    +0.000 C 
BRANCH   8   9
ATOM      9  N   UNL     1       6.287   3.437  13.711  0.00  0.00    +0.000 NA
ATOM     10  H   UNL     1       6.838   2.671  14.101  0.00  0.00    +0.000 HD
BRANCH   9  11
ATOM     11  C   UNL     1       6.403   3.418  12.271  0.00  0.00    +0.000 C 
BRANCH  11  13
ATOM     12  C   UNL     1       3.820   3.148  11.165  0.00  0.00    +0.000 C 
ATOM     13  C   UNL     1       5.013   3.273  11.676  0.00  0.00    +0.000 C 
ENDBRANCH  11  13
ENDBRANCH   9  11
ENDBRANCH   8   9
ENDBRANCH   7   8
ENDBRANCH   1   7
BRANCH   5  14
ATOM     14  O   UNL     1       5.046   3.702  19.568  0.00  0.00    +0.000 OA
BRANCH  14  15
ATOM     15  C   UNL     1       3.655   3.743  19.720  0.00  0.00    +0.000 C 
ATOM     16  O   UNL     1       3.050   4.584  20.391  0.00  0.00    +0.000 OA
ATOM     17  N   UNL     1       2.976   2.782  18.997  0.00  0.00    +0.000 N 
ATOM     18  C   UNL     1       3.604   1.558  18.501  0.00  0.00    +0.000 C 
BRANCH  17  19
ATOM     19  C   UNL     1       1.568   3.027  18.709  0.00  0.00    +0.000 C 
ATOM     20  C   UNL     1       1.285   4.053  17.622  0.00  0.00    +0.000 C 
ENDBRANCH  17  19
ENDBRANCH  14  15
ENDBRANCH   5  14
TORSDOF 8
ENDMDL
MODEL 2
REMARK VINA RESULT:      -6.6      1.760      2.105
REMARK  Name = 
REMARK  10 active torsions:
REMARK  status: ('A' for Active; 'I' for Inactive)
REMARK    1  A    between atoms: C_2  and  C_3
REMARK    2  A    between atoms: C_3  and  N_4
REMARK    3  A    between atoms: N_4  and  C_5
REMARK    4  A    between atoms: C_5  and  C_6
REMARK    5  A    between atoms: C_6  and  C_7
REMARK    6  A    between atoms: C_11  and  O_12
REMARK    7  A    between atoms: O_12  and  C_13
REMARK    8  A    between atoms: N_15  and  C_16
REMARK    9  A    between atoms: N_15  and  C_17
REMARK   10  A    between atoms: C_17  and  C_18
REMARK                            x       y       z     vdW  Elec       q    Type
REMARK                         _______ _______ _______ _____ _____    ______ ____
ROOT
ATOM      1  C   UNL     1       5.243   5.235  15.557  0.00  0.00    +0.000 A 
ATOM      2  C   UNL     1       4.934   6.380  16.303  0.00  0.00    +0.000 A 
ATOM      3  C   UNL     1       4.336   6.261  17.554  0.00  0.00    +0.000 A 
ATOM      4  C   UNL     1       4.014   4.994  18.057  0.00  0.00    +0.000 A 
ATOM      5  C   UNL     1       4.265   3.857  17.293  0.00  0.00    +0.000 A 
ATOM      6  C   UNL     1       4.878   3.979  16.054  0.00  0.00    +0.000 A 
ENDROOT
BRANCH   1   7
ATOM      7  C   UNL     1       5.954   5.235  14.229  0.00  0.00    +0.000 C 
BRANCH   7   8
ATOM      8  C   UNL     1       6.446   3.858  13.838  0.00  0.00    +0.000 C 
BRANCH   8   9
ATOM      9  N   UNL     1       6.544   3.736  12.392  0.00  0.00    +0.000 NA
ATOM     10  H   UNL     1       6.203   4.584  11.936  0.00  0.00    +0.000 HD
BRANCH   9  11
ATOM     11  C   UNL     1       5.710   2.623  12.005  0.00  0.00    +0.000 C 
BRANCH  11  13
ATOM     12  C   UNL     1       3.428   3.627  10.681  0.00  0.00    +0.000 C 
ATOM     13  C   UNL     1       4.482   3.163  11.292  0.00  0.00    +0.000 C 
ENDBRANCH  11  13
ENDBRANCH   9  11
ENDBRANCH   8   9
ENDBRANCH   7   8
ENDBRANCH   1   7
BRANCH   5  14
ATOM     14  O   UNL     1       3.917   2.610  17.868  0.00  0.00    +0.000 OA
BRANCH  14  15
ATOM     15  C   UNL     1       3.824   2.433  19.254  0.00  0.00    +0.000 C 
ATOM     16  O   UNL     1       4.792   2.351  20.015  0.00  0.00    +0.000 OA
ATOM     17  N   UNL     1       2.530   2.415  19.737  0.00  0.00    +0.000 N 
ATOM     18  C   UNL     1       1.365   2.131  18.901  0.00  0.00    +0.000 C 
BRANCH  17  19
ATOM     19  C   UNL     1       2.336   2.712  21.152  0.00  0.00    +0.000 C 
ATOM     20  C   UNL     1       2.201   4.186  21.504  0.00  0.00    +0.000 C 
ENDBRANCH  17  19
ENDBRANCH  14  15
ENDBRANCH   5  14
TORSDOF 8
ENDMDL
MODEL 3
REMARK VINA RESULT:      -6.3      1.768      2.245
REMARK  Name = 
REMARK  10 active torsions:
REMARK  status: ('A' for Active; 'I' for Inactive)
REMARK    1  A    between atoms: C_2  and  C_3
REMARK    2  A    between atoms: C_3  and  N_4
REMARK    3  A    between atoms: N_4  and  C_5
REMARK    4  A    between atoms: C_5  and  C_6
REMARK    5  A    between atoms: C_6  and  C_7
REMARK    6  A    between atoms: C_11  and  O_12
REMARK    7  A    between atoms: O_12  and  C_13
REMARK    8  A    between atoms: N_15  and  C_16
REMARK    9  A    between atoms: N_15  and  C_17
REMARK   10  A    between atoms: C_17  and  C_18
REMARK                            x       y       z     vdW  Elec       q    Type
REMARK                         _______ _______ _______ _____ _____    ______ ____
ROOT
ATOM      1  C   UNL     1       5.843   4.996  15.276  0.00  0.00    +0.000 A 
ATOM      2  C   UNL     1       5.694   6.209  15.961  0.00  0.00    +0.000 A 
ATOM      3  C   UNL     1       4.937   6.265  17.128  0.00  0.00    +0.000 A 
ATOM      4  C   UNL     1       4.298   5.112  17.603  0.00  0.00    +0.000 A 
ATOM      5  C   UNL     1       4.395   3.919  16.892  0.00  0.00    +0.000 A 
ATOM      6  C   UNL     1       5.165   3.863  15.739  0.00  0.00    +0.000 A 
ENDROOT
BRANCH   1   7
ATOM      7  C   UNL     1       6.694   4.795  14.049  0.00  0.00    +0.000 C 
BRANCH   7   8
ATOM      8  C   UNL     1       6.214   3.642  13.194  0.00  0.00    +0.000 C 
BRANCH   8   9
ATOM      9  N   UNL     1       4.925   3.947  12.594  0.00  0.00    +0.000 NA
ATOM     10  H   UNL     1       4.177   3.855  13.282  0.00  0.00    +0.000 HD
BRANCH   9  11
ATOM     11  C   UNL     1       4.716   2.987  11.536  0.00  0.00    +0.000 C 
BRANCH  11  13
ATOM     12  C   UNL     1       2.930   4.101   9.653  0.00  0.00    +0.000 C 
ATOM     13  C   UNL     1       3.754   3.586  10.523  0.00  0.00    +0.000 C 
ENDBRANCH  11  13
ENDBRANCH   9  11
ENDBRANCH   8   9
ENDBRANCH   7   8
ENDBRANCH   1   7
BRANCH   5  14
ATOM     14  O   UNL     1       3.726   2.794  17.436  0.00  0.00    +0.000 OA
BRANCH  14  15
ATOM     15  C   UNL     1       2.580   2.926  18.229  0.00  0.00    +0.000 C 
ATOM     16  O   UNL     1       1.477   3.286  17.810  0.00  0.00    +0.000 OA
ATOM     17  N   UNL     1       2.759   2.558  19.549  0.00  0.00    +0.000 N 
ATOM     18  C   UNL     1       4.070   2.490  20.192  0.00  0.00    +0.000 C 
BRANCH  17  19
ATOM     19  C   UNL     1       1.570   2.208  20.316  0.00  0.00    +0.000 C 
ATOM     20  C   UNL     1       1.370   2.978  21.613  0.00  0.00    +0.000 C 
ENDBRANCH  17  19
ENDBRANCH  14  15
ENDBRANCH   5  14
TORSDOF 8
ENDMDL
MODEL 4
REMARK VINA RESULT:      -6.2      3.048      6.670
REMARK  Name = 
REMARK  10 active torsions:
REMARK  status: ('A' for Active; 'I' for Inactive)
REMARK    1  A    between atoms: C_2  and  C_3
REMARK    2  A    between atoms: C_3  and  N_4
REMARK    3  A    between atoms: N_4  and  C_5
REMARK    4  A    between atoms: C_5  and  C_6
REMARK    5  A    between atoms: C_6  and  C_7
REMARK    6  A    between atoms: C_11  and  O_12
REMARK    7  A    between atoms: O_12  and  C_13
REMARK    8  A    between atoms: N_15  and  C_16
REMARK    9  A    between atoms: N_15  and  C_17
REMARK   10  A    between atoms: C_17  and  C_18
REMARK                            x       y       z     vdW  Elec       q    Type
REMARK                         _______ _______ _______ _____ _____    ______ ____
ROOT
ATOM      1  C   UNL     1       2.680   5.307  18.548  0.00  0.00    +0.000 A 
ATOM      2  C   UNL     1       1.999   4.348  17.787  0.00  0.00    +0.000 A 
ATOM      3  C   UNL     1       2.702   3.501  16.935  0.00  0.00    +0.000 A 
ATOM      4  C   UNL     1       4.092   3.629  16.814  0.00  0.00    +0.000 A 
ATOM      5  C   UNL     1       4.765   4.620  17.524  0.00  0.00    +0.000 A 
ATOM      6  C   UNL     1       4.063   5.450  18.386  0.00  0.00    +0.000 A 
ENDROOT
BRANCH   1   7
ATOM      7  C   UNL     1       2.039   6.225  19.557  0.00  0.00    +0.000 C 
BRANCH   7   8
ATOM      8  C   UNL     1       1.831   5.555  20.898  0.00  0.00    +0.000 C 
BRANCH   8   9
ATOM      9  N   UNL     1       1.234   4.240  20.731  0.00  0.00    +0.000 NA
ATOM     10  H   UNL     1       0.244   4.260  20.976  0.00  0.00    +0.000 HD
BRANCH   9  11
ATOM     11  C   UNL     1       1.927   3.345  21.628  0.00  0.00    +0.000 C 
BRANCH  11  13
ATOM     12  C   UNL     1       4.094   2.182  20.242  0.00  0.00    +0.000 C 
ATOM     13  C   UNL     1       3.093   2.719  20.882  0.00  0.00    +0.000 C 
ENDBRANCH  11  13
ENDBRANCH   9  11
ENDBRANCH   8   9
ENDBRANCH   7   8
ENDBRANCH   1   7
BRANCH   5  14
ATOM     14  O   UNL     1       6.171   4.686  17.354  0.00  0.00    +0.000 OA
BRANCH  14  15
ATOM     15  C   UNL     1       6.801   5.822  16.833  0.00  0.00    +0.000 C 
ATOM     16  O   UNL     1       6.766   6.157  15.646  0.00  0.00    +0.000 OA
ATOM     17  N   UNL     1       7.440   6.600  17.778  0.00  0.00    +0.000 N 
ATOM     18  C   UNL     1       7.842   6.100  19.091  0.00  0.00    +0.000 C 
BRANCH  17  19
ATOM     19  C   UNL     1       7.701   7.994  17.437  0.00  0.00    +0.000 C 
ATOM     20  C   UNL     1       8.507   8.784  18.457  0.00  0.00    +0.000 C 
ENDBRANCH  17  19
ENDBRANCH  14  15
ENDBRANCH   5  14
TORSDOF 8
ENDMDL
MODEL 5
REMARK VINA RESULT:      -6.2      2.646      4.320
REMARK  Name = 
REMARK  10 active torsions:
REMARK  status: ('A' for Active; 'I' for Inactive)
REMARK    1  A    between atoms: C_2  and  C_3
REMARK    2  A    between atoms: C_3  and  N_4
REMARK    3  A    between atoms: N_4  and  C_5
REMARK    4  A    between atoms: C_5  and  C_6
REMARK    5  A    between atoms: C_6  and  C_7
REMARK    6  A    between atoms: C_11  and  O_12
REMARK    7  A    between atoms: O_12  and  C_13
REMARK    8  A    between atoms: N_15  and  C_16
REMARK    9  A    between atoms: N_15  and  C_17
REMARK   10  A    between atoms: C_17  and  C_18
REMARK                            x       y       z     vdW  Elec       q    Type
REMARK                         _______ _______ _______ _____ _____    ______ ____
ROOT
ATOM      1  C   UNL     1       4.585   5.200  16.697  0.00  0.00    +0.000 A 
ATOM      2  C   UNL     1       4.566   6.597  16.795  0.00  0.00    +0.000 A 
ATOM      3  C   UNL     1       3.547   7.236  17.497  0.00  0.00    +0.000 A 
ATOM      4  C   UNL     1       2.522   6.482  18.082  0.00  0.00    +0.000 A 
ATOM      5  C   UNL     1       2.505   5.097  17.936  0.00  0.00    +0.000 A 
ATOM      6  C   UNL     1       3.532   4.463  17.251  0.00  0.00    +0.000 A 
ENDROOT
BRANCH   1   7
ATOM      7  C   UNL     1       5.670   4.395  16.031  0.00  0.00    +0.000 C 
BRANCH   7   8
ATOM      8  C   UNL     1       7.027   5.059  16.132  0.00  0.00    +0.000 C 
BRANCH   8   9
ATOM      9  N   UNL     1       7.839   4.419  17.154  0.00  0.00    +0.000 NA
ATOM     10  H   UNL     1       7.555   3.447  17.283  0.00  0.00    +0.000 HD
BRANCH   9  11
ATOM     11  C   UNL     1       7.618   5.144  18.383  0.00  0.00    +0.000 C 
BRANCH  11  13
ATOM     12  C   UNL     1       7.914   7.904  17.862  0.00  0.00    +0.000 C 
ATOM     13  C   UNL     1       7.777   6.630  18.103  0.00  0.00    +0.000 C 
ENDBRANCH  11  13
ENDBRANCH   9  11
ENDBRANCH   8   9
ENDBRANCH   7   8
ENDBRANCH   1   7
BRANCH   5  14
ATOM     14  O   UNL     1       1.440   4.400  18.558  0.00  0.00    +0.000 OA
BRANCH  14  15
ATOM     15  C   UNL     1       1.652   3.233  19.301  0.00  0.00    +0.000 C 
ATOM     16  O   UNL     1       1.413   2.093  18.894  0.00  0.00    +0.000 OA
ATOM     17  N   UNL     1       2.220   3.446  20.542  0.00  0.00    +0.000 N 
ATOM     18  C   UNL     1       2.182   4.734  21.232  0.00  0.00    +0.000 C 
BRANCH  17  19
ATOM     19  C   UNL     1       2.901   2.321  21.172  0.00  0.00    +0.000 C 
ATOM     20  C   UNL     1       4.326   2.065  20.702  0.00  0.00    +0.000 C 
ENDBRANCH  17  19
ENDBRANCH  14  15
ENDBRANCH   5  14
TORSDOF 8
ENDMDL
MODEL 6
REMARK VINA RESULT:      -6.2      2.955      5.253
REMARK  Name = 
REMARK  10 active torsions:
REMARK  status: ('A' for Active; 'I' for Inactive)
REMARK    1  A    between atoms: C_2  and  C_3
REMARK    2  A    between atoms: C_3  and  N_4
REMARK    3  A    between atoms: N_4  and  C_5
REMARK    4  A    between atoms: C_5  and  C_6
REMARK    5  A    between atoms: C_6  and  C_7
REMARK    6  A    between atoms: C_11  and  O_12
REMARK    7  A    between atoms: O_12  and  C_13
REMARK    8  A    between atoms: N_15  and  C_16
REMARK    9  A    between atoms: N_15  and  C_17
REMARK   10  A    between atoms: C_17  and  C_18
REMARK                            x       y       z     vdW  Elec       q    Type
REMARK                         _______ _______ _______ _____ _____    ______ ____
ROOT
ATOM      1  C   UNL     1       6.401   6.130  16.995  0.00  0.00    +0.000 A 
ATOM      2  C   UNL     1       6.810   5.035  16.224  0.00  0.00    +0.000 A 
ATOM      3  C   UNL     1       5.910   4.018  15.917  0.00  0.00    +0.000 A 
ATOM      4  C   UNL     1       4.599   4.076  16.407  0.00  0.00    +0.000 A 
ATOM      5  C   UNL     1       4.205   5.133  17.224  0.00  0.00    +0.000 A 
ATOM      6  C   UNL     1       5.101   6.153  17.512  0.00  0.00    +0.000 A 
ENDROOT
BRANCH   1   7
ATOM      7  C   UNL     1       7.261   7.322  17.328  0.00  0.00    +0.000 C 
BRANCH   7   8
ATOM      8  C   UNL     1       8.134   7.084  18.541  0.00  0.00    +0.000 C 
BRANCH   8   9
ATOM      9  N   UNL     1       8.714   8.332  19.013  0.00  0.00    +0.000 NA
ATOM     10  H   UNL     1       8.363   8.563  19.943  0.00  0.00    +0.000 HD
BRANCH   9  11
ATOM     11  C   UNL     1       8.309   9.361  18.084  0.00  0.00    +0.000 C 
BRANCH  11  13
ATOM     12  C   UNL     1      10.061  11.558  18.362  0.00  0.00    +0.000 C 
ATOM     13  C   UNL     1       9.252  10.544  18.234  0.00  0.00    +0.000 C 
ENDBRANCH  11  13
ENDBRANCH   9  11
ENDBRANCH   8   9
ENDBRANCH   7   8
ENDBRANCH   1   7
BRANCH   5  14
ATOM     14  O   UNL     1       2.863   5.126  17.679  0.00  0.00    +0.000 OA
BRANCH  14  15
ATOM     15  C   UNL     1       2.538   4.910  19.023  0.00  0.00    +0.000 C 
ATOM     16  O   UNL     1       2.837   5.674  19.946  0.00  0.00    +0.000 OA
ATOM     17  N   UNL     1       1.784   3.775  19.249  0.00  0.00    +0.000 N 
ATOM     18  C   UNL     1       1.714   2.658  18.309  0.00  0.00    +0.000 C 
BRANCH  17  19
ATOM     19  C   UNL     1       1.012   3.716  20.485  0.00  0.00    +0.000 C 
ATOM     20  C   UNL     1       1.508   2.724  21.527  0.00  0.00    +0.000 C 
ENDBRANCH  17  19
ENDBRANCH  14  15
ENDBRANCH   5  14
TORSDOF 8
ENDMDL
MODEL 7
REMARK VINA RESULT:      -6.2      1.293      1.486
REMARK  Name = 
REMARK  10 active torsions:
REMARK  status: ('A' for Active; 'I' for Inactive)
REMARK    1  A    between atoms: C_2  and  C_3
REMARK    2  A    between atoms: C_3  and  N_4
REMARK    3  A    between atoms: N_4  and  C_5
REMARK    4  A    between atoms: C_5  and  C_6
REMARK    5  A    between atoms: C_6  and  C_7
REMARK    6  A    between atoms: C_11  and  O_12
REMARK    7  A    between atoms: O_12  and  C_13
REMARK    8  A    between atoms: N_15  and  C_16
REMARK    9  A    between atoms: N_15  and  C_17
REMARK   10  A    between atoms: C_17  and  C_18
REMARK                            x       y       z     vdW  Elec       q    Type
REMARK                         _______ _______ _______ _____ _____    ______ ____
ROOT
ATOM      1  C   UNL     1       6.083   4.920  16.095  0.00  0.00    +0.000 A 
ATOM      2  C   UNL     1       7.377   4.703  16.584  0.00  0.00    +0.000 A 
ATOM      3  C   UNL     1       7.625   4.751  17.953  0.00  0.00    +0.000 A 
ATOM      4  C   UNL     1       6.584   5.048  18.842  0.00  0.00    +0.000 A 
ATOM      5  C   UNL     1       5.309   5.324  18.355  0.00  0.00    +0.000 A 
ATOM      6  C   UNL     1       5.062   5.257  16.991  0.00  0.00    +0.000 A 
ENDROOT
BRANCH   1   7
ATOM      7  C   UNL     1       5.678   4.821  14.646  0.00  0.00    +0.000 C 
BRANCH   7   8
ATOM      8  C   UNL     1       6.136   3.528  14.006  0.00  0.00    +0.000 C 
BRANCH   8   9
ATOM      9  N   UNL     1       6.377   3.714  12.584  0.00  0.00    +0.000 NA
ATOM     10  H   UNL     1       5.964   4.589  12.261  0.00  0.00    +0.000 HD
BRANCH   9  11
ATOM     11  C   UNL     1       5.744   2.610  11.902  0.00  0.00    +0.000 C 
BRANCH  11  13
ATOM     12  C   UNL     1       3.366   3.545  10.698  0.00  0.00    +0.000 C 
ATOM     13  C   UNL     1       4.464   3.114  11.254  0.00  0.00    +0.000 C 
ENDBRANCH  11  13
ENDBRANCH   9  11
ENDBRANCH   8   9
ENDBRANCH   7   8
ENDBRANCH   1   7
BRANCH   5  14
ATOM     14  O   UNL     1       4.306   5.612  19.313  0.00  0.00    +0.000 OA
BRANCH  14  15
ATOM     15  C   UNL     1       2.944   5.443  19.034  0.00  0.00    +0.000 C 
ATOM     16  O   UNL     1       2.219   6.312  18.542  0.00  0.00    +0.000 OA
ATOM     17  N   UNL     1       2.464   4.176  19.301  0.00  0.00    +0.000 N 
ATOM     18  C   UNL     1       3.129   3.239  20.205  0.00  0.00    +0.000 C 
BRANCH  17  19
ATOM     19  C   UNL     1       1.239   3.765  18.625  0.00  0.00    +0.000 C 
ATOM     20  C   UNL     1       0.814   2.321  18.847  0.00  0.00    +0.000 C 
ENDBRANCH  17  19
ENDBRANCH  14  15
ENDBRANCH   5  14
TORSDOF 8
ENDMDL
MODEL 8
REMARK VINA RESULT:      -6.1      3.186      6.592
REMARK  Name = 
REMARK  10 active torsions:
REMARK  status: ('A' for Active; 'I' for Inactive)
REMARK    1  A    between atoms: C_2  and  C_3
REMARK    2  A    between atoms: C_3  and  N_4
REMARK    3  A    between atoms: N_4  and  C_5
REMARK    4  A    between atoms: C_5  and  C_6
REMARK    5  A    between atoms: C_6  and  C_7
REMARK    6  A    between atoms: C_11  and  O_12
REMARK    7  A    between atoms: O_12  and  C_13
REMARK    8  A    between atoms: N_15  and  C_16
REMARK    9  A    between atoms: N_15  and  C_17
REMARK   10  A    between atoms: C_17  and  C_18
REMARK                            x       y       z     vdW  Elec       q    Type
REMARK                         _______ _______ _______ _____ _____    ______ ____
ROOT
ATOM      1  C   UNL     1       2.909   5.103  17.791  0.00  0.00    +0.000 A 
ATOM      2  C   UNL     1       2.385   3.812  17.639  0.00  0.00    +0.000 A 
ATOM      3  C   UNL     1       3.228   2.743  17.349  0.00  0.00    +0.000 A 
ATOM      4  C   UNL     1       4.601   2.963  17.176  0.00  0.00    +0.000 A 
ATOM      5  C   UNL     1       5.117   4.254  17.267  0.00  0.00    +0.000 A 
ATOM      6  C   UNL     1       4.275   5.314  17.575  0.00  0.00    +0.000 A 
ENDROOT
BRANCH   1   7
ATOM      7  C   UNL     1       2.110   6.321  18.177  0.00  0.00    +0.000 C 
BRANCH   7   8
ATOM      8  C   UNL     1       2.598   6.947  19.465  0.00  0.00    +0.000 C 
BRANCH   8   9
ATOM      9  N   UNL     1       2.750   5.940  20.503  0.00  0.00    +0.000 NA
ATOM     10  H   UNL     1       3.350   5.180  20.181  0.00  0.00    +0.000 HD
BRANCH   9  11
ATOM     11  C   UNL     1       1.432   5.419  20.781  0.00  0.00    +0.000 C 
BRANCH  11  13
ATOM     12  C   UNL     1       1.661   2.667  21.369  0.00  0.00    +0.000 C 
ATOM     13  C   UNL     1       1.555   3.937  21.098  0.00  0.00    +0.000 C 
ENDBRANCH  11  13
ENDBRANCH   9  11
ENDBRANCH   8   9
ENDBRANCH   7   8
ENDBRANCH   1   7
BRANCH   5  14
ATOM     14  O   UNL     1       6.515   4.399  17.085  0.00  0.00    +0.000 OA
BRANCH  14  15
ATOM     15  C   UNL     1       7.088   5.611  16.683  0.00  0.00    +0.000 C 
ATOM     16  O   UNL     1       7.225   5.962  15.507  0.00  0.00    +0.000 OA
ATOM     17  N   UNL     1       7.449   6.441  17.725  0.00  0.00    +0.000 N 
ATOM     18  C   UNL     1       7.667   5.967  19.091  0.00  0.00    +0.000 C 
BRANCH  17  19
ATOM     19  C   UNL     1       7.598   7.862  17.432  0.00  0.00    +0.000 C 
ATOM     20  C   UNL     1       8.492   8.642  18.384  0.00  0.00    +0.000 C 
ENDBRANCH  17  19
ENDBRANCH  14  15
ENDBRANCH   5  14
TORSDOF 8
ENDMDL
MODEL 9
REMARK VINA RESULT:      -6.1      3.487      6.170
REMARK  Name = 
REMARK  10 active torsions:
REMARK  status: ('A' for Active; 'I' for Inactive)
REMARK    1  A    between atoms: C_2  and  C_3
REMARK    2  A    between atoms: C_3  and  N_4
REMARK    3  A    between atoms: N_4  and  C_5
REMARK    4  A    between atoms: C_5  and  C_6
REMARK    5  A    between atoms: C_6  and  C_7
REMARK    6  A    between atoms: C_11  and  O_12
REMARK    7  A    between atoms: O_12  and  C_13
REMARK    8  A    between atoms: N_15  and  C_16
REMARK    9  A    between atoms: N_15  and  C_17
REMARK   10  A    between atoms: C_17  and  C_18
REMARK                            x       y       z     vdW  Elec       q    Type
REMARK                         _______ _______ _______ _____ _____    ______ ____
ROOT
ATOM      1  C   UNL     1       3.802   6.529  17.375  0.00  0.00    +0.000 A 
ATOM      2  C   UNL     1       4.740   6.694  16.348  0.00  0.00    +0.000 A 
ATOM      3  C   UNL     1       5.377   5.586  15.796  0.00  0.00    +0.000 A 
ATOM      4  C   UNL     1       5.103   4.305  16.291  0.00  0.00    +0.000 A 
ATOM      5  C   UNL     1       4.217   4.142  17.353  0.00  0.00    +0.000 A 
ATOM      6  C   UNL     1       3.570   5.248  17.887  0.00  0.00    +0.000 A 
ENDROOT
BRANCH   1   7
ATOM      7  C   UNL     1       2.997   7.640  17.998  0.00  0.00    +0.000 C 
BRANCH   7   8
ATOM      8  C   UNL     1       2.426   7.256  19.346  0.00  0.00    +0.000 C 
BRANCH   8   9
ATOM      9  N   UNL     1       1.671   8.357  19.919  0.00  0.00    +0.000 NA
ATOM     10  H   UNL     1       2.279   9.157  20.096  0.00  0.00    +0.000 HD
BRANCH   9  11
ATOM     11  C   UNL     1       1.128   7.889  21.173  0.00  0.00    +0.000 C 
BRANCH  11  13
ATOM     12  C   UNL     1      -0.195  10.039  22.438  0.00  0.00    +0.000 C 
ATOM     13  C   UNL     1       0.416   9.046  21.854  0.00  0.00    +0.000 C 
ENDBRANCH  11  13
ENDBRANCH   9  11
ENDBRANCH   8   9
ENDBRANCH   7   8
ENDBRANCH   1   7
BRANCH   5  14
ATOM     14  O   UNL     1       3.986   2.817  17.797  0.00  0.00    +0.000 OA
BRANCH  14  15
ATOM     15  C   UNL     1       3.879   2.499  19.156  0.00  0.00    +0.000 C 
ATOM     16  O   UNL     1       4.839   2.366  19.920  0.00  0.00    +0.000 OA
ATOM     17  N   UNL     1       2.580   2.397  19.614  0.00  0.00    +0.000 N 
ATOM     18  C   UNL     1       1.435   2.168  18.735  0.00  0.00    +0.000 C 
BRANCH  17  19
ATOM     19  C   UNL     1       2.360   2.544  21.048  0.00  0.00    +0.000 C 
ATOM     20  C   UNL     1       2.093   3.962  21.533  0.00  0.00    +0.000 C 
ENDBRANCH  17  19
ENDBRANCH  14  15
ENDBRANCH   5  14
TORSDOF 8
ENDMDL
