MODEL 1
REMARK VINA RESULT:      -8.0      0.000      0.000
REMARK  Name = 
REMARK  12 active torsions:
REMARK  status: ('A' for Active; 'I' for Inactive)
REMARK    1  A    between atoms: C_1  and  C_2
REMARK    2  A    between atoms: C_2  and  N_3
REMARK    3  A    between atoms: N_3  and  C_4
REMARK    4  A    between atoms: N_3  and  C_6
REMARK    5  A    between atoms: C_4  and  C_5
REMARK    6  A    between atoms: C_6  and  C_7
REMARK    7  A    between atoms: C_7  and  O_8
REMARK    8  A    between atoms: O_8  and  C_9
REMARK    9  A    between atoms: C_12  and  N_13
REMARK   10  A    between atoms: N_16  and  C_17
REMARK   11  A    between atoms: C_25  and  C_26
REMARK   12  A    between atoms: N_30  and  C_31
REMARK                            x       y       z     vdW  Elec       q    Type
REMARK                         _______ _______ _______ _____ _____    ______ ____
ROOT
ATOM      1  C   UNL     1       4.362   5.369  18.953  0.00  0.00    +0.000 A 
ATOM      2  C   UNL     1       3.364   5.835  19.814  0.00  0.00    +0.000 A 
ATOM      3  C   UNL     1       2.504   6.862  19.434  0.00  0.00    +0.000 A 
ATOM      4  C   UNL     1       2.628   7.488  18.202  0.00  0.00    +0.000 A 
ATOM      5  C   UNL     1       3.666   7.071  17.357  0.00  0.00    +0.000 A 
ATOM      6  C   UNL     1       4.562   6.028  17.717  0.00  0.00    +0.000 A 
ENDROOT
BRANCH   4   7
ATOM      7  N   UNL     1       1.733   8.500  17.764  0.00  0.00    +0.000 N 
ATOM      8  C   UNL     1       1.238   9.523  18.559  0.00  0.00    +0.000 C 
ATOM      9  O   UNL     1       1.603   9.761  19.703  0.00  0.00    +0.000 OA
ATOM     10  N   UNL     1       0.230  10.246  17.927  0.00  0.00    +0.000 N 
ATOM     11  H   UNL     1       1.548   8.563  16.772  0.00  0.00    +0.000 HD
ATOM     12  H   UNL     1      -0.349   9.709  17.296  0.00  0.00    +0.000 HD
BRANCH  10  13
ATOM     13  C   UNL     1      -0.393  11.334  18.588  0.00  0.00    +0.000 A 
ATOM     14  C   UNL     1       0.234  12.584  18.688  0.00  0.00    +0.000 A 
ATOM     15  C   UNL     1      -0.344  13.612  19.432  0.00  0.00    +0.000 A 
ATOM     16  C   UNL     1      -1.554  13.386  20.072  0.00  0.00    +0.000 A 
ATOM     17  F   UNL     1      -2.098  14.356  20.822  0.00  0.00    +0.000 F 
ATOM     18  C   UNL     1      -2.206  12.163  19.957  0.00  0.00    +0.000 A 
ATOM     19  C   UNL     1      -1.638  11.138  19.193  0.00  0.00    +0.000 A 
ENDBRANCH  10  13
ENDBRANCH   4   7
BRANCH   6  20
ATOM     20  C   UNL     1       5.616   5.677  16.735  0.00  0.00    +0.000 A 
ATOM     21  C   UNL     1       5.509   4.826  15.640  0.00  0.00    +0.000 A 
ATOM     22  C   UNL     1       6.721   4.916  14.948  0.00  0.00    +0.000 A 
ATOM     23  N   UNL     1       7.577   5.737  15.548  0.00  0.00    +0.000 NA
ATOM     24  N   UNL     1       6.897   6.196  16.626  0.00  0.00    +0.000 N 
ATOM     25  C   UNL     1       7.550   7.208  17.420  0.00  0.00    +0.000 C 
ENDBRANCH   6  20
BRANCH   1  26
ATOM     26  O   UNL     1       5.124   4.274  19.267  0.00  0.00    +0.000 OA
BRANCH  26  27
ATOM     27  C   UNL     1       4.422   3.122  19.775  0.00  0.00    +0.000 C 
BRANCH  27  28
ATOM     28  C   UNL     1       3.516   2.558  18.673  0.00  0.00    +0.000 C 
BRANCH  28  29
ATOM     29  N   UNL     1       2.158   2.165  19.109  0.00  0.00    +0.000 NA
BRANCH  29  31
ATOM     30  C   UNL     1       1.164   3.176  21.202  0.00  0.00    +0.000 C 
ATOM     31  C   UNL     1       2.105   2.147  20.582  0.00  0.00    +0.000 C 
ENDBRANCH  29  31
BRANCH  29  32
ATOM     32  C   UNL     1       1.069   2.922  18.476  0.00  0.00    +0.000 C 
ATOM     33  C   UNL     1       1.478   3.923  17.397  0.00  0.00    +0.000 C 
ENDBRANCH  29  32
ENDBRANCH  28  29
ENDBRANCH  27  28
ENDBRANCH  26  27
ENDBRANCH   1  26
TORSDOF 9
ENDMDL
MODEL 2
REMARK VINA RESULT:      -7.3      0.513      1.308
REMARK  Name = 
REMARK  12 active torsions:
REMARK  status: ('A' for Active; 'I' for Inactive)
REMARK    1  A    between atoms: C_1  and  C_2
REMARK    2  A    between atoms: C_2  and  N_3
REMARK    3  A    between atoms: N_3  and  C_4
REMARK    4  A    between atoms: N_3  and  C_6
REMARK    5  A    between atoms: C_4  and  C_5
REMARK    6  A    between atoms: C_6  and  C_7
REMARK    7  A    between atoms: C_7  and  O_8
REMARK    8  A    between atoms: O_8  and  C_9
REMARK    9  A    between atoms: C_12  and  N_13
REMARK   10  A    between atoms: N_16  and  C_17
REMARK   11  A    between atoms: C_25  and  C_26
REMARK   12  A    between atoms: N_30  and  C_31
REMARK                            x       y       z     vdW  Elec       q    Type
REMARK                         _______ _______ _______ _____ _____    ______ ____
ROOT
ATOM      1  C   UNL     1       4.263   5.454  18.898  0.00  0.00    +0.000 A 
ATOM      2  C   UNL     1       3.265   5.934  19.752  0.00  0.00    +0.000 A 
ATOM      3  C   UNL     1       2.436   6.986  19.374  0.00  0.00    +0.000 A 
ATOM      4  C   UNL     1       2.591   7.624  18.152  0.00  0.00    +0.000 A 
ATOM      5  C   UNL     1       3.631   7.193  17.316  0.00  0.00    +0.000 A 
ATOM      6  C   UNL     1       4.496   6.124  17.674  0.00  0.00    +0.000 A 
ENDROOT
BRANCH   4   7
ATOM      7  N   UNL     1       1.728   8.664  17.716  0.00  0.00    +0.000 N 
ATOM      8  C   UNL     1       1.185   9.644  18.533  0.00  0.00    +0.000 C 
ATOM      9  O   UNL     1       1.477   9.816  19.709  0.00  0.00    +0.000 OA
ATOM     10  N   UNL     1       0.220  10.406  17.880  0.00  0.00    +0.000 N 
ATOM     11  H   UNL     1       1.606   8.783  16.719  0.00  0.00    +0.000 HD
ATOM     12  H   UNL     1      -0.318   9.908  17.185  0.00  0.00    +0.000 HD
BRANCH  10  13
ATOM     13  C   UNL     1      -0.441  11.459  18.560  0.00  0.00    +0.000 A 
ATOM     14  C   UNL     1       0.114  12.744  18.634  0.00  0.00    +0.000 A 
ATOM     15  C   UNL     1      -0.497  13.740  19.395  0.00  0.00    +0.000 A 
ATOM     16  C   UNL     1      -1.667  13.446  20.078  0.00  0.00    +0.000 A 
ATOM     17  F   UNL     1      -2.240  14.387  20.844  0.00  0.00    +0.000 F 
ATOM     18  C   UNL     1      -2.250  12.187  19.990  0.00  0.00    +0.000 A 
ATOM     19  C   UNL     1      -1.650  11.193  19.210  0.00  0.00    +0.000 A 
ENDBRANCH  10  13
ENDBRANCH   4   7
BRANCH   6  20
ATOM     20  C   UNL     1       5.555   5.760  16.702  0.00  0.00    +0.000 A 
ATOM     21  C   UNL     1       5.429   4.973  15.562  0.00  0.00    +0.000 A 
ATOM     22  C   UNL     1       6.663   5.024  14.905  0.00  0.00    +0.000 A 
ATOM     23  N   UNL     1       7.548   5.761  15.569  0.00  0.00    +0.000 NA
ATOM     24  N   UNL     1       6.866   6.205  16.652  0.00  0.00    +0.000 N 
ATOM     25  C   UNL     1       7.556   7.134  17.514  0.00  0.00    +0.000 C 
ENDBRANCH   6  20
BRANCH   1  26
ATOM     26  O   UNL     1       4.994   4.337  19.208  0.00  0.00    +0.000 OA
BRANCH  26  27
ATOM     27  C   UNL     1       4.561   3.580  20.356  0.00  0.00    +0.000 C 
BRANCH  27  28
ATOM     28  C   UNL     1       3.747   2.369  19.883  0.00  0.00    +0.000 C 
BRANCH  28  29
ATOM     29  N   UNL     1       2.410   2.681  19.331  0.00  0.00    +0.000 NA
BRANCH  29  31
ATOM     30  C   UNL     1       2.362   3.266  16.872  0.00  0.00    +0.000 C 
ATOM     31  C   UNL     1       2.327   2.182  17.946  0.00  0.00    +0.000 C 
ENDBRANCH  29  31
BRANCH  29  32
ATOM     32  C   UNL     1       1.285   2.277  20.185  0.00  0.00    +0.000 C 
ATOM     33  C   UNL     1       1.352   2.717  21.647  0.00  0.00    +0.000 C 
ENDBRANCH  29  32
ENDBRANCH  28  29
ENDBRANCH  27  28
ENDBRANCH  26  27
ENDBRANCH   1  26
TORSDOF 9
ENDMDL
MODEL 3
REMARK VINA RESULT:      -7.2      0.722      1.203
REMARK  Name = 
REMARK  12 active torsions:
REMARK  status: ('A' for Active; 'I' for Inactive)
REMARK    1  A    between atoms: C_1  and  C_2
REMARK    2  A    between atoms: C_2  and  N_3
REMARK    3  A    between atoms: N_3  and  C_4
REMARK    4  A    between atoms: N_3  and  C_6
REMARK    5  A    between atoms: C_4  and  C_5
REMARK    6  A    between atoms: C_6  and  C_7
REMARK    7  A    between atoms: C_7  and  O_8
REMARK    8  A    between atoms: O_8  and  C_9
REMARK    9  A    between atoms: C_12  and  N_13
REMARK   10  A    between atoms: N_16  and  C_17
REMARK   11  A    between atoms: C_25  and  C_26
REMARK   12  A    between atoms: N_30  and  C_31
REMARK                            x       y       z     vdW  Elec       q    Type
REMARK                         _______ _______ _______ _____ _____    ______ ____
ROOT
ATOM      1  C   UNL     1       4.128   5.694  19.204  0.00  0.00    +0.000 A 
ATOM      2  C   UNL     1       2.971   5.987  19.933  0.00  0.00    +0.000 A 
ATOM      3  C   UNL     1       2.091   6.983  19.520  0.00  0.00    +0.000 A 
ATOM      4  C   UNL     1       2.346   7.750  18.392  0.00  0.00    +0.000 A 
ATOM      5  C   UNL     1       3.536   7.507  17.691  0.00  0.00    +0.000 A 
ATOM      6  C   UNL     1       4.456   6.500  18.089  0.00  0.00    +0.000 A 
ENDROOT
BRANCH   4   7
ATOM      7  N   UNL     1       1.442   8.736  17.916  0.00  0.00    +0.000 N 
ATOM      8  C   UNL     1       0.980   9.815  18.653  0.00  0.00    +0.000 C 
ATOM      9  O   UNL     1       1.386  10.129  19.764  0.00  0.00    +0.000 OA
ATOM     10  N   UNL     1      -0.046  10.501  18.007  0.00  0.00    +0.000 N 
ATOM     11  H   UNL     1       1.223   8.731  16.928  0.00  0.00    +0.000 HD
ATOM     12  H   UNL     1      -0.648   9.925  17.436  0.00  0.00    +0.000 HD
BRANCH  10  13
ATOM     13  C   UNL     1      -0.639  11.636  18.612  0.00  0.00    +0.000 A 
ATOM     14  C   UNL     1      -0.026  12.896  18.561  0.00  0.00    +0.000 A 
ATOM     15  C   UNL     1      -0.569  13.980  19.250  0.00  0.00    +0.000 A 
ATOM     16  C   UNL     1      -1.729  13.800  19.986  0.00  0.00    +0.000 A 
ATOM     17  F   UNL     1      -2.237  14.827  20.684  0.00  0.00    +0.000 F 
ATOM     18  C   UNL     1      -2.370  12.565  20.022  0.00  0.00    +0.000 A 
ATOM     19  C   UNL     1      -1.838  11.483  19.314  0.00  0.00    +0.000 A 
ENDBRANCH  10  13
ENDBRANCH   4   7
BRANCH   6  20
ATOM     20  C   UNL     1       5.677   6.338  17.262  0.00  0.00    +0.000 A 
ATOM     21  C   UNL     1       6.920   6.931  17.456  0.00  0.00    +0.000 A 
ATOM     22  C   UNL     1       7.778   6.375  16.501  0.00  0.00    +0.000 A 
ATOM     23  N   UNL     1       7.151   5.505  15.716  0.00  0.00    +0.000 NA
ATOM     24  N   UNL     1       5.881   5.487  16.187  0.00  0.00    +0.000 N 
ATOM     25  C   UNL     1       4.981   4.533  15.585  0.00  0.00    +0.000 C 
ENDBRANCH   6  20
BRANCH   1  26
ATOM     26  O   UNL     1       4.929   4.630  19.529  0.00  0.00    +0.000 OA
BRANCH  26  27
ATOM     27  C   UNL     1       4.629   3.376  18.885  0.00  0.00    +0.000 C 
BRANCH  27  28
ATOM     28  C   UNL     1       3.737   2.536  19.807  0.00  0.00    +0.000 C 
BRANCH  28  29
ATOM     29  N   UNL     1       2.408   2.186  19.258  0.00  0.00    +0.000 NA
BRANCH  29  31
ATOM     30  C   UNL     1       1.818   2.868  21.619  0.00  0.00    +0.000 C 
ATOM     31  C   UNL     1       1.360   2.662  20.178  0.00  0.00    +0.000 C 
ENDBRANCH  29  31
BRANCH  29  32
ATOM     32  C   UNL     1       2.204   2.577  17.856  0.00  0.00    +0.000 C 
ATOM     33  C   UNL     1       1.372   3.836  17.619  0.00  0.00    +0.000 C 
ENDBRANCH  29  32
ENDBRANCH  28  29
ENDBRANCH  27  28
ENDBRANCH  26  27
ENDBRANCH   1  26
TORSDOF 9
ENDMDL
MODEL 4
REMARK VINA RESULT:      -7.1      0.827      1.425
REMARK  Name = 
REMARK  12 active torsions:
REMARK  status: ('A' for Active; 'I' for Inactive)
REMARK    1  A    between atoms: C_1  and  C_2
REMARK    2  A    between atoms: C_2  and  N_3
REMARK    3  A    between atoms: N_3  and  C_4
REMARK    4  A    between atoms: N_3  and  C_6
REMARK    5  A    between atoms: C_4  and  C_5
REMARK    6  A    between atoms: C_6  and  C_7
REMARK    7  A    between atoms: C_7  and  O_8
REMARK    8  A    between atoms: O_8  and  C_9
REMARK    9  A    between atoms: C_12  and  N_13
REMARK   10  A    between atoms: N_16  and  C_17
REMARK   11  A    between atoms: C_25  and  C_26
REMARK   12  A    between atoms: N_30  and  C_31
REMARK                            x       y       z     vdW  Elec       q    Type
REMARK                         _______ _______ _______ _____ _____    ______ ____
ROOT
ATOM      1  C   UNL     1       4.191   5.519  18.831  0.00  0.00    +0.000 A 
ATOM      2  C   UNL     1       3.193   6.009  19.678  0.00  0.00    +0.000 A 
ATOM      3  C   UNL     1       2.415   7.106  19.317  0.00  0.00    +0.000 A 
ATOM      4  C   UNL     1       2.625   7.779  18.123  0.00  0.00    +0.000 A 
ATOM      5  C   UNL     1       3.667   7.335  17.296  0.00  0.00    +0.000 A 
ATOM      6  C   UNL     1       4.480   6.220  17.637  0.00  0.00    +0.000 A 
ENDROOT
BRANCH   4   7
ATOM      7  N   UNL     1       1.815   8.867  17.703  0.00  0.00    +0.000 N 
ATOM      8  C   UNL     1       0.919   9.551  18.511  0.00  0.00    +0.000 C 
ATOM      9  O   UNL     1       0.802   9.390  19.719  0.00  0.00    +0.000 OA
ATOM     10  N   UNL     1       0.117  10.431  17.790  0.00  0.00    +0.000 N 
ATOM     11  H   UNL     1       1.998   9.261  16.790  0.00  0.00    +0.000 HD
ATOM     12  H   UNL     1      -0.105  10.133  16.851  0.00  0.00    +0.000 HD
BRANCH  10  13
ATOM     13  C   UNL     1      -0.856  11.220  18.452  0.00  0.00    +0.000 A 
ATOM     14  C   UNL     1      -0.491  12.185  19.402  0.00  0.00    +0.000 A 
ATOM     15  C   UNL     1      -1.465  12.878  20.121  0.00  0.00    +0.000 A 
ATOM     16  C   UNL     1      -2.803  12.604  19.884  0.00  0.00    +0.000 A 
ATOM     17  F   UNL     1      -3.746  13.237  20.599  0.00  0.00    +0.000 F 
ATOM     18  C   UNL     1      -3.184  11.674  18.922  0.00  0.00    +0.000 A 
ATOM     19  C   UNL     1      -2.209  10.994  18.185  0.00  0.00    +0.000 A 
ENDBRANCH  10  13
ENDBRANCH   4   7
BRANCH   6  20
ATOM     20  C   UNL     1       5.547   5.846  16.677  0.00  0.00    +0.000 A 
ATOM     21  C   UNL     1       5.405   5.181  15.464  0.00  0.00    +0.000 A 
ATOM     22  C   UNL     1       6.669   5.174  14.864  0.00  0.00    +0.000 A 
ATOM     23  N   UNL     1       7.585   5.762  15.628  0.00  0.00    +0.000 NA
ATOM     24  N   UNL     1       6.894   6.169  16.721  0.00  0.00    +0.000 N 
ATOM     25  C   UNL     1       7.623   6.949  17.692  0.00  0.00    +0.000 C 
ENDBRANCH   6  20
BRANCH   1  26
ATOM     26  O   UNL     1       4.869   4.363  19.118  0.00  0.00    +0.000 OA
BRANCH  26  27
ATOM     27  C   UNL     1       4.598   3.228  18.273  0.00  0.00    +0.000 C 
BRANCH  27  28
ATOM     28  C   UNL     1       3.940   2.123  19.110  0.00  0.00    +0.000 C 
BRANCH  28  29
ATOM     29  N   UNL     1       2.716   2.522  19.837  0.00  0.00    +0.000 NA
BRANCH  29  31
ATOM     30  C   UNL     1       0.496   2.781  18.654  0.00  0.00    +0.000 C 
ATOM     31  C   UNL     1       1.551   1.845  19.239  0.00  0.00    +0.000 C 
ENDBRANCH  29  31
BRANCH  29  32
ATOM     32  C   UNL     1       2.802   2.395  21.298  0.00  0.00    +0.000 C 
ATOM     33  C   UNL     1       1.692   3.066  22.104  0.00  0.00    +0.000 C 
ENDBRANCH  29  32
ENDBRANCH  28  29
ENDBRANCH  27  28
ENDBRANCH  26  27
ENDBRANCH   1  26
TORSDOF 9
ENDMDL
MODEL 5
REMARK VINA RESULT:      -7.1      2.040      5.006
REMARK  Name = 
REMARK  12 active torsions:
REMARK  status: ('A' for Active; 'I' for Inactive)
REMARK    1  A    between atoms: C_1  and  C_2
REMARK    2  A    between atoms: C_2  and  N_3
REMARK    3  A    between atoms: N_3  and  C_4
REMARK    4  A    between atoms: N_3  and  C_6
REMARK    5  A    between atoms: C_4  and  C_5
REMARK    6  A    between atoms: C_6  and  C_7
REMARK    7  A    between atoms: C_7  and  O_8
REMARK    8  A    between atoms: O_8  and  C_9
REMARK    9  A    between atoms: C_12  and  N_13
REMARK   10  A    between atoms: N_16  and  C_17
REMARK   11  A    between atoms: C_25  and  C_26
REMARK   12  A    between atoms: N_30  and  C_31
REMARK                            x       y       z     vdW  Elec       q    Type
REMARK                         _______ _______ _______ _____ _____    ______ ____
ROOT
ATOM      1  C   UNL     1       2.646   6.216  18.510  0.00  0.00    +0.000 A 
ATOM      2  C   UNL     1       2.572   7.550  18.097  0.00  0.00    +0.000 A 
ATOM      3  C   UNL     1       2.090   8.543  18.946  0.00  0.00    +0.000 A 
ATOM      4  C   UNL     1       1.629   8.242  20.219  0.00  0.00    +0.000 A 
ATOM      5  C   UNL     1       1.639   6.898  20.619  0.00  0.00    +0.000 A 
ATOM      6  C   UNL     1       2.122   5.862  19.775  0.00  0.00    +0.000 A 
ENDROOT
BRANCH   4   7
ATOM      7  N   UNL     1       1.181   9.238  21.127  0.00  0.00    +0.000 N 
ATOM      8  C   UNL     1      -0.015   9.932  21.022  0.00  0.00    +0.000 C 
ATOM      9  O   UNL     1      -0.896   9.690  20.208  0.00  0.00    +0.000 OA
ATOM     10  N   UNL     1      -0.100  10.985  21.929  0.00  0.00    +0.000 N 
ATOM     11  H   UNL     1       1.704   9.358  21.984  0.00  0.00    +0.000 HD
ATOM     12  H   UNL     1       0.779  11.433  22.146  0.00  0.00    +0.000 HD
BRANCH  10  13
ATOM     13  C   UNL     1      -1.256  11.804  21.968  0.00  0.00    +0.000 A 
ATOM     14  C   UNL     1      -1.521  12.742  20.960  0.00  0.00    +0.000 A 
ATOM     15  C   UNL     1      -2.605  13.613  21.067  0.00  0.00    +0.000 A 
ATOM     16  C   UNL     1      -3.424  13.539  22.183  0.00  0.00    +0.000 A 
ATOM     17  F   UNL     1      -4.446  14.399  22.313  0.00  0.00    +0.000 F 
ATOM     18  C   UNL     1      -3.195  12.594  23.177  0.00  0.00    +0.000 A 
ATOM     19  C   UNL     1      -2.121  11.705  23.061  0.00  0.00    +0.000 A 
ENDBRANCH  10  13
ENDBRANCH   4   7
BRANCH   6  20
ATOM     20  C   UNL     1       2.084   4.481  20.315  0.00  0.00    +0.000 A 
ATOM     21  C   UNL     1       2.521   4.042  21.561  0.00  0.00    +0.000 A 
ATOM     22  C   UNL     1       2.159   2.694  21.656  0.00  0.00    +0.000 A 
ATOM     23  N   UNL     1       1.556   2.262  20.553  0.00  0.00    +0.000 NA
ATOM     24  N   UNL     1       1.512   3.352  19.749  0.00  0.00    +0.000 N 
ATOM     25  C   UNL     1       0.802   3.208  18.501  0.00  0.00    +0.000 C 
ENDBRANCH   6  20
BRANCH   1  26
ATOM     26  O   UNL     1       3.241   5.258  17.731  0.00  0.00    +0.000 OA
BRANCH  26  27
ATOM     27  C   UNL     1       4.407   5.663  16.987  0.00  0.00    +0.000 C 
BRANCH  27  28
ATOM     28  C   UNL     1       5.361   4.468  16.856  0.00  0.00    +0.000 C 
BRANCH  28  29
ATOM     29  N   UNL     1       6.780   4.813  16.620  0.00  0.00    +0.000 NA
BRANCH  29  31
ATOM     30  C   UNL     1       6.214   3.894  14.334  0.00  0.00    +0.000 C 
ATOM     31  C   UNL     1       7.030   4.877  15.169  0.00  0.00    +0.000 C 
ENDBRANCH  29  31
BRANCH  29  32
ATOM     32  C   UNL     1       7.257   5.985  17.367  0.00  0.00    +0.000 C 
ATOM     33  C   UNL     1       7.718   5.733  18.801  0.00  0.00    +0.000 C 
ENDBRANCH  29  32
ENDBRANCH  28  29
ENDBRANCH  27  28
ENDBRANCH  26  27
ENDBRANCH   1  26
TORSDOF 9
ENDMDL
MODEL 6
REMARK VINA RESULT:      -7.1      2.282      4.858
REMARK  Name = 
REMARK  12 active torsions:
REMARK  status: ('A' for Active; 'I' for Inactive)
REMARK    1  A    between atoms: C_1  and  C_2
REMARK    2  A    between atoms: C_2  and  N_3
REMARK    3  A    between atoms: N_3  and  C_4
REMARK    4  A    between atoms: N_3  and  C_6
REMARK    5  A    between atoms: C_4  and  C_5
REMARK    6  A    between atoms: C_6  and  C_7
REMARK    7  A    between atoms: C_7  and  O_8
REMARK    8  A    between atoms: O_8  and  C_9
REMARK    9  A    between atoms: C_12  and  N_13
REMARK   10  A    between atoms: N_16  and  C_17
REMARK   11  A    between atoms: C_25  and  C_26
REMARK   12  A    between atoms: N_30  and  C_31
REMARK                            x       y       z     vdW  Elec       q    Type
REMARK                         _______ _______ _______ _____ _____    ______ ____
ROOT
ATOM      1  C   UNL     1       2.545   6.717  18.468  0.00  0.00    +0.000 A 
ATOM      2  C   UNL     1       2.342   8.094  18.330  0.00  0.00    +0.000 A 
ATOM      3  C   UNL     1       1.791   8.850  19.361  0.00  0.00    +0.000 A 
ATOM      4  C   UNL     1       1.386   8.261  20.551  0.00  0.00    +0.000 A 
ATOM      5  C   UNL     1       1.526   6.872  20.675  0.00  0.00    +0.000 A 
ATOM      6  C   UNL     1       2.082   6.072  19.639  0.00  0.00    +0.000 A 
ENDROOT
BRANCH   4   7
ATOM      7  N   UNL     1       0.871   9.012  21.640  0.00  0.00    +0.000 N 
ATOM      8  C   UNL     1      -0.046  10.047  21.532  0.00  0.00    +0.000 C 
ATOM      9  O   UNL     1      -0.624  10.365  20.501  0.00  0.00    +0.000 OA
ATOM     10  N   UNL     1      -0.218  10.733  22.731  0.00  0.00    +0.000 N 
ATOM     11  H   UNL     1       1.080   8.685  22.574  0.00  0.00    +0.000 HD
ATOM     12  H   UNL     1       0.606  10.786  23.313  0.00  0.00    +0.000 HD
BRANCH  10  13
ATOM     13  C   UNL     1      -1.121  11.822  22.809  0.00  0.00    +0.000 A 
ATOM     14  C   UNL     1      -2.443  11.645  23.242  0.00  0.00    +0.000 A 
ATOM     15  C   UNL     1      -3.348  12.705  23.213  0.00  0.00    +0.000 A 
ATOM     16  C   UNL     1      -2.925  13.943  22.753  0.00  0.00    +0.000 A 
ATOM     17  F   UNL     1      -3.800  14.959  22.685  0.00  0.00    +0.000 F 
ATOM     18  C   UNL     1      -1.610  14.146  22.350  0.00  0.00    +0.000 A 
ATOM     19  C   UNL     1      -0.695  13.089  22.399  0.00  0.00    +0.000 A 
ENDBRANCH  10  13
ENDBRANCH   4   7
BRANCH   6  20
ATOM     20  C   UNL     1       2.180   4.614  19.893  0.00  0.00    +0.000 A 
ATOM     21  C   UNL     1       1.139   3.703  20.031  0.00  0.00    +0.000 A 
ATOM     22  C   UNL     1       1.728   2.438  20.128  0.00  0.00    +0.000 A 
ATOM     23  N   UNL     1       3.055   2.504  20.087  0.00  0.00    +0.000 NA
ATOM     24  N   UNL     1       3.319   3.825  19.940  0.00  0.00    +0.000 N 
ATOM     25  C   UNL     1       4.702   4.192  19.754  0.00  0.00    +0.000 C 
ENDBRANCH   6  20
BRANCH   1  26
ATOM     26  O   UNL     1       3.206   5.992  17.512  0.00  0.00    +0.000 OA
BRANCH  26  27
ATOM     27  C   UNL     1       4.456   6.534  17.039  0.00  0.00    +0.000 C 
BRANCH  27  28
ATOM     28  C   UNL     1       5.046   5.591  15.984  0.00  0.00    +0.000 C 
BRANCH  28  29
ATOM     29  N   UNL     1       6.490   5.768  15.712  0.00  0.00    +0.000 NA
BRANCH  29  31
ATOM     30  C   UNL     1       7.671   4.653  17.650  0.00  0.00    +0.000 C 
ATOM     31  C   UNL     1       7.207   5.947  16.988  0.00  0.00    +0.000 C 
ENDBRANCH  29  31
BRANCH  29  32
ATOM     32  C   UNL     1       7.076   4.750  14.829  0.00  0.00    +0.000 C 
ATOM     33  C   UNL     1       6.102   3.994  13.927  0.00  0.00    +0.000 C 
ENDBRANCH  29  32
ENDBRANCH  28  29
ENDBRANCH  27  28
ENDBRANCH  26  27
ENDBRANCH   1  26
TORSDOF 9
ENDMDL
MODEL 7
REMARK VINA RESULT:      -7.1      0.914      1.202
REMARK  Name = 
REMARK  12 active torsions:
REMARK  status: ('A' for Active; 'I' for Inactive)
REMARK    1  A    between atoms: C_1  and  C_2
REMARK    2  A    between atoms: C_2  and  N_3
REMARK    3  A    between atoms: N_3  and  C_4
REMARK    4  A    between atoms: N_3  and  C_6
REMARK    5  A    between atoms: C_4  and  C_5
REMARK    6  A    between atoms: C_6  and  C_7
REMARK    7  A    between atoms: C_7  and  O_8
REMARK    8  A    between atoms: O_8  and  C_9
REMARK    9  A    between atoms: C_12  and  N_13
REMARK   10  A    between atoms: N_16  and  C_17
REMARK   11  A    between atoms: C_25  and  C_26
REMARK   12  A    between atoms: N_30  and  C_31
REMARK                            x       y       z     vdW  Elec       q    Type
REMARK                         _______ _______ _______ _____ _____    ______ ____
ROOT
ATOM      1  C   UNL     1       3.901   5.219  18.221  0.00  0.00    +0.000 A 
ATOM      2  C   UNL     1       2.911   5.690  19.090  0.00  0.00    +0.000 A 
ATOM      3  C   UNL     1       2.390   6.974  18.963  0.00  0.00    +0.000 A 
ATOM      4  C   UNL     1       2.859   7.851  17.995  0.00  0.00    +0.000 A 
ATOM      5  C   UNL     1       3.896   7.411  17.161  0.00  0.00    +0.000 A 
ATOM      6  C   UNL     1       4.451   6.107  17.267  0.00  0.00    +0.000 A 
ENDROOT
BRANCH   4   7
ATOM      7  N   UNL     1       2.312   9.147  17.806  0.00  0.00    +0.000 N 
ATOM      8  C   UNL     1       1.323   9.717  18.594  0.00  0.00    +0.000 C 
ATOM      9  O   UNL     1       0.883   9.229  19.627  0.00  0.00    +0.000 OA
ATOM     10  N   UNL     1       0.837  10.908  18.060  0.00  0.00    +0.000 N 
ATOM     11  H   UNL     1       2.765   9.753  17.136  0.00  0.00    +0.000 HD
ATOM     12  H   UNL     1       0.830  10.950  17.051  0.00  0.00    +0.000 HD
BRANCH  10  13
ATOM     13  C   UNL     1      -0.177  11.633  18.733  0.00  0.00    +0.000 A 
ATOM     14  C   UNL     1       0.133  12.569  19.729  0.00  0.00    +0.000 A 
ATOM     15  C   UNL     1      -0.880  13.197  20.455  0.00  0.00    +0.000 A 
ATOM     16  C   UNL     1      -2.202  12.887  20.177  0.00  0.00    +0.000 A 
ATOM     17  F   UNL     1      -3.182  13.456  20.896  0.00  0.00    +0.000 F 
ATOM     18  C   UNL     1      -2.529  11.985  19.170  0.00  0.00    +0.000 A 
ATOM     19  C   UNL     1      -1.516  11.371  18.427  0.00  0.00    +0.000 A 
ENDBRANCH  10  13
ENDBRANCH   4   7
BRANCH   6  20
ATOM     20  C   UNL     1       5.542   5.760  16.324  0.00  0.00    +0.000 A 
ATOM     21  C   UNL     1       5.432   5.119  15.095  0.00  0.00    +0.000 A 
ATOM     22  C   UNL     1       6.709   5.133  14.524  0.00  0.00    +0.000 A 
ATOM     23  N   UNL     1       7.603   5.711  15.320  0.00  0.00    +0.000 NA
ATOM     24  N   UNL     1       6.886   6.091  16.405  0.00  0.00    +0.000 N 
ATOM     25  C   UNL     1       7.587   6.855  17.408  0.00  0.00    +0.000 C 
ENDBRANCH   6  20
BRANCH   1  26
ATOM     26  O   UNL     1       4.323   3.916  18.255  0.00  0.00    +0.000 OA
BRANCH  26  27
ATOM     27  C   UNL     1       3.506   2.954  17.559  0.00  0.00    +0.000 C 
BRANCH  27  28
ATOM     28  C   UNL     1       3.361   1.695  18.424  0.00  0.00    +0.000 C 
BRANCH  28  29
ATOM     29  N   UNL     1       2.365   1.786  19.514  0.00  0.00    +0.000 NA
BRANCH  29  31
ATOM     30  C   UNL     1       4.515   1.936  20.835  0.00  0.00    +0.000 C 
ATOM     31  C   UNL     1       3.027   2.264  20.741  0.00  0.00    +0.000 C 
ENDBRANCH  29  31
BRANCH  29  32
ATOM     32  C   UNL     1       1.141   2.521  19.164  0.00  0.00    +0.000 C 
ATOM     33  C   UNL     1       0.607   3.489  20.218  0.00  0.00    +0.000 C 
ENDBRANCH  29  32
ENDBRANCH  28  29
ENDBRANCH  27  28
ENDBRANCH  26  27
ENDBRANCH   1  26
TORSDOF 9
ENDMDL
MODEL 8
REMARK VINA RESULT:      -7.0      2.099      4.654
REMARK  Name = 
REMARK  12 active torsions:
REMARK  status: ('A' for Active; 'I' for Inactive)
REMARK    1  A    between atoms: C_1  and  C_2
REMARK    2  A    between atoms: C_2  and  N_3
REMARK    3  A    between atoms: N_3  and  C_4
REMARK    4  A    between atoms: N_3  and  C_6
REMARK    5  A    between atoms: C_4  and  C_5
REMARK    6  A    between atoms: C_6  and  C_7
REMARK    7  A    between atoms: C_7  and  O_8
REMARK    8  A    between atoms: O_8  and  C_9
REMARK    9  A    between atoms: C_12  and  N_13
REMARK   10  A    between atoms: N_16  and  C_17
REMARK   11  A    between atoms: C_25  and  C_26
REMARK   12  A    between atoms: N_30  and  C_31
REMARK                            x       y       z     vdW  Elec       q    Type
REMARK                         _______ _______ _______ _____ _____    ______ ____
ROOT
ATOM      1  C   UNL     1       3.164   6.569  17.918  0.00  0.00    +0.000 A 
ATOM      2  C   UNL     1       2.726   7.892  17.804  0.00  0.00    +0.000 A 
ATOM      3  C   UNL     1       2.117   8.545  18.873  0.00  0.00    +0.000 A 
ATOM      4  C   UNL     1       1.887   7.898  20.078  0.00  0.00    +0.000 A 
ATOM      5  C   UNL     1       2.264   6.552  20.180  0.00  0.00    +0.000 A 
ATOM      6  C   UNL     1       2.884   5.856  19.107  0.00  0.00    +0.000 A 
ENDROOT
BRANCH   4   7
ATOM      7  N   UNL     1       1.318   8.552  21.202  0.00  0.00    +0.000 N 
ATOM      8  C   UNL     1       0.440   9.624  21.141  0.00  0.00    +0.000 C 
ATOM      9  O   UNL     1      -0.057  10.063  20.112  0.00  0.00    +0.000 OA
ATOM     10  N   UNL     1       0.204  10.191  22.390  0.00  0.00    +0.000 N 
ATOM     11  H   UNL     1       1.453   8.126  22.109  0.00  0.00    +0.000 HD
ATOM     12  H   UNL     1       0.987  10.157  23.028  0.00  0.00    +0.000 HD
BRANCH  10  13
ATOM     13  C   UNL     1      -0.673  11.296  22.520  0.00  0.00    +0.000 A 
ATOM     14  C   UNL     1      -1.904  11.179  23.179  0.00  0.00    +0.000 A 
ATOM     15  C   UNL     1      -2.801  12.246  23.207  0.00  0.00    +0.000 A 
ATOM     16  C   UNL     1      -2.459  13.433  22.576  0.00  0.00    +0.000 A 
ATOM     17  F   UNL     1      -3.332  14.452  22.564  0.00  0.00    +0.000 F 
ATOM     18  C   UNL     1      -1.228  13.579  21.945  0.00  0.00    +0.000 A 
ATOM     19  C   UNL     1      -0.319  12.516  21.935  0.00  0.00    +0.000 A 
ENDBRANCH  10  13
ENDBRANCH   4   7
BRANCH   6  20
ATOM     20  C   UNL     1       3.239   4.435  19.341  0.00  0.00    +0.000 A 
ATOM     21  C   UNL     1       4.509   3.888  19.486  0.00  0.00    +0.000 A 
ATOM     22  C   UNL     1       4.326   2.541  19.815  0.00  0.00    +0.000 A 
ATOM     23  N   UNL     1       3.040   2.210  19.857  0.00  0.00    +0.000 NA
ATOM     24  N   UNL     1       2.390   3.364  19.573  0.00  0.00    +0.000 N 
ATOM     25  C   UNL     1       0.949   3.333  19.655  0.00  0.00    +0.000 C 
ENDBRANCH   6  20
BRANCH   1  26
ATOM     26  O   UNL     1       3.880   5.964  16.918  0.00  0.00    +0.000 OA
BRANCH  26  27
ATOM     27  C   UNL     1       4.911   6.754  16.293  0.00  0.00    +0.000 C 
BRANCH  27  28
ATOM     28  C   UNL     1       6.178   6.703  17.156  0.00  0.00    +0.000 C 
BRANCH  28  29
ATOM     29  N   UNL     1       7.229   5.776  16.684  0.00  0.00    +0.000 NA
BRANCH  29  31
ATOM     30  C   UNL     1       7.873   5.537  19.117  0.00  0.00    +0.000 C 
ATOM     31  C   UNL     1       7.597   4.859  17.778  0.00  0.00    +0.000 C 
ENDBRANCH  29  31
BRANCH  29  32
ATOM     32  C   UNL     1       6.929   5.106  15.411  0.00  0.00    +0.000 C 
ATOM     33  C   UNL     1       6.259   3.737  15.508  0.00  0.00    +0.000 C 
ENDBRANCH  29  32
ENDBRANCH  28  29
ENDBRANCH  27  28
ENDBRANCH  26  27
ENDBRANCH   1  26
TORSDOF 9
ENDMDL
MODEL 9
REMARK VINA RESULT:      -7.0      2.278      5.045
REMARK  Name = 
REMARK  12 active torsions:
REMARK  status: ('A' for Active; 'I' for Inactive)
REMARK    1  A    between atoms: C_1  and  C_2
REMARK    2  A    between atoms: C_2  and  N_3
REMARK    3  A    between atoms: N_3  and  C_4
REMARK    4  A    between atoms: N_3  and  C_6
REMARK    5  A    between atoms: C_4  and  C_5
REMARK    6  A    between atoms: C_6  and  C_7
REMARK    7  A    between atoms: C_7  and  O_8
REMARK    8  A    between atoms: O_8  and  C_9
REMARK    9  A    between atoms: C_12  and  N_13
REMARK   10  A    between atoms: N_16  and  C_17
REMARK   11  A    between atoms: C_25  and  C_26
REMARK   12  A    between atoms: N_30  and  C_31
REMARK                            x       y       z     vdW  Elec       q    Type
REMARK                         _______ _______ _______ _____ _____    ______ ____
ROOT
ATOM      1  C   UNL     1       2.547   6.568  18.872  0.00  0.00    +0.000 A 
ATOM      2  C   UNL     1       2.379   7.940  18.657  0.00  0.00    +0.000 A 
ATOM      3  C   UNL     1       1.775   8.752  19.613  0.00  0.00    +0.000 A 
ATOM      4  C   UNL     1       1.282   8.227  20.798  0.00  0.00    +0.000 A 
ATOM      5  C   UNL     1       1.387   6.843  20.996  0.00  0.00    +0.000 A 
ATOM      6  C   UNL     1       1.995   5.987  20.038  0.00  0.00    +0.000 A 
ENDROOT
BRANCH   4   7
ATOM      7  N   UNL     1       0.709   9.037  21.815  0.00  0.00    +0.000 N 
ATOM      8  C   UNL     1      -0.145  10.107  21.594  0.00  0.00    +0.000 C 
ATOM      9  O   UNL     1      -0.616  10.414  20.507  0.00  0.00    +0.000 OA
ATOM     10  N   UNL     1      -0.388  10.841  22.752  0.00  0.00    +0.000 N 
ATOM     11  H   UNL     1       0.821   8.733  22.773  0.00  0.00    +0.000 HD
ATOM     12  H   UNL     1       0.383  10.877  23.403  0.00  0.00    +0.000 HD
BRANCH  10  13
ATOM     13  C   UNL     1      -1.243  11.970  22.717  0.00  0.00    +0.000 A 
ATOM     14  C   UNL     1      -0.783  13.221  22.283  0.00  0.00    +0.000 A 
ATOM     15  C   UNL     1      -1.605  14.345  22.355  0.00  0.00    +0.000 A 
ATOM     16  C   UNL     1      -2.890  14.212  22.858  0.00  0.00    +0.000 A 
ATOM     17  F   UNL     1      -3.675  15.295  22.968  0.00  0.00    +0.000 F 
ATOM     18  C   UNL     1      -3.375  12.972  23.263  0.00  0.00    +0.000 A 
ATOM     19  C   UNL     1      -2.559  11.840  23.172  0.00  0.00    +0.000 A 
ENDBRANCH  10  13
ENDBRANCH   4   7
BRANCH   6  20
ATOM     20  C   UNL     1       2.049   4.541  20.365  0.00  0.00    +0.000 A 
ATOM     21  C   UNL     1       2.426   3.955  21.569  0.00  0.00    +0.000 A 
ATOM     22  C   UNL     1       2.191   2.583  21.433  0.00  0.00    +0.000 A 
ATOM     23  N   UNL     1       1.722   2.276  20.227  0.00  0.00    +0.000 NA
ATOM     24  N   UNL     1       1.636   3.469  19.591  0.00  0.00    +0.000 N 
ATOM     25  C   UNL     1       1.045   3.458  18.275  0.00  0.00    +0.000 C 
ENDBRANCH   6  20
BRANCH   1  26
ATOM     26  O   UNL     1       3.256   5.788  17.997  0.00  0.00    +0.000 OA
BRANCH  26  27
ATOM     27  C   UNL     1       4.269   6.451  17.216  0.00  0.00    +0.000 C 
BRANCH  27  28
ATOM     28  C   UNL     1       5.002   5.414  16.356  0.00  0.00    +0.000 C 
BRANCH  28  29
ATOM     29  N   UNL     1       6.356   5.806  15.905  0.00  0.00    +0.000 NA
BRANCH  29  31
ATOM     30  C   UNL     1       7.621   4.722  17.806  0.00  0.00    +0.000 C 
ATOM     31  C   UNL     1       7.222   6.004  17.081  0.00  0.00    +0.000 C 
ENDBRANCH  29  31
BRANCH  29  32
ATOM     32  C   UNL     1       6.932   4.936  14.871  0.00  0.00    +0.000 C 
ATOM     33  C   UNL     1       5.951   4.049  14.107  0.00  0.00    +0.000 C 
ENDBRANCH  29  32
ENDBRANCH  28  29
ENDBRANCH  27  28
ENDBRANCH  26  27
ENDBRANCH   1  26
TORSDOF 9
ENDMDL
