MODEL 1
REMARK VINA RESULT:      -9.6      0.000      0.000
REMARK  Name = 
REMARK  4 active torsions:
REMARK  status: ('A' for Active; 'I' for Inactive)
REMARK    1  A    between atoms: C_1  and  C_2
REMARK    2  A    between atoms: C_14  and  C_15
REMARK    3  A    between atoms: C_16  and  C_17
REMARK    4  A    between atoms: C_20  and  C_21
REMARK                            x       y       z     vdW  Elec       q    Type
REMARK                         _______ _______ _______ _____ _____    ______ ____
ROOT
ATOM      1  C   UNL     1       7.630   6.737  18.384  0.00  0.00    +0.000 C 
ATOM      2  C   UNL     1       6.394   6.313  17.603  0.00  0.00    +0.000 C 
ATOM      3  O   UNL     1       6.676   6.182  16.211  0.00  0.00    +0.000 OA
ATOM      4  C   UNL     1       5.853   5.218  15.703  0.00  0.00    +0.000 C 
ATOM      5  O   UNL     1       5.520   5.149  14.533  0.00  0.00    +0.000 OA
ATOM      6  C   UNL     1       5.562   4.199  16.775  0.00  0.00    +0.000 C 
ATOM      7  C   UNL     1       4.220   3.490  16.641  0.00  0.00    +0.000 C 
ATOM      8  C   UNL     1       3.737   2.915  17.982  0.00  0.00    +0.000 C 
ATOM      9  C   UNL     1       2.415   2.133  17.803  0.00  0.00    +0.000 C 
ATOM     10  C   UNL     1       1.724   1.760  19.124  0.00  0.00    +0.000 C 
ATOM     11  C   UNL     1       1.640   2.914  20.120  0.00  0.00    +0.000 C 
ATOM     12  C   UNL     1       3.002   3.568  20.305  0.00  0.00    +0.000 C 
ATOM     13  C   UNL     1       3.501   4.075  18.944  0.00  0.00    +0.000 C 
ATOM     14  C   UNL     1       4.674   5.062  19.103  0.00  0.00    +0.000 C 
ATOM     15  C   UNL     1       5.816   4.966  18.064  0.00  0.00    +0.000 C 
ENDROOT
BRANCH  14  16
ATOM     16  C   UNL     1       4.011   6.412  19.141  0.00  0.00    +0.000 C 
ATOM     17  C   UNL     1       2.692   6.615  19.039  0.00  0.00    +0.000 C 
BRANCH  17  18
ATOM     18  C   UNL     1       2.128   7.962  18.961  0.00  0.00    +0.000 A 
ATOM     19  C   UNL     1       2.331   8.727  17.828  0.00  0.00    +0.000 A 
ATOM     20  C   UNL     1       1.857  10.037  17.820  0.00  0.00    +0.000 A 
ATOM     21  C   UNL     1       1.215  10.576  18.942  0.00  0.00    +0.000 A 
ATOM     22  C   UNL     1       1.043   9.704  20.020  0.00  0.00    +0.000 A 
ATOM     23  N   UNL     1       1.475   8.424  20.049  0.00  0.00    +0.000 NA
BRANCH  21  24
ATOM     24  C   UNL     1       0.784  11.983  18.995  0.00  0.00    +0.000 A 
ATOM     25  C   UNL     1      -0.506  12.360  19.397  0.00  0.00    +0.000 A 
ATOM     26  C   UNL     1      -0.872  13.703  19.464  0.00  0.00    +0.000 A 
ATOM     27  C   UNL     1       0.052  14.681  19.117  0.00  0.00    +0.000 A 
ATOM     28  N   UNL     1       1.328  14.347  18.708  0.00  0.00    +0.000 N 
ATOM     29  O   UNL     1       2.165  15.241  18.386  0.00  0.00    +0.000 OA
ATOM     30  C   UNL     1       1.676  13.010  18.659  0.00  0.00    +0.000 A 
ENDBRANCH  21  24
ENDBRANCH  17  18
ENDBRANCH  14  16
TORSDOF 3
ENDMDL
MODEL 2
REMARK VINA RESULT:      -9.5      1.017      1.238
REMARK  Name = 
REMARK  4 active torsions:
REMARK  status: ('A' for Active; 'I' for Inactive)
REMARK    1  A    between atoms: C_1  and  C_2
REMARK    2  A    between atoms: C_14  and  C_15
REMARK    3  A    between atoms: C_16  and  C_17
REMARK    4  A    between atoms: C_20  and  C_21
REMARK                            x       y       z     vdW  Elec       q    Type
REMARK                         _______ _______ _______ _____ _____    ______ ____
ROOT
ATOM      1  C   UNL     1       7.618   6.696  18.419  0.00  0.00    +0.000 C 
ATOM      2  C   UNL     1       6.378   6.285  17.637  0.00  0.00    +0.000 C 
ATOM      3  O   UNL     1       6.652   6.180  16.242  0.00  0.00    +0.000 OA
ATOM      4  C   UNL     1       5.827   5.224  15.721  0.00  0.00    +0.000 C 
ATOM      5  O   UNL     1       5.488   5.177  14.551  0.00  0.00    +0.000 OA
ATOM      6  C   UNL     1       5.542   4.186  16.775  0.00  0.00    +0.000 C 
ATOM      7  C   UNL     1       4.199   3.479  16.636  0.00  0.00    +0.000 C 
ATOM      8  C   UNL     1       3.723   2.880  17.969  0.00  0.00    +0.000 C 
ATOM      9  C   UNL     1       2.400   2.101  17.782  0.00  0.00    +0.000 C 
ATOM     10  C   UNL     1       1.716   1.705  19.099  0.00  0.00    +0.000 C 
ATOM     11  C   UNL     1       1.638   2.840  20.116  0.00  0.00    +0.000 C 
ATOM     12  C   UNL     1       3.000   3.491  20.307  0.00  0.00    +0.000 C 
ATOM     13  C   UNL     1       3.492   4.023  18.952  0.00  0.00    +0.000 C 
ATOM     14  C   UNL     1       4.666   5.007  19.123  0.00  0.00    +0.000 C 
ATOM     15  C   UNL     1       5.802   4.930  18.077  0.00  0.00    +0.000 C 
ENDROOT
BRANCH  14  16
ATOM     16  C   UNL     1       4.003   6.356  19.189  0.00  0.00    +0.000 C 
ATOM     17  C   UNL     1       2.697   6.573  18.987  0.00  0.00    +0.000 C 
BRANCH  17  18
ATOM     18  C   UNL     1       2.144   7.926  18.946  0.00  0.00    +0.000 A 
ATOM     19  C   UNL     1       2.358   8.722  17.837  0.00  0.00    +0.000 A 
ATOM     20  C   UNL     1       1.893  10.035  17.865  0.00  0.00    +0.000 A 
ATOM     21  C   UNL     1       1.249  10.545  18.999  0.00  0.00    +0.000 A 
ATOM     22  C   UNL     1       1.064   9.643  20.049  0.00  0.00    +0.000 A 
ATOM     23  N   UNL     1       1.487   8.360  20.043  0.00  0.00    +0.000 NA
BRANCH  21  24
ATOM     24  C   UNL     1       0.827  11.953  19.091  0.00  0.00    +0.000 A 
ATOM     25  C   UNL     1       1.615  13.008  18.609  0.00  0.00    +0.000 A 
ATOM     26  C   UNL     1       1.173  14.327  18.685  0.00  0.00    +0.000 A 
ATOM     27  C   UNL     1      -0.063  14.601  19.257  0.00  0.00    +0.000 A 
ATOM     28  N   UNL     1      -0.863  13.589  19.750  0.00  0.00    +0.000 N 
ATOM     29  O   UNL     1      -1.987  13.843  20.276  0.00  0.00    +0.000 OA
ATOM     30  C   UNL     1      -0.412  12.285  19.655  0.00  0.00    +0.000 A 
ENDBRANCH  21  24
ENDBRANCH  17  18
ENDBRANCH  14  16
TORSDOF 3
ENDMDL
MODEL 3
REMARK VINA RESULT:      -9.4      2.882      4.597
REMARK  Name = 
REMARK  4 active torsions:
REMARK  status: ('A' for Active; 'I' for Inactive)
REMARK    1  A    between atoms: C_1  and  C_2
REMARK    2  A    between atoms: C_14  and  C_15
REMARK    3  A    between atoms: C_16  and  C_17
REMARK    4  A    between atoms: C_20  and  C_21
REMARK                            x       y       z     vdW  Elec       q    Type
REMARK                         _______ _______ _______ _____ _____    ______ ____
ROOT
ATOM      1  C   UNL     1       0.348   2.632  18.491  0.00  0.00    +0.000 C 
ATOM      2  C   UNL     1       1.523   3.221  19.260  0.00  0.00    +0.000 C 
ATOM      3  O   UNL     1       1.845   2.433  20.403  0.00  0.00    +0.000 OA
ATOM      4  C   UNL     1       3.186   2.554  20.634  0.00  0.00    +0.000 C 
ATOM      5  O   UNL     1       3.711   2.388  21.721  0.00  0.00    +0.000 OA
ATOM      6  C   UNL     1       3.898   2.770  19.323  0.00  0.00    +0.000 C 
ATOM      7  C   UNL     1       5.194   3.566  19.418  0.00  0.00    +0.000 C 
ATOM      8  C   UNL     1       5.567   4.220  18.079  0.00  0.00    +0.000 C 
ATOM      9  C   UNL     1       6.925   4.953  18.182  0.00  0.00    +0.000 C 
ATOM     10  C   UNL     1       7.242   5.857  16.981  0.00  0.00    +0.000 C 
ATOM     11  C   UNL     1       6.078   6.750  16.561  0.00  0.00    +0.000 C 
ATOM     12  C   UNL     1       4.804   5.935  16.394  0.00  0.00    +0.000 C 
ATOM     13  C   UNL     1       4.483   5.232  17.721  0.00  0.00    +0.000 C 
ATOM     14  C   UNL     1       3.037   4.700  17.746  0.00  0.00    +0.000 C 
ATOM     15  C   UNL     1       2.806   3.329  18.422  0.00  0.00    +0.000 C 
ENDROOT
BRANCH  14  16
ATOM     16  C   UNL     1       2.249   5.817  18.375  0.00  0.00    +0.000 C 
ATOM     17  C   UNL     1       2.787   6.928  18.896  0.00  0.00    +0.000 C 
BRANCH  17  18
ATOM     18  C   UNL     1       1.969   7.915  19.600  0.00  0.00    +0.000 A 
ATOM     19  C   UNL     1       1.464   7.621  20.852  0.00  0.00    +0.000 A 
ATOM     20  C   UNL     1       0.617   8.547  21.459  0.00  0.00    +0.000 A 
ATOM     21  C   UNL     1       0.265   9.734  20.805  0.00  0.00    +0.000 A 
ATOM     22  C   UNL     1       0.856   9.938  19.556  0.00  0.00    +0.000 A 
ATOM     23  N   UNL     1       1.694   9.067  18.952  0.00  0.00    +0.000 NA
BRANCH  21  24
ATOM     24  C   UNL     1      -0.696  10.688  21.383  0.00  0.00    +0.000 A 
ATOM     25  C   UNL     1      -0.932  10.777  22.762  0.00  0.00    +0.000 A 
ATOM     26  C   UNL     1      -1.827  11.712  23.279  0.00  0.00    +0.000 A 
ATOM     27  C   UNL     1      -2.504  12.561  22.411  0.00  0.00    +0.000 A 
ATOM     28  N   UNL     1      -2.304  12.497  21.047  0.00  0.00    +0.000 N 
ATOM     29  O   UNL     1      -2.927  13.269  20.259  0.00  0.00    +0.000 OA
ATOM     30  C   UNL     1      -1.403  11.570  20.554  0.00  0.00    +0.000 A 
ENDBRANCH  21  24
ENDBRANCH  17  18
ENDBRANCH  14  16
TORSDOF 3
ENDMDL
MODEL 4
REMARK VINA RESULT:      -9.1      0.722      1.060
REMARK  Name = 
REMARK  4 active torsions:
REMARK  status: ('A' for Active; 'I' for Inactive)
REMARK    1  A    between atoms: C_1  and  C_2
REMARK    2  A    between atoms: C_14  and  C_15
REMARK    3  A    between atoms: C_16  and  C_17
REMARK    4  A    between atoms: C_20  and  C_21
REMARK                            x       y       z     vdW  Elec       q    Type
REMARK                         _______ _______ _______ _____ _____    ______ ____
ROOT
ATOM      1  C   UNL     1       7.726   6.639  18.587  0.00  0.00    +0.000 C 
ATOM      2  C   UNL     1       6.481   6.302  17.778  0.00  0.00    +0.000 C 
ATOM      3  O   UNL     1       6.738   6.356  16.377  0.00  0.00    +0.000 OA
ATOM      4  C   UNL     1       5.918   5.453  15.762  0.00  0.00    +0.000 C 
ATOM      5  O   UNL     1       5.564   5.532  14.599  0.00  0.00    +0.000 OA
ATOM      6  C   UNL     1       5.659   4.301  16.698  0.00  0.00    +0.000 C 
ATOM      7  C   UNL     1       4.323   3.596  16.496  0.00  0.00    +0.000 C 
ATOM      8  C   UNL     1       3.871   2.847  17.760  0.00  0.00    +0.000 C 
ATOM      9  C   UNL     1       2.555   2.076  17.503  0.00  0.00    +0.000 C 
ATOM     10  C   UNL     1       1.892   1.527  18.776  0.00  0.00    +0.000 C 
ATOM     11  C   UNL     1       1.813   2.541  19.913  0.00  0.00    +0.000 C 
ATOM     12  C   UNL     1       3.170   3.185  20.159  0.00  0.00    +0.000 C 
ATOM     13  C   UNL     1       3.639   3.870  18.867  0.00  0.00    +0.000 C 
ATOM     14  C   UNL     1       4.803   4.844  19.132  0.00  0.00    +0.000 C 
ATOM     15  C   UNL     1       5.927   4.899  18.071  0.00  0.00    +0.000 C 
ENDROOT
BRANCH  14  16
ATOM     16  C   UNL     1       4.126   6.168  19.355  0.00  0.00    +0.000 C 
ATOM     17  C   UNL     1       2.820   6.397  19.165  0.00  0.00    +0.000 C 
BRANCH  17  18
ATOM     18  C   UNL     1       2.253   7.740  19.284  0.00  0.00    +0.000 A 
ATOM     19  C   UNL     1       1.607   8.112  20.447  0.00  0.00    +0.000 A 
ATOM     20  C   UNL     1       1.001   9.366  20.496  0.00  0.00    +0.000 A 
ATOM     21  C   UNL     1       1.022  10.218  19.385  0.00  0.00    +0.000 A 
ATOM     22  C   UNL     1       1.726   9.749  18.274  0.00  0.00    +0.000 A 
ATOM     23  N   UNL     1       2.338   8.546  18.204  0.00  0.00    +0.000 NA
BRANCH  21  24
ATOM     24  C   UNL     1       0.316  11.510  19.378  0.00  0.00    +0.000 A 
ATOM     25  C   UNL     1      -1.036  11.630  19.732  0.00  0.00    +0.000 A 
ATOM     26  C   UNL     1      -1.667  12.873  19.743  0.00  0.00    +0.000 A 
ATOM     27  C   UNL     1      -0.948  14.007  19.387  0.00  0.00    +0.000 A 
ATOM     28  N   UNL     1       0.381  13.926  19.023  0.00  0.00    +0.000 N 
ATOM     29  O   UNL     1       1.032  14.962  18.693  0.00  0.00    +0.000 OA
ATOM     30  C   UNL     1       0.994  12.686  19.030  0.00  0.00    +0.000 A 
ENDBRANCH  21  24
ENDBRANCH  17  18
ENDBRANCH  14  16
TORSDOF 3
ENDMDL
MODEL 5
REMARK VINA RESULT:      -9.1      1.388      1.711
REMARK  Name = 
REMARK  4 active torsions:
REMARK  status: ('A' for Active; 'I' for Inactive)
REMARK    1  A    between atoms: C_1  and  C_2
REMARK    2  A    between atoms: C_14  and  C_15
REMARK    3  A    between atoms: C_16  and  C_17
REMARK    4  A    between atoms: C_20  and  C_21
REMARK                            x       y       z     vdW  Elec       q    Type
REMARK                         _______ _______ _______ _____ _____    ______ ____
ROOT
ATOM      1  C   UNL     1       7.739   6.628  18.594  0.00  0.00    +0.000 C 
ATOM      2  C   UNL     1       6.499   6.291  17.778  0.00  0.00    +0.000 C 
ATOM      3  O   UNL     1       6.767   6.336  16.379  0.00  0.00    +0.000 OA
ATOM      4  C   UNL     1       5.947   5.433  15.763  0.00  0.00    +0.000 C 
ATOM      5  O   UNL     1       5.603   5.506  14.596  0.00  0.00    +0.000 OA
ATOM      6  C   UNL     1       5.676   4.287  16.703  0.00  0.00    +0.000 C 
ATOM      7  C   UNL     1       4.339   3.587  16.496  0.00  0.00    +0.000 C 
ATOM      8  C   UNL     1       3.874   2.847  17.760  0.00  0.00    +0.000 C 
ATOM      9  C   UNL     1       2.557   2.081  17.498  0.00  0.00    +0.000 C 
ATOM     10  C   UNL     1       1.882   1.542  18.769  0.00  0.00    +0.000 C 
ATOM     11  C   UNL     1       1.800   2.564  19.900  0.00  0.00    +0.000 C 
ATOM     12  C   UNL     1       3.157   3.203  20.153  0.00  0.00    +0.000 C 
ATOM     13  C   UNL     1       3.638   3.878  18.860  0.00  0.00    +0.000 C 
ATOM     14  C   UNL     1       4.805   4.849  19.128  0.00  0.00    +0.000 C 
ATOM     15  C   UNL     1       5.936   4.892  18.075  0.00  0.00    +0.000 C 
ENDROOT
BRANCH  14  16
ATOM     16  C   UNL     1       4.131   6.178  19.338  0.00  0.00    +0.000 C 
ATOM     17  C   UNL     1       2.837   6.422  19.096  0.00  0.00    +0.000 C 
BRANCH  17  18
ATOM     18  C   UNL     1       2.278   7.769  19.207  0.00  0.00    +0.000 A 
ATOM     19  C   UNL     1       1.614   8.144  20.359  0.00  0.00    +0.000 A 
ATOM     20  C   UNL     1       1.018   9.402  20.399  0.00  0.00    +0.000 A 
ATOM     21  C   UNL     1       1.066  10.256  19.290  0.00  0.00    +0.000 A 
ATOM     22  C   UNL     1       1.786   9.783  18.191  0.00  0.00    +0.000 A 
ATOM     23  N   UNL     1       2.390   8.576  18.130  0.00  0.00    +0.000 NA
BRANCH  21  24
ATOM     24  C   UNL     1       0.369  11.553  19.272  0.00  0.00    +0.000 A 
ATOM     25  C   UNL     1       0.963  12.719  18.765  0.00  0.00    +0.000 A 
ATOM     26  C   UNL     1       0.264  13.925  18.736  0.00  0.00    +0.000 A 
ATOM     27  C   UNL     1      -1.035  13.974  19.226  0.00  0.00    +0.000 A 
ATOM     28  N   UNL     1      -1.648  12.849  19.740  0.00  0.00    +0.000 N 
ATOM     29  O   UNL     1      -2.831  12.899  20.191  0.00  0.00    +0.000 OA
ATOM     30  C   UNL     1      -0.943  11.659  19.750  0.00  0.00    +0.000 A 
ENDBRANCH  21  24
ENDBRANCH  17  18
ENDBRANCH  14  16
TORSDOF 3
ENDMDL
MODEL 6
REMARK VINA RESULT:      -9.1      2.749      4.408
REMARK  Name = 
REMARK  4 active torsions:
REMARK  status: ('A' for Active; 'I' for Inactive)
REMARK    1  A    between atoms: C_1  and  C_2
REMARK    2  A    between atoms: C_14  and  C_15
REMARK    3  A    between atoms: C_16  and  C_17
REMARK    4  A    between atoms: C_20  and  C_21
REMARK                            x       y       z     vdW  Elec       q    Type
REMARK                         _______ _______ _______ _____ _____    ______ ____
ROOT
ATOM      1  C   UNL     1       0.124   2.783  18.575  0.00  0.00    +0.000 C 
ATOM      2  C   UNL     1       1.317   3.352  19.331  0.00  0.00    +0.000 C 
ATOM      3  O   UNL     1       1.573   2.620  20.528  0.00  0.00    +0.000 OA
ATOM      4  C   UNL     1       2.914   2.679  20.780  0.00  0.00    +0.000 C 
ATOM      5  O   UNL     1       3.409   2.551  21.886  0.00  0.00    +0.000 OA
ATOM      6  C   UNL     1       3.660   2.770  19.474  0.00  0.00    +0.000 C 
ATOM      7  C   UNL     1       4.999   3.495  19.547  0.00  0.00    +0.000 C 
ATOM      8  C   UNL     1       5.434   4.041  18.178  0.00  0.00    +0.000 C 
ATOM      9  C   UNL     1       6.830   4.699  18.265  0.00  0.00    +0.000 C 
ATOM     10  C   UNL     1       7.221   5.506  17.017  0.00  0.00    +0.000 C 
ATOM     11  C   UNL     1       6.118   6.436  16.518  0.00  0.00    +0.000 C 
ATOM     12  C   UNL     1       4.802   5.686  16.374  0.00  0.00    +0.000 C 
ATOM     13  C   UNL     1       4.417   5.088  17.735  0.00  0.00    +0.000 C 
ATOM     14  C   UNL     1       2.942   4.643  17.761  0.00  0.00    +0.000 C 
ATOM     15  C   UNL     1       2.620   3.332  18.516  0.00  0.00    +0.000 C 
ENDROOT
BRANCH  14  16
ATOM     16  C   UNL     1       2.210   5.841  18.303  0.00  0.00    +0.000 C 
ATOM     17  C   UNL     1       2.728   6.723  19.167  0.00  0.00    +0.000 C 
BRANCH  17  18
ATOM     18  C   UNL     1       1.918   7.795  19.744  0.00  0.00    +0.000 A 
ATOM     19  C   UNL     1       1.592   8.898  18.978  0.00  0.00    +0.000 A 
ATOM     20  C   UNL     1       0.894   9.941  19.583  0.00  0.00    +0.000 A 
ATOM     21  C   UNL     1       0.555   9.886  20.941  0.00  0.00    +0.000 A 
ATOM     22  C   UNL     1       0.911   8.713  21.609  0.00  0.00    +0.000 A 
ATOM     23  N   UNL     1       1.572   7.678  21.044  0.00  0.00    +0.000 NA
BRANCH  21  24
ATOM     24  C   UNL     1      -0.103  11.010  21.628  0.00  0.00    +0.000 A 
ATOM     25  C   UNL     1      -1.064  10.821  22.632  0.00  0.00    +0.000 A 
ATOM     26  C   UNL     1      -1.645  11.907  23.283  0.00  0.00    +0.000 A 
ATOM     27  C   UNL     1      -1.275  13.197  22.923  0.00  0.00    +0.000 A 
ATOM     28  N   UNL     1      -0.339  13.423  21.933  0.00  0.00    +0.000 N 
ATOM     29  O   UNL     1      -0.008  14.600  21.604  0.00  0.00    +0.000 OA
ATOM     30  C   UNL     1       0.236  12.332  21.307  0.00  0.00    +0.000 A 
ENDBRANCH  21  24
ENDBRANCH  17  18
ENDBRANCH  14  16
TORSDOF 3
ENDMDL
MODEL 7
REMARK VINA RESULT:      -9.1      2.787      4.469
REMARK  Name = 
REMARK  4 active torsions:
REMARK  status: ('A' for Active; 'I' for Inactive)
REMARK    1  A    between atoms: C_1  and  C_2
REMARK    2  A    between atoms: C_14  and  C_15
REMARK    3  A    between atoms: C_16  and  C_17
REMARK    4  A    between atoms: C_20  and  C_21
REMARK                            x       y       z     vdW  Elec       q    Type
REMARK                         _______ _______ _______ _____ _____    ______ ____
ROOT
ATOM      1  C   UNL     1       0.392   3.221  18.550  0.00  0.00    +0.000 C 
ATOM      2  C   UNL     1       1.643   3.595  19.333  0.00  0.00    +0.000 C 
ATOM      3  O   UNL     1       1.952   2.615  20.322  0.00  0.00    +0.000 OA
ATOM      4  C   UNL     1       3.307   2.600  20.492  0.00  0.00    +0.000 C 
ATOM      5  O   UNL     1       3.864   2.227  21.510  0.00  0.00    +0.000 OA
ATOM      6  C   UNL     1       3.974   2.969  19.193  0.00  0.00    +0.000 C 
ATOM      7  C   UNL     1       5.333   3.644  19.336  0.00  0.00    +0.000 C 
ATOM      8  C   UNL     1       5.698   4.473  18.095  0.00  0.00    +0.000 C 
ATOM      9  C   UNL     1       7.114   5.080  18.233  0.00  0.00    +0.000 C 
ATOM     10  C   UNL     1       7.448   6.138  17.170  0.00  0.00    +0.000 C 
ATOM     11  C   UNL     1       6.342   7.168  16.959  0.00  0.00    +0.000 C 
ATOM     12  C   UNL     1       5.001   6.484  16.740  0.00  0.00    +0.000 C 
ATOM     13  C   UNL     1       4.684   5.605  17.960  0.00  0.00    +0.000 C 
ATOM     14  C   UNL     1       3.202   5.181  17.983  0.00  0.00    +0.000 C 
ATOM     15  C   UNL     1       2.892   3.741  18.451  0.00  0.00    +0.000 C 
ENDROOT
BRANCH  14  16
ATOM     16  C   UNL     1       2.535   6.239  18.820  0.00  0.00    +0.000 C 
ATOM     17  C   UNL     1       2.231   7.470  18.390  0.00  0.00    +0.000 C 
BRANCH  17  18
ATOM     18  C   UNL     1       1.694   8.486  19.295  0.00  0.00    +0.000 A 
ATOM     19  C   UNL     1       1.435   8.163  20.614  0.00  0.00    +0.000 A 
ATOM     20  C   UNL     1       0.842   9.126  21.427  0.00  0.00    +0.000 A 
ATOM     21  C   UNL     1       0.493  10.383  20.915  0.00  0.00    +0.000 A 
ATOM     22  C   UNL     1       0.826  10.607  19.578  0.00  0.00    +0.000 A 
ATOM     23  N   UNL     1       1.417   9.699  18.770  0.00  0.00    +0.000 NA
BRANCH  21  24
ATOM     24  C   UNL     1      -0.214  11.388  21.726  0.00  0.00    +0.000 A 
ATOM     25  C   UNL     1      -1.236  11.046  22.625  0.00  0.00    +0.000 A 
ATOM     26  C   UNL     1      -1.864  12.019  23.400  0.00  0.00    +0.000 A 
ATOM     27  C   UNL     1      -1.480  13.348  23.271  0.00  0.00    +0.000 A 
ATOM     28  N   UNL     1      -0.485  13.723  22.391  0.00  0.00    +0.000 N 
ATOM     29  O   UNL     1      -0.141  14.936  22.272  0.00  0.00    +0.000 OA
ATOM     30  C   UNL     1       0.135  12.742  21.639  0.00  0.00    +0.000 A 
ENDBRANCH  21  24
ENDBRANCH  17  18
ENDBRANCH  14  16
TORSDOF 3
ENDMDL
MODEL 8
REMARK VINA RESULT:      -9.0      3.365      9.730
REMARK  Name = 
REMARK  4 active torsions:
REMARK  status: ('A' for Active; 'I' for Inactive)
REMARK    1  A    between atoms: C_1  and  C_2
REMARK    2  A    between atoms: C_14  and  C_15
REMARK    3  A    between atoms: C_16  and  C_17
REMARK    4  A    between atoms: C_20  and  C_21
REMARK                            x       y       z     vdW  Elec       q    Type
REMARK                         _______ _______ _______ _____ _____    ______ ____
ROOT
ATOM      1  C   UNL     1       1.131  13.628  21.190  0.00  0.00    +0.000 C 
ATOM      2  C   UNL     1      -0.099  12.747  21.363  0.00  0.00    +0.000 C 
ATOM      3  O   UNL     1      -0.740  12.986  22.613  0.00  0.00    +0.000 OA
ATOM      4  C   UNL     1      -2.076  12.749  22.454  0.00  0.00    +0.000 C 
ATOM      5  O   UNL     1      -2.829  12.441  23.361  0.00  0.00    +0.000 OA
ATOM      6  C   UNL     1      -2.472  13.075  21.037  0.00  0.00    +0.000 C 
ATOM      7  C   UNL     1      -3.657  12.280  20.501  0.00  0.00    +0.000 C 
ATOM      8  C   UNL     1      -3.667  12.226  18.965  0.00  0.00    +0.000 C 
ATOM      9  C   UNL     1      -4.921  11.484  18.447  0.00  0.00    +0.000 C 
ATOM     10  C   UNL     1      -4.875  11.147  16.949  0.00  0.00    +0.000 C 
ATOM     11  C   UNL     1      -3.552  10.534  16.498  0.00  0.00    +0.000 C 
ATOM     12  C   UNL     1      -2.376  11.376  16.972  0.00  0.00    +0.000 C 
ATOM     13  C   UNL     1      -2.421  11.477  18.504  0.00  0.00    +0.000 C 
ATOM     14  C   UNL     1      -1.084  11.986  19.077  0.00  0.00    +0.000 C 
ATOM     15  C   UNL     1      -1.161  12.963  20.273  0.00  0.00    +0.000 C 
ENDROOT
BRANCH  14  16
ATOM     16  C   UNL     1      -0.316  10.728  19.380  0.00  0.00    +0.000 C 
ATOM     17  C   UNL     1       0.799  10.346  18.745  0.00  0.00    +0.000 C 
BRANCH  17  18
ATOM     18  C   UNL     1       1.424   9.050  19.009  0.00  0.00    +0.000 A 
ATOM     19  C   UNL     1       2.048   8.366  17.983  0.00  0.00    +0.000 A 
ATOM     20  C   UNL     1       2.556   7.096  18.246  0.00  0.00    +0.000 A 
ATOM     21  C   UNL     1       2.415   6.514  19.513  0.00  0.00    +0.000 A 
ATOM     22  C   UNL     1       1.791   7.307  20.479  0.00  0.00    +0.000 A 
ATOM     23  N   UNL     1       1.305   8.548  20.257  0.00  0.00    +0.000 NA
BRANCH  21  24
ATOM     24  C   UNL     1       2.862   5.140  19.795  0.00  0.00    +0.000 A 
ATOM     25  C   UNL     1       3.898   4.523  19.078  0.00  0.00    +0.000 A 
ATOM     26  C   UNL     1       4.317   3.232  19.391  0.00  0.00    +0.000 A 
ATOM     27  C   UNL     1       3.691   2.541  20.422  0.00  0.00    +0.000 A 
ATOM     28  N   UNL     1       2.662   3.113  21.144  0.00  0.00    +0.000 N 
ATOM     29  O   UNL     1       2.090   2.478  22.079  0.00  0.00    +0.000 OA
ATOM     30  C   UNL     1       2.268   4.400  20.826  0.00  0.00    +0.000 A 
ENDBRANCH  21  24
ENDBRANCH  17  18
ENDBRANCH  14  16
TORSDOF 3
ENDMDL
MODEL 9
REMARK VINA RESULT:      -9.0      2.979      4.562
REMARK  Name = 
REMARK  4 active torsions:
REMARK  status: ('A' for Active; 'I' for Inactive)
REMARK    1  A    between atoms: C_1  and  C_2
REMARK    2  A    between atoms: C_14  and  C_15
REMARK    3  A    between atoms: C_16  and  C_17
REMARK    4  A    between atoms: C_20  and  C_21
REMARK                            x       y       z     vdW  Elec       q    Type
REMARK                         _______ _______ _______ _____ _____    ______ ____
ROOT
ATOM      1  C   UNL     1       0.248   2.646  18.492  0.00  0.00    +0.000 C 
ATOM      2  C   UNL     1       1.434   3.243  19.237  0.00  0.00    +0.000 C 
ATOM      3  O   UNL     1       1.736   2.502  20.416  0.00  0.00    +0.000 OA
ATOM      4  C   UNL     1       3.079   2.603  20.645  0.00  0.00    +0.000 C 
ATOM      5  O   UNL     1       3.598   2.475  21.741  0.00  0.00    +0.000 OA
ATOM      6  C   UNL     1       3.798   2.743  19.328  0.00  0.00    +0.000 C 
ATOM      7  C   UNL     1       5.111   3.513  19.391  0.00  0.00    +0.000 C 
ATOM      8  C   UNL     1       5.502   4.097  18.024  0.00  0.00    +0.000 C 
ATOM      9  C   UNL     1       6.876   4.803  18.098  0.00  0.00    +0.000 C 
ATOM     10  C   UNL     1       7.216   5.644  16.858  0.00  0.00    +0.000 C 
ATOM     11  C   UNL     1       6.073   6.542  16.394  0.00  0.00    +0.000 C 
ATOM     12  C   UNL     1       4.781   5.749  16.260  0.00  0.00    +0.000 C 
ATOM     13  C   UNL     1       4.442   5.115  17.617  0.00  0.00    +0.000 C 
ATOM     14  C   UNL     1       2.984   4.617  17.661  0.00  0.00    +0.000 C 
ATOM     15  C   UNL     1       2.721   3.284  18.399  0.00  0.00    +0.000 C 
ENDROOT
BRANCH  14  16
ATOM     16  C   UNL     1       2.220   5.779  18.236  0.00  0.00    +0.000 C 
ATOM     17  C   UNL     1       2.735   6.997  18.449  0.00  0.00    +0.000 C 
BRANCH  17  18
ATOM     18  C   UNL     1       1.968   8.044  19.124  0.00  0.00    +0.000 A 
ATOM     19  C   UNL     1       1.545   9.151  18.414  0.00  0.00    +0.000 A 
ATOM     20  C   UNL     1       0.893  10.172  19.104  0.00  0.00    +0.000 A 
ATOM     21  C   UNL     1       0.696  10.090  20.488  0.00  0.00    +0.000 A 
ATOM     22  C   UNL     1       1.141   8.915  21.097  0.00  0.00    +0.000 A 
ATOM     23  N   UNL     1       1.759   7.901  20.450  0.00  0.00    +0.000 NA
BRANCH  21  24
ATOM     24  C   UNL     1       0.092  11.191  21.257  0.00  0.00    +0.000 A 
ATOM     25  C   UNL     1       0.557  12.512  21.173  0.00  0.00    +0.000 A 
ATOM     26  C   UNL     1      -0.058  13.535  21.892  0.00  0.00    +0.000 A 
ATOM     27  C   UNL     1      -1.140  13.240  22.712  0.00  0.00    +0.000 A 
ATOM     28  N   UNL     1      -1.619  11.951  22.827  0.00  0.00    +0.000 N 
ATOM     29  O   UNL     1      -2.602  11.684  23.580  0.00  0.00    +0.000 OA
ATOM     30  C   UNL     1      -1.004  10.950  22.097  0.00  0.00    +0.000 A 
ENDBRANCH  21  24
ENDBRANCH  17  18
ENDBRANCH  14  16
TORSDOF 3
ENDMDL
