MODEL 1
REMARK VINA RESULT:      -7.9      0.000      0.000
REMARK  Name = 
REMARK  9 active torsions:
REMARK  status: ('A' for Active; 'I' for Inactive)
REMARK    1  A    between atoms: C_1  and  O_2
REMARK    2  A    between atoms: O_2  and  C_3
REMARK    3  A    between atoms: C_6  and  N_7
REMARK    4  A    between atoms: C_11  and  S_12
REMARK    5  A    between atoms: S_12  and  C_13
REMARK    6  A    between atoms: C_13  and  C_14
REMARK    7  A    between atoms: C_14  and  C_16
REMARK    8  A    between atoms: C_26  and  O_27
REMARK    9  A    between atoms: O_27  and  C_28
REMARK                            x       y       z     vdW  Elec       q    Type
REMARK                         _______ _______ _______ _____ _____    ______ ____
ROOT
ATOM      1  N   UNL     1       3.984   3.386  17.747  0.00  0.00    +0.000 N 
ATOM      2  N   UNL     1       4.036   2.119  18.247  0.00  0.00    +0.000 NA
ATOM      3  N   UNL     1       2.993   1.977  19.047  0.00  0.00    +0.000 NA
ATOM      4  N   UNL     1       2.233   3.107  19.064  0.00  0.00    +0.000 NA
ATOM      5  C   UNL     1       2.844   3.978  18.289  0.00  0.00    +0.000 A 
ENDROOT
BRANCH   1   9
ATOM      6  C   UNL     1       7.008   5.001  15.231  0.00  0.00    +0.000 A 
ATOM      7  C   UNL     1       5.882   4.385  14.684  0.00  0.00    +0.000 A 
ATOM      8  C   UNL     1       4.897   3.819  15.504  0.00  0.00    +0.000 A 
ATOM      9  C   UNL     1       5.022   3.871  16.899  0.00  0.00    +0.000 A 
ATOM     10  C   UNL     1       6.171   4.483  17.454  0.00  0.00    +0.000 A 
ATOM     11  C   UNL     1       7.157   5.028  16.615  0.00  0.00    +0.000 A 
BRANCH   6  13
ATOM     12  C   UNL     1       7.764   5.081  12.974  0.00  0.00    +0.000 C 
ATOM     13  O   UNL     1       7.886   5.526  14.322  0.00  0.00    +0.000 OA
ENDBRANCH   6  13
BRANCH  10  14
ATOM     14  O   UNL     1       6.358   4.409  18.813  0.00  0.00    +0.000 OA
ATOM     15  C   UNL     1       6.979   5.533  19.429  0.00  0.00    +0.000 C 
ENDBRANCH  10  14
ENDBRANCH   1   9
BRANCH   5  16
ATOM     16  S   UNL     1       2.182   5.529  17.872  0.00  0.00    +0.000 S 
BRANCH  16  17
ATOM     17  C   UNL     1       2.888   6.601  19.170  0.00  0.00    +0.000 C 
BRANCH  17  18
ATOM     18  C   UNL     1       1.923   6.896  20.305  0.00  0.00    +0.000 C 
ATOM     19  O   UNL     1       1.561   6.054  21.122  0.00  0.00    +0.000 OA
BRANCH  18  20
ATOM     20  C   UNL     1       1.406   8.300  20.458  0.00  0.00    +0.000 A 
ATOM     21  C   UNL     1       1.352   9.232  19.411  0.00  0.00    +0.000 A 
ATOM     22  C   UNL     1       0.808  10.510  19.630  0.00  0.00    +0.000 A 
ATOM     23  C   UNL     1       0.302  10.859  20.878  0.00  0.00    +0.000 A 
ATOM     24  C   UNL     1       0.403   9.953  21.931  0.00  0.00    +0.000 A 
ATOM     25  C   UNL     1       0.951   8.687  21.726  0.00  0.00    +0.000 A 
ATOM     26  O   UNL     1      -0.022  10.245  23.199  0.00  0.00    +0.000 OA
ATOM     27  C   UNL     1      -1.129  11.140  23.135  0.00  0.00    +0.000 C 
ATOM     28  C   UNL     1      -0.810  12.371  22.298  0.00  0.00    +0.000 C 
ATOM     29  O   UNL     1      -0.304  12.080  20.987  0.00  0.00    +0.000 OA
ENDBRANCH  18  20
ENDBRANCH  17  18
ENDBRANCH  16  17
ENDBRANCH   5  16
TORSDOF 7
ENDMDL
MODEL 2
REMARK VINA RESULT:      -7.9      1.230      1.299
REMARK  Name = 
REMARK  9 active torsions:
REMARK  status: ('A' for Active; 'I' for Inactive)
REMARK    1  A    between atoms: C_1  and  O_2
REMARK    2  A    between atoms: O_2  and  C_3
REMARK    3  A    between atoms: C_6  and  N_7
REMARK    4  A    between atoms: C_11  and  S_12
REMARK    5  A    between atoms: S_12  and  C_13
REMARK    6  A    between atoms: C_13  and  C_14
REMARK    7  A    between atoms: C_14  and  C_16
REMARK    8  A    between atoms: C_26  and  O_27
REMARK    9  A    between atoms: O_27  and  C_28
REMARK                            x       y       z     vdW  Elec       q    Type
REMARK                         _______ _______ _______ _____ _____    ______ ____
ROOT
ATOM      1  N   UNL     1       4.412   3.224  19.251  0.00  0.00    +0.000 N 
ATOM      2  N   UNL     1       5.055   2.341  20.067  0.00  0.00    +0.000 NA
ATOM      3  N   UNL     1       4.243   2.088  21.078  0.00  0.00    +0.000 NA
ATOM      4  N   UNL     1       3.064   2.755  20.937  0.00  0.00    +0.000 NA
ATOM      5  C   UNL     1       3.169   3.467  19.835  0.00  0.00    +0.000 A 
ENDROOT
BRANCH   1   9
ATOM      6  C   UNL     1       6.251   4.942  15.823  0.00  0.00    +0.000 A 
ATOM      7  C   UNL     1       5.221   4.011  15.686  0.00  0.00    +0.000 A 
ATOM      8  C   UNL     1       4.632   3.413  16.808  0.00  0.00    +0.000 A 
ATOM      9  C   UNL     1       5.065   3.750  18.098  0.00  0.00    +0.000 A 
ATOM     10  C   UNL     1       6.119   4.683  18.238  0.00  0.00    +0.000 A 
ATOM     11  C   UNL     1       6.709   5.258  17.100  0.00  0.00    +0.000 A 
BRANCH   6  13
ATOM     12  C   UNL     1       6.804   4.578  13.536  0.00  0.00    +0.000 C 
ATOM     13  O   UNL     1       6.728   5.461  14.651  0.00  0.00    +0.000 OA
ENDBRANCH   6  13
BRANCH  10  14
ATOM     14  O   UNL     1       6.633   4.906  19.492  0.00  0.00    +0.000 OA
ATOM     15  C   UNL     1       7.675   5.871  19.587  0.00  0.00    +0.000 C 
ENDBRANCH  10  14
ENDBRANCH   1   9
BRANCH   5  16
ATOM     16  S   UNL     1       1.861   4.380  19.148  0.00  0.00    +0.000 S 
BRANCH  16  17
ATOM     17  C   UNL     1       1.774   5.818  20.270  0.00  0.00    +0.000 C 
BRANCH  17  18
ATOM     18  C   UNL     1       2.269   7.109  19.642  0.00  0.00    +0.000 C 
ATOM     19  O   UNL     1       3.207   7.162  18.851  0.00  0.00    +0.000 OA
BRANCH  18  20
ATOM     20  C   UNL     1       1.555   8.389  19.980  0.00  0.00    +0.000 A 
ATOM     21  C   UNL     1       1.193   9.356  19.031  0.00  0.00    +0.000 A 
ATOM     22  C   UNL     1       0.484  10.504  19.427  0.00  0.00    +0.000 A 
ATOM     23  C   UNL     1       0.118  10.685  20.757  0.00  0.00    +0.000 A 
ATOM     24  C   UNL     1       0.522   9.751  21.707  0.00  0.00    +0.000 A 
ATOM     25  C   UNL     1       1.236   8.614  21.326  0.00  0.00    +0.000 A 
ATOM     26  O   UNL     1       0.247   9.889  23.041  0.00  0.00    +0.000 OA
ATOM     27  C   UNL     1      -0.990  10.578  23.202  0.00  0.00    +0.000 C 
ATOM     28  C   UNL     1      -1.006  11.893  22.435  0.00  0.00    +0.000 C 
ATOM     29  O   UNL     1      -0.659  11.773  21.048  0.00  0.00    +0.000 OA
ENDBRANCH  18  20
ENDBRANCH  17  18
ENDBRANCH  16  17
ENDBRANCH   5  16
TORSDOF 7
ENDMDL
MODEL 3
REMARK VINA RESULT:      -7.7      1.167      1.232
REMARK  Name = 
REMARK  9 active torsions:
REMARK  status: ('A' for Active; 'I' for Inactive)
REMARK    1  A    between atoms: C_1  and  O_2
REMARK    2  A    between atoms: O_2  and  C_3
REMARK    3  A    between atoms: C_6  and  N_7
REMARK    4  A    between atoms: C_11  and  S_12
REMARK    5  A    between atoms: S_12  and  C_13
REMARK    6  A    between atoms: C_13  and  C_14
REMARK    7  A    between atoms: C_14  and  C_16
REMARK    8  A    between atoms: C_26  and  O_27
REMARK    9  A    between atoms: O_27  and  C_28
REMARK                            x       y       z     vdW  Elec       q    Type
REMARK                         _______ _______ _______ _____ _____    ______ ____
ROOT
ATOM      1  N   UNL     1       4.261   3.652  17.917  0.00  0.00    +0.000 N 
ATOM      2  N   UNL     1       3.731   2.396  17.901  0.00  0.00    +0.000 NA
ATOM      3  N   UNL     1       2.938   2.298  18.953  0.00  0.00    +0.000 NA
ATOM      4  N   UNL     1       2.903   3.467  19.649  0.00  0.00    +0.000 NA
ATOM      5  C   UNL     1       3.724   4.292  19.034  0.00  0.00    +0.000 A 
ENDROOT
BRANCH   1   9
ATOM      6  C   UNL     1       7.078   4.996  15.029  0.00  0.00    +0.000 A 
ATOM      7  C   UNL     1       5.820   4.539  14.636  0.00  0.00    +0.000 A 
ATOM      8  C   UNL     1       4.897   4.062  15.576  0.00  0.00    +0.000 A 
ATOM      9  C   UNL     1       5.222   4.044  16.940  0.00  0.00    +0.000 A 
ATOM     10  C   UNL     1       6.503   4.494  17.338  0.00  0.00    +0.000 A 
ATOM     11  C   UNL     1       7.421   4.952  16.377  0.00  0.00    +0.000 A 
BRANCH   6  13
ATOM     12  C   UNL     1       7.584   4.981  12.702  0.00  0.00    +0.000 C 
ATOM     13  O   UNL     1       7.877   5.449  14.015  0.00  0.00    +0.000 OA
ENDBRANCH   6  13
BRANCH  10  14
ATOM     14  O   UNL     1       6.868   4.346  18.653  0.00  0.00    +0.000 OA
ATOM     15  C   UNL     1       7.598   5.422  19.233  0.00  0.00    +0.000 C 
ENDBRANCH  10  14
ENDBRANCH   1   9
BRANCH   5  16
ATOM     16  S   UNL     1       3.911   5.965  19.460  0.00  0.00    +0.000 S 
BRANCH  16  17
ATOM     17  C   UNL     1       2.204   6.591  19.288  0.00  0.00    +0.000 C 
BRANCH  17  18
ATOM     18  C   UNL     1       2.122   7.955  18.627  0.00  0.00    +0.000 C 
ATOM     19  O   UNL     1       2.698   8.236  17.579  0.00  0.00    +0.000 OA
BRANCH  18  20
ATOM     20  C   UNL     1       1.266   9.012  19.270  0.00  0.00    +0.000 A 
ATOM     21  C   UNL     1       0.514   9.953  18.551  0.00  0.00    +0.000 A 
ATOM     22  C   UNL     1      -0.298  10.877  19.232  0.00  0.00    +0.000 A 
ATOM     23  C   UNL     1      -0.379  10.858  20.621  0.00  0.00    +0.000 A 
ATOM     24  C   UNL     1       0.408   9.960  21.337  0.00  0.00    +0.000 A 
ATOM     25  C   UNL     1       1.225   9.046  20.670  0.00  0.00    +0.000 A 
ATOM     26  O   UNL     1       0.423   9.920  22.705  0.00  0.00    +0.000 OA
ATOM     27  C   UNL     1      -0.855  10.302  23.206  0.00  0.00    +0.000 C 
ATOM     28  C   UNL     1      -1.305  11.640  22.638  0.00  0.00    +0.000 C 
ATOM     29  O   UNL     1      -1.267  11.718  21.206  0.00  0.00    +0.000 OA
ENDBRANCH  18  20
ENDBRANCH  17  18
ENDBRANCH  16  17
ENDBRANCH   5  16
TORSDOF 7
ENDMDL
MODEL 4
REMARK VINA RESULT:      -7.7      1.607      2.133
REMARK  Name = 
REMARK  9 active torsions:
REMARK  status: ('A' for Active; 'I' for Inactive)
REMARK    1  A    between atoms: C_1  and  O_2
REMARK    2  A    between atoms: O_2  and  C_3
REMARK    3  A    between atoms: C_6  and  N_7
REMARK    4  A    between atoms: C_11  and  S_12
REMARK    5  A    between atoms: S_12  and  C_13
REMARK    6  A    between atoms: C_13  and  C_14
REMARK    7  A    between atoms: C_14  and  C_16
REMARK    8  A    between atoms: C_26  and  O_27
REMARK    9  A    between atoms: O_27  and  C_28
REMARK                            x       y       z     vdW  Elec       q    Type
REMARK                         _______ _______ _______ _____ _____    ______ ____
ROOT
ATOM      1  N   UNL     1       4.235   3.381  19.387  0.00  0.00    +0.000 N 
ATOM      2  N   UNL     1       4.788   2.318  20.039  0.00  0.00    +0.000 NA
ATOM      3  N   UNL     1       4.028   2.075  21.093  0.00  0.00    +0.000 NA
ATOM      4  N   UNL     1       2.968   2.928  21.139  0.00  0.00    +0.000 NA
ATOM      5  C   UNL     1       3.100   3.741  20.112  0.00  0.00    +0.000 A 
ENDROOT
BRANCH   1   9
ATOM      6  C   UNL     1       6.027   5.179  15.976  0.00  0.00    +0.000 A 
ATOM      7  C   UNL     1       4.992   4.255  15.831  0.00  0.00    +0.000 A 
ATOM      8  C   UNL     1       4.418   3.631  16.947  0.00  0.00    +0.000 A 
ATOM      9  C   UNL     1       4.872   3.934  18.238  0.00  0.00    +0.000 A 
ATOM     10  C   UNL     1       5.932   4.860  18.384  0.00  0.00    +0.000 A 
ATOM     11  C   UNL     1       6.507   5.461  17.252  0.00  0.00    +0.000 A 
BRANCH   6  13
ATOM     12  C   UNL     1       7.188   4.860  13.921  0.00  0.00    +0.000 C 
ATOM     13  O   UNL     1       6.488   5.726  14.809  0.00  0.00    +0.000 OA
ENDBRANCH   6  13
BRANCH  10  14
ATOM     14  O   UNL     1       6.466   5.049  19.635  0.00  0.00    +0.000 OA
ATOM     15  C   UNL     1       7.746   5.671  19.690  0.00  0.00    +0.000 C 
ENDBRANCH  10  14
ENDBRANCH   1   9
BRANCH   5  16
ATOM     16  S   UNL     1       1.909   4.920  19.655  0.00  0.00    +0.000 S 
BRANCH  16  17
ATOM     17  C   UNL     1       2.828   6.484  19.863  0.00  0.00    +0.000 C 
BRANCH  17  18
ATOM     18  C   UNL     1       2.304   7.615  18.996  0.00  0.00    +0.000 C 
ATOM     19  O   UNL     1       2.589   7.746  17.808  0.00  0.00    +0.000 OA
BRANCH  18  20
ATOM     20  C   UNL     1       1.363   8.613  19.612  0.00  0.00    +0.000 A 
ATOM     21  C   UNL     1       0.961   8.582  20.956  0.00  0.00    +0.000 A 
ATOM     22  C   UNL     1       0.114   9.583  21.463  0.00  0.00    +0.000 A 
ATOM     23  C   UNL     1      -0.319  10.624  20.646  0.00  0.00    +0.000 A 
ATOM     24  C   UNL     1       0.038  10.627  19.301  0.00  0.00    +0.000 A 
ATOM     25  C   UNL     1       0.869   9.631  18.785  0.00  0.00    +0.000 A 
ATOM     26  O   UNL     1      -0.395  11.586  18.425  0.00  0.00    +0.000 OA
ATOM     27  C   UNL     1      -0.566  12.820  19.118  0.00  0.00    +0.000 C 
ATOM     28  C   UNL     1      -1.460  12.659  20.339  0.00  0.00    +0.000 C 
ATOM     29  O   UNL     1      -1.054  11.615  21.236  0.00  0.00    +0.000 OA
ENDBRANCH  18  20
ENDBRANCH  17  18
ENDBRANCH  16  17
ENDBRANCH   5  16
TORSDOF 7
ENDMDL
MODEL 5
REMARK VINA RESULT:      -7.6      2.373      9.229
REMARK  Name = 
REMARK  9 active torsions:
REMARK  status: ('A' for Active; 'I' for Inactive)
REMARK    1  A    between atoms: C_1  and  O_2
REMARK    2  A    between atoms: O_2  and  C_3
REMARK    3  A    between atoms: C_6  and  N_7
REMARK    4  A    between atoms: C_11  and  S_12
REMARK    5  A    between atoms: S_12  and  C_13
REMARK    6  A    between atoms: C_13  and  C_14
REMARK    7  A    between atoms: C_14  and  C_16
REMARK    8  A    between atoms: C_26  and  O_27
REMARK    9  A    between atoms: O_27  and  C_28
REMARK                            x       y       z     vdW  Elec       q    Type
REMARK                         _______ _______ _______ _____ _____    ______ ____
ROOT
ATOM      1  N   UNL     1       1.817   8.423  19.202  0.00  0.00    +0.000 N 
ATOM      2  N   UNL     1       2.194   9.155  18.115  0.00  0.00    +0.000 NA
ATOM      3  N   UNL     1       2.955   8.374  17.369  0.00  0.00    +0.000 NA
ATOM      4  N   UNL     1       3.066   7.132  17.916  0.00  0.00    +0.000 NA
ATOM      5  C   UNL     1       2.391   7.161  19.045  0.00  0.00    +0.000 A 
ENDROOT
BRANCH   1   9
ATOM      6  C   UNL     1      -0.386  10.342  22.291  0.00  0.00    +0.000 A 
ATOM      7  C   UNL     1       0.615   9.421  22.599  0.00  0.00    +0.000 A 
ATOM      8  C   UNL     1       1.323   8.757  21.588  0.00  0.00    +0.000 A 
ATOM      9  C   UNL     1       1.042   9.017  20.240  0.00  0.00    +0.000 A 
ATOM     10  C   UNL     1       0.017   9.940  19.927  0.00  0.00    +0.000 A 
ATOM     11  C   UNL     1      -0.695  10.582  20.954  0.00  0.00    +0.000 A 
BRANCH   6  13
ATOM     12  C   UNL     1      -1.515  12.241  23.180  0.00  0.00    +0.000 C 
ATOM     13  O   UNL     1      -0.990  10.931  23.369  0.00  0.00    +0.000 OA
ENDBRANCH   6  13
BRANCH  10  14
ATOM     14  O   UNL     1      -0.350  10.088  18.612  0.00  0.00    +0.000 OA
ATOM     15  C   UNL     1      -1.685  10.521  18.371  0.00  0.00    +0.000 C 
ENDBRANCH  10  14
ENDBRANCH   1   9
BRANCH   5  16
ATOM     16  S   UNL     1       2.112   5.765  20.040  0.00  0.00    +0.000 S 
BRANCH  16  17
ATOM     17  C   UNL     1       2.466   4.400  18.881  0.00  0.00    +0.000 C 
BRANCH  17  18
ATOM     18  C   UNL     1       3.864   3.825  19.029  0.00  0.00    +0.000 C 
ATOM     19  O   UNL     1       4.182   3.036  19.915  0.00  0.00    +0.000 OA
BRANCH  18  20
ATOM     20  C   UNL     1       4.910   4.218  18.021  0.00  0.00    +0.000 A 
ATOM     21  C   UNL     1       6.194   4.667  18.362  0.00  0.00    +0.000 A 
ATOM     22  C   UNL     1       7.128   4.968  17.354  0.00  0.00    +0.000 A 
ATOM     23  C   UNL     1       6.796   4.807  16.013  0.00  0.00    +0.000 A 
ATOM     24  C   UNL     1       5.505   4.412  15.673  0.00  0.00    +0.000 A 
ATOM     25  C   UNL     1       4.569   4.121  16.665  0.00  0.00    +0.000 A 
ATOM     26  O   UNL     1       5.090   4.285  14.374  0.00  0.00    +0.000 OA
ATOM     27  C   UNL     1       6.191   3.894  13.559  0.00  0.00    +0.000 C 
ATOM     28  C   UNL     1       7.379   4.829  13.733  0.00  0.00    +0.000 C 
ATOM     29  O   UNL     1       7.788   5.020  15.095  0.00  0.00    +0.000 OA
ENDBRANCH  18  20
ENDBRANCH  17  18
ENDBRANCH  16  17
ENDBRANCH   5  16
TORSDOF 7
ENDMDL
MODEL 6
REMARK VINA RESULT:      -7.5      1.182      1.736
REMARK  Name = 
REMARK  9 active torsions:
REMARK  status: ('A' for Active; 'I' for Inactive)
REMARK    1  A    between atoms: C_1  and  O_2
REMARK    2  A    between atoms: O_2  and  C_3
REMARK    3  A    between atoms: C_6  and  N_7
REMARK    4  A    between atoms: C_11  and  S_12
REMARK    5  A    between atoms: S_12  and  C_13
REMARK    6  A    between atoms: C_13  and  C_14
REMARK    7  A    between atoms: C_14  and  C_16
REMARK    8  A    between atoms: C_26  and  O_27
REMARK    9  A    between atoms: O_27  and  C_28
REMARK                            x       y       z     vdW  Elec       q    Type
REMARK                         _______ _______ _______ _____ _____    ______ ____
ROOT
ATOM      1  N   UNL     1       4.278   3.902  18.258  0.00  0.00    +0.000 N 
ATOM      2  N   UNL     1       3.826   2.629  18.449  0.00  0.00    +0.000 NA
ATOM      3  N   UNL     1       3.020   2.660  19.496  0.00  0.00    +0.000 NA
ATOM      4  N   UNL     1       2.901   3.925  19.985  0.00  0.00    +0.000 NA
ATOM      5  C   UNL     1       3.682   4.684  19.247  0.00  0.00    +0.000 A 
ENDROOT
BRANCH   1   9
ATOM      6  C   UNL     1       7.077   4.920  15.224  0.00  0.00    +0.000 A 
ATOM      7  C   UNL     1       5.803   4.460  14.890  0.00  0.00    +0.000 A 
ATOM      8  C   UNL     1       4.886   4.089  15.882  0.00  0.00    +0.000 A 
ATOM      9  C   UNL     1       5.232   4.184  17.237  0.00  0.00    +0.000 A 
ATOM     10  C   UNL     1       6.529   4.636  17.576  0.00  0.00    +0.000 A 
ATOM     11  C   UNL     1       7.441   4.986  16.566  0.00  0.00    +0.000 A 
BRANCH   6  13
ATOM     12  C   UNL     1       7.375   4.961  12.862  0.00  0.00    +0.000 C 
ATOM     13  O   UNL     1       7.870   5.264  14.162  0.00  0.00    +0.000 OA
ENDBRANCH   6  13
BRANCH  10  14
ATOM     14  O   UNL     1       6.911   4.595  18.894  0.00  0.00    +0.000 OA
ATOM     15  C   UNL     1       7.744   5.659  19.345  0.00  0.00    +0.000 C 
ENDBRANCH  10  14
ENDBRANCH   1   9
BRANCH   5  16
ATOM     16  S   UNL     1       3.760   6.414  19.386  0.00  0.00    +0.000 S 
BRANCH  16  17
ATOM     17  C   UNL     1       2.033   6.898  19.041  0.00  0.00    +0.000 C 
BRANCH  17  18
ATOM     18  C   UNL     1       1.823   8.400  18.987  0.00  0.00    +0.000 C 
ATOM     19  O   UNL     1       2.207   9.105  18.058  0.00  0.00    +0.000 OA
BRANCH  18  20
ATOM     20  C   UNL     1       1.079   9.060  20.115  0.00  0.00    +0.000 A 
ATOM     21  C   UNL     1       0.850   8.456  21.360  0.00  0.00    +0.000 A 
ATOM     22  C   UNL     1       0.186   9.163  22.378  0.00  0.00    +0.000 A 
ATOM     23  C   UNL     1      -0.236  10.473  22.169  0.00  0.00    +0.000 A 
ATOM     24  C   UNL     1      -0.056  11.054  20.917  0.00  0.00    +0.000 A 
ATOM     25  C   UNL     1       0.593  10.356  19.898  0.00  0.00    +0.000 A 
ATOM     26  O   UNL     1      -0.493  12.317  20.621  0.00  0.00    +0.000 OA
ATOM     27  C   UNL     1      -0.444  13.125  21.794  0.00  0.00    +0.000 C 
ATOM     28  C   UNL     1      -1.186  12.478  22.954  0.00  0.00    +0.000 C 
ATOM     29  O   UNL     1      -0.781  11.131  23.237  0.00  0.00    +0.000 OA
ENDBRANCH  18  20
ENDBRANCH  17  18
ENDBRANCH  16  17
ENDBRANCH   5  16
TORSDOF 7
ENDMDL
MODEL 7
REMARK VINA RESULT:      -7.5      1.602      2.514
REMARK  Name = 
REMARK  9 active torsions:
REMARK  status: ('A' for Active; 'I' for Inactive)
REMARK    1  A    between atoms: C_1  and  O_2
REMARK    2  A    between atoms: O_2  and  C_3
REMARK    3  A    between atoms: C_6  and  N_7
REMARK    4  A    between atoms: C_11  and  S_12
REMARK    5  A    between atoms: S_12  and  C_13
REMARK    6  A    between atoms: C_13  and  C_14
REMARK    7  A    between atoms: C_14  and  C_16
REMARK    8  A    between atoms: C_26  and  O_27
REMARK    9  A    between atoms: O_27  and  C_28
REMARK                            x       y       z     vdW  Elec       q    Type
REMARK                         _______ _______ _______ _____ _____    ______ ____
ROOT
ATOM      1  N   UNL     1       4.139   3.423  18.060  0.00  0.00    +0.000 N 
ATOM      2  N   UNL     1       4.501   2.110  18.117  0.00  0.00    +0.000 NA
ATOM      3  N   UNL     1       3.385   1.402  18.123  0.00  0.00    +0.000 NA
ATOM      4  N   UNL     1       2.293   2.211  18.040  0.00  0.00    +0.000 NA
ATOM      5  C   UNL     1       2.745   3.447  18.022  0.00  0.00    +0.000 A 
ENDROOT
BRANCH   1   9
ATOM      6  C   UNL     1       7.220   6.352  18.184  0.00  0.00    +0.000 A 
ATOM      7  C   UNL     1       6.729   5.787  19.361  0.00  0.00    +0.000 A 
ATOM      8  C   UNL     1       5.690   4.847  19.333  0.00  0.00    +0.000 A 
ATOM      9  C   UNL     1       5.129   4.448  18.112  0.00  0.00    +0.000 A 
ATOM     10  C   UNL     1       5.617   5.031  16.919  0.00  0.00    +0.000 A 
ATOM     11  C   UNL     1       6.646   5.986  16.969  0.00  0.00    +0.000 A 
BRANCH   6  13
ATOM     12  C   UNL     1       8.070   8.540  17.782  0.00  0.00    +0.000 C 
ATOM     13  O   UNL     1       8.244   7.245  18.348  0.00  0.00    +0.000 OA
ENDBRANCH   6  13
BRANCH  10  14
ATOM     14  O   UNL     1       4.973   4.743  15.740  0.00  0.00    +0.000 OA
ATOM     15  C   UNL     1       5.748   4.093  14.738  0.00  0.00    +0.000 C 
ENDBRANCH  10  14
ENDBRANCH   1   9
BRANCH   5  16
ATOM     16  S   UNL     1       1.739   4.840  17.774  0.00  0.00    +0.000 S 
BRANCH  16  17
ATOM     17  C   UNL     1       2.263   5.932  19.141  0.00  0.00    +0.000 C 
BRANCH  17  18
ATOM     18  C   UNL     1       2.540   7.360  18.705  0.00  0.00    +0.000 C 
ATOM     19  O   UNL     1       3.375   7.659  17.855  0.00  0.00    +0.000 OA
BRANCH  18  20
ATOM     20  C   UNL     1       1.730   8.467  19.322  0.00  0.00    +0.000 A 
ATOM     21  C   UNL     1       1.069   9.458  18.582  0.00  0.00    +0.000 A 
ATOM     22  C   UNL     1       0.293  10.430  19.238  0.00  0.00    +0.000 A 
ATOM     23  C   UNL     1       0.156  10.409  20.622  0.00  0.00    +0.000 A 
ATOM     24  C   UNL     1       0.853   9.457  21.361  0.00  0.00    +0.000 A 
ATOM     25  C   UNL     1       1.635   8.496  20.720  0.00  0.00    +0.000 A 
ATOM     26  O   UNL     1       0.812   9.409  22.729  0.00  0.00    +0.000 OA
ATOM     27  C   UNL     1      -0.458   9.871  23.182  0.00  0.00    +0.000 C 
ATOM     28  C   UNL     1      -0.796  11.239  22.608  0.00  0.00    +0.000 C 
ATOM     29  O   UNL     1      -0.697  11.322  21.179  0.00  0.00    +0.000 OA
ENDBRANCH  18  20
ENDBRANCH  17  18
ENDBRANCH  16  17
ENDBRANCH   5  16
TORSDOF 7
ENDMDL
MODEL 8
REMARK VINA RESULT:      -7.5      2.863      3.610
REMARK  Name = 
REMARK  9 active torsions:
REMARK  status: ('A' for Active; 'I' for Inactive)
REMARK    1  A    between atoms: C_1  and  O_2
REMARK    2  A    between atoms: O_2  and  C_3
REMARK    3  A    between atoms: C_6  and  N_7
REMARK    4  A    between atoms: C_11  and  S_12
REMARK    5  A    between atoms: S_12  and  C_13
REMARK    6  A    between atoms: C_13  and  C_14
REMARK    7  A    between atoms: C_14  and  C_16
REMARK    8  A    between atoms: C_26  and  O_27
REMARK    9  A    between atoms: O_27  and  C_28
REMARK                            x       y       z     vdW  Elec       q    Type
REMARK                         _______ _______ _______ _____ _____    ______ ____
ROOT
ATOM      1  N   UNL     1       3.768   5.171  18.703  0.00  0.00    +0.000 N 
ATOM      2  N   UNL     1       3.554   4.231  19.667  0.00  0.00    +0.000 NA
ATOM      3  N   UNL     1       2.717   4.759  20.542  0.00  0.00    +0.000 NA
ATOM      4  N   UNL     1       2.346   6.015  20.166  0.00  0.00    +0.000 NA
ATOM      5  C   UNL     1       3.000   6.280  19.056  0.00  0.00    +0.000 A 
ENDROOT
BRANCH   1   9
ATOM      6  C   UNL     1       6.477   4.595  15.475  0.00  0.00    +0.000 A 
ATOM      7  C   UNL     1       5.195   4.047  15.434  0.00  0.00    +0.000 A 
ATOM      8  C   UNL     1       4.307   4.201  16.507  0.00  0.00    +0.000 A 
ATOM      9  C   UNL     1       4.692   4.924  17.645  0.00  0.00    +0.000 A 
ATOM     10  C   UNL     1       5.997   5.468  17.693  0.00  0.00    +0.000 A 
ATOM     11  C   UNL     1       6.879   5.287  16.615  0.00  0.00    +0.000 A 
BRANCH   6  13
ATOM     12  C   UNL     1       6.560   3.929  13.190  0.00  0.00    +0.000 C 
ATOM     13  O   UNL     1       7.237   4.385  14.357  0.00  0.00    +0.000 OA
ENDBRANCH   6  13
BRANCH  10  14
ATOM     14  O   UNL     1       6.417   6.054  18.862  0.00  0.00    +0.000 OA
ATOM     15  C   UNL     1       7.763   5.798  19.250  0.00  0.00    +0.000 C 
ENDBRANCH  10  14
ENDBRANCH   1   9
BRANCH   5  16
ATOM     16  S   UNL     1       2.749   7.711  18.105  0.00  0.00    +0.000 S 
BRANCH  16  17
ATOM     17  C   UNL     1       1.524   8.620  19.109  0.00  0.00    +0.000 C 
BRANCH  17  18
ATOM     18  C   UNL     1       1.230  10.017  18.590  0.00  0.00    +0.000 C 
ATOM     19  O   UNL     1       2.089  10.762  18.126  0.00  0.00    +0.000 OA
BRANCH  18  20
ATOM     20  C   UNL     1      -0.193  10.505  18.615  0.00  0.00    +0.000 A 
ATOM     21  C   UNL     1      -0.694  11.404  19.567  0.00  0.00    +0.000 A 
ATOM     22  C   UNL     1      -2.026  11.847  19.489  0.00  0.00    +0.000 A 
ATOM     23  C   UNL     1      -2.855  11.413  18.459  0.00  0.00    +0.000 A 
ATOM     24  C   UNL     1      -2.375  10.481  17.544  0.00  0.00    +0.000 A 
ATOM     25  C   UNL     1      -1.057  10.027  17.620  0.00  0.00    +0.000 A 
ATOM     26  O   UNL     1      -3.148   9.967  16.538  0.00  0.00    +0.000 OA
ATOM     27  C   UNL     1      -4.099  10.945  16.124  0.00  0.00    +0.000 C 
ATOM     28  C   UNL     1      -4.903  11.481  17.300  0.00  0.00    +0.000 C 
ATOM     29  O   UNL     1      -4.105  11.966  18.389  0.00  0.00    +0.000 OA
ENDBRANCH  18  20
ENDBRANCH  17  18
ENDBRANCH  16  17
ENDBRANCH   5  16
TORSDOF 7
ENDMDL
MODEL 9
REMARK VINA RESULT:      -7.4      2.883      3.798
REMARK  Name = 
REMARK  9 active torsions:
REMARK  status: ('A' for Active; 'I' for Inactive)
REMARK    1  A    between atoms: C_1  and  O_2
REMARK    2  A    between atoms: O_2  and  C_3
REMARK    3  A    between atoms: C_6  and  N_7
REMARK    4  A    between atoms: C_11  and  S_12
REMARK    5  A    between atoms: S_12  and  C_13
REMARK    6  A    between atoms: C_13  and  C_14
REMARK    7  A    between atoms: C_14  and  C_16
REMARK    8  A    between atoms: C_26  and  O_27
REMARK    9  A    between atoms: O_27  and  C_28
REMARK                            x       y       z     vdW  Elec       q    Type
REMARK                         _______ _______ _______ _____ _____    ______ ____
ROOT
ATOM      1  N   UNL     1       3.371   5.621  19.092  0.00  0.00    +0.000 N 
ATOM      2  N   UNL     1       3.154   4.693  20.067  0.00  0.00    +0.000 NA
ATOM      3  N   UNL     1       2.262   5.206  20.896  0.00  0.00    +0.000 NA
ATOM      4  N   UNL     1       1.859   6.438  20.478  0.00  0.00    +0.000 NA
ATOM      5  C   UNL     1       2.547   6.705  19.389  0.00  0.00    +0.000 A 
ENDROOT
BRANCH   1   9
ATOM      6  C   UNL     1       6.351   4.794  16.172  0.00  0.00    +0.000 A 
ATOM      7  C   UNL     1       6.526   5.826  17.095  0.00  0.00    +0.000 A 
ATOM      8  C   UNL     1       5.536   6.129  18.038  0.00  0.00    +0.000 A 
ATOM      9  C   UNL     1       4.346   5.388  18.078  0.00  0.00    +0.000 A 
ATOM     10  C   UNL     1       4.161   4.352  17.133  0.00  0.00    +0.000 A 
ATOM     11  C   UNL     1       5.158   4.075  16.182  0.00  0.00    +0.000 A 
BRANCH   6  13
ATOM     12  C   UNL     1       7.133   4.732  13.924  0.00  0.00    +0.000 C 
ATOM     13  O   UNL     1       7.399   4.593  15.316  0.00  0.00    +0.000 OA
ENDBRANCH   6  13
BRANCH  10  14
ATOM     14  O   UNL     1       2.942   3.722  17.084  0.00  0.00    +0.000 OA
ATOM     15  C   UNL     1       2.909   2.370  17.529  0.00  0.00    +0.000 C 
ENDBRANCH  10  14
ENDBRANCH   1   9
BRANCH   5  16
ATOM     16  S   UNL     1       2.280   8.106  18.398  0.00  0.00    +0.000 S 
BRANCH  16  17
ATOM     17  C   UNL     1       1.136   9.086  19.430  0.00  0.00    +0.000 C 
BRANCH  17  18
ATOM     18  C   UNL     1       0.769  10.428  18.822  0.00  0.00    +0.000 C 
ATOM     19  O   UNL     1       1.598  11.280  18.510  0.00  0.00    +0.000 OA
BRANCH  18  20
ATOM     20  C   UNL     1      -0.682  10.723  18.560  0.00  0.00    +0.000 A 
ATOM     21  C   UNL     1      -1.442  10.087  17.567  0.00  0.00    +0.000 A 
ATOM     22  C   UNL     1      -2.807  10.389  17.420  0.00  0.00    +0.000 A 
ATOM     23  C   UNL     1      -3.424  11.304  18.267  0.00  0.00    +0.000 A 
ATOM     24  C   UNL     1      -2.659  11.974  19.219  0.00  0.00    +0.000 A 
ATOM     25  C   UNL     1      -1.301  11.690  19.364  0.00  0.00    +0.000 A 
ATOM     26  O   UNL     1      -3.184  12.927  20.049  0.00  0.00    +0.000 OA
ATOM     27  C   UNL     1      -4.549  12.621  20.322  0.00  0.00    +0.000 C 
ATOM     28  C   UNL     1      -5.346  12.420  19.041  0.00  0.00    +0.000 C 
ATOM     29  O   UNL     1      -4.775  11.468  18.131  0.00  0.00    +0.000 OA
ENDBRANCH  18  20
ENDBRANCH  17  18
ENDBRANCH  16  17
ENDBRANCH   5  16
TORSDOF 7
ENDMDL
