MODEL 1
REMARK VINA RESULT:      -7.9      0.000      0.000
REMARK  Name = 
REMARK  4 active torsions:
REMARK  status: ('A' for Active; 'I' for Inactive)
REMARK    1  A    between atoms: C_1  and  C_2
REMARK    2  A    between atoms: C_4  and  C_5
REMARK    3  A    between atoms: C_4  and  C_6
REMARK    4  A    between atoms: N_10  and  C_11
REMARK                            x       y       z     vdW  Elec       q    Type
REMARK                         _______ _______ _______ _____ _____    ______ ____
ROOT
ATOM      1  C   UNL     1       3.980   1.221  18.077  0.00  0.00    +0.000 C 
ATOM      2  C   UNL     1       3.493   2.589  18.471  0.00  0.00    +0.000 C 
ATOM      3  C   UNL     1       2.676   2.732  19.513  0.00  0.00    +0.000 C 
ATOM      4  C   UNL     1       2.141   4.023  20.076  0.00  0.00    +0.000 C 
ATOM      5  C   UNL     1       2.651   4.032  21.539  0.00  0.00    +0.000 C 
ATOM      6  C   UNL     1       0.600   3.848  20.011  0.00  0.00    +0.000 C 
ATOM      7  N   UNL     1       2.579   5.254  19.325  0.00  0.00    +0.000 N 
ATOM      8  C   UNL     1       2.013   6.446  19.837  0.00  0.00    +0.000 C 
ATOM      9  O   UNL     1       1.422   6.435  20.921  0.00  0.00    +0.000 OA
ATOM     10  N   UNL     1       2.056   7.592  19.087  0.00  0.00    +0.000 N 
ATOM     11  C   UNL     1       3.530   5.102  18.227  0.00  0.00    +0.000 A 
ATOM     12  C   UNL     1       4.136   6.194  17.574  0.00  0.00    +0.000 A 
ATOM     13  C   UNL     1       4.964   6.038  16.448  0.00  0.00    +0.000 A 
ATOM     14  C   UNL     1       5.274   4.773  15.982  0.00  0.00    +0.000 A 
ATOM     15  C   UNL     1       4.780   3.670  16.661  0.00  0.00    +0.000 A 
ATOM     16  C   UNL     1       3.925   3.810  17.777  0.00  0.00    +0.000 A 
ATOM     17  H   UNL     1       2.129   7.459  18.091  0.00  0.00    +0.000 HD
ENDROOT
BRANCH  10  18
ATOM     18  C   UNL     1       1.551   8.863  19.495  0.00  0.00    +0.000 A 
ATOM     19  C   UNL     1       1.107   9.156  20.793  0.00  0.00    +0.000 A 
ATOM     20  C   UNL     1       0.475  10.365  21.088  0.00  0.00    +0.000 A 
ATOM     21  C   UNL     1       0.327  11.331  20.101  0.00  0.00    +0.000 A 
ATOM     22  C   UNL     1       0.844  11.095  18.828  0.00  0.00    +0.000 A 
ATOM     23  C   UNL     1       1.456   9.870  18.528  0.00  0.00    +0.000 A 
ENDBRANCH  10  18
TORSDOF 1
ENDMDL
MODEL 2
REMARK VINA RESULT:      -7.6      0.152      1.033
REMARK  Name = 
REMARK  4 active torsions:
REMARK  status: ('A' for Active; 'I' for Inactive)
REMARK    1  A    between atoms: C_1  and  C_2
REMARK    2  A    between atoms: C_4  and  C_5
REMARK    3  A    between atoms: C_4  and  C_6
REMARK    4  A    between atoms: N_10  and  C_11
REMARK                            x       y       z     vdW  Elec       q    Type
REMARK                         _______ _______ _______ _____ _____    ______ ____
ROOT
ATOM      1  C   UNL     1       4.053   1.193  18.142  0.00  0.00    +0.000 C 
ATOM      2  C   UNL     1       3.549   2.563  18.505  0.00  0.00    +0.000 C 
ATOM      3  C   UNL     1       2.727   2.718  19.541  0.00  0.00    +0.000 C 
ATOM      4  C   UNL     1       2.176   4.014  20.075  0.00  0.00    +0.000 C 
ATOM      5  C   UNL     1       2.681   4.060  21.540  0.00  0.00    +0.000 C 
ATOM      6  C   UNL     1       0.637   3.820  20.010  0.00  0.00    +0.000 C 
ATOM      7  N   UNL     1       2.602   5.234  19.301  0.00  0.00    +0.000 N 
ATOM      8  C   UNL     1       2.021   6.430  19.786  0.00  0.00    +0.000 C 
ATOM      9  O   UNL     1       1.426   6.435  20.867  0.00  0.00    +0.000 OA
ATOM     10  N   UNL     1       2.053   7.561  19.011  0.00  0.00    +0.000 N 
ATOM     11  C   UNL     1       3.558   5.070  18.209  0.00  0.00    +0.000 A 
ATOM     12  C   UNL     1       4.154   6.155  17.534  0.00  0.00    +0.000 A 
ATOM     13  C   UNL     1       4.988   5.986  16.414  0.00  0.00    +0.000 A 
ATOM     14  C   UNL     1       5.314   4.715  15.976  0.00  0.00    +0.000 A 
ATOM     15  C   UNL     1       4.830   3.621  16.676  0.00  0.00    +0.000 A 
ATOM     16  C   UNL     1       3.969   3.774  17.787  0.00  0.00    +0.000 A 
ATOM     17  H   UNL     1       2.131   7.408  18.019  0.00  0.00    +0.000 HD
ENDROOT
BRANCH  10  18
ATOM     18  C   UNL     1       1.531   8.834  19.391  0.00  0.00    +0.000 A 
ATOM     19  C   UNL     1       1.393   9.922  18.517  0.00  0.00    +0.000 A 
ATOM     20  C   UNL     1       1.029  11.186  18.983  0.00  0.00    +0.000 A 
ATOM     21  C   UNL     1       0.738  11.373  20.329  0.00  0.00    +0.000 A 
ATOM     22  C   UNL     1       0.780  10.283  21.196  0.00  0.00    +0.000 A 
ATOM     23  C   UNL     1       1.171   9.020  20.730  0.00  0.00    +0.000 A 
ENDBRANCH  10  18
TORSDOF 1
ENDMDL
MODEL 3
REMARK VINA RESULT:      -7.2      1.878      7.550
REMARK  Name = 
REMARK  4 active torsions:
REMARK  status: ('A' for Active; 'I' for Inactive)
REMARK    1  A    between atoms: C_1  and  C_2
REMARK    2  A    between atoms: C_4  and  C_5
REMARK    3  A    between atoms: C_4  and  C_6
REMARK    4  A    between atoms: N_10  and  C_11
REMARK                            x       y       z     vdW  Elec       q    Type
REMARK                         _______ _______ _______ _____ _____    ______ ____
ROOT
ATOM      1  C   UNL     1      -1.274  12.909  19.911  0.00  0.00    +0.000 C 
ATOM      2  C   UNL     1      -0.498  11.621  19.848  0.00  0.00    +0.000 C 
ATOM      3  C   UNL     1       0.072  11.242  18.706  0.00  0.00    +0.000 C 
ATOM      4  C   UNL     1       0.925  10.021  18.479  0.00  0.00    +0.000 C 
ATOM      5  C   UNL     1       2.279  10.597  17.993  0.00  0.00    +0.000 C 
ATOM      6  C   UNL     1       0.191   9.257  17.345  0.00  0.00    +0.000 C 
ATOM      7  N   UNL     1       1.095   9.151  19.697  0.00  0.00    +0.000 N 
ATOM      8  C   UNL     1       1.849   7.981  19.442  0.00  0.00    +0.000 C 
ATOM      9  O   UNL     1       2.466   7.861  18.379  0.00  0.00    +0.000 OA
ATOM     10  N   UNL     1       1.824   6.949  20.345  0.00  0.00    +0.000 N 
ATOM     11  C   UNL     1       0.529   9.604  20.965  0.00  0.00    +0.000 A 
ATOM     12  C   UNL     1       0.774   8.960  22.195  0.00  0.00    +0.000 A 
ATOM     13  C   UNL     1       0.136   9.340  23.390  0.00  0.00    +0.000 A 
ATOM     14  C   UNL     1      -0.716  10.429  23.407  0.00  0.00    +0.000 A 
ATOM     15  C   UNL     1      -0.903  11.152  22.239  0.00  0.00    +0.000 A 
ATOM     16  C   UNL     1      -0.291  10.767  21.024  0.00  0.00    +0.000 A 
ATOM     17  H   UNL     1       1.006   6.901  20.930  0.00  0.00    +0.000 HD
ENDROOT
BRANCH  10  18
ATOM     18  C   UNL     1       2.557   5.731  20.223  0.00  0.00    +0.000 A 
ATOM     19  C   UNL     1       3.788   5.613  19.559  0.00  0.00    +0.000 A 
ATOM     20  C   UNL     1       4.375   4.367  19.335  0.00  0.00    +0.000 A 
ATOM     21  C   UNL     1       3.770   3.215  19.823  0.00  0.00    +0.000 A 
ATOM     22  C   UNL     1       2.595   3.321  20.565  0.00  0.00    +0.000 A 
ATOM     23  C   UNL     1       1.994   4.572  20.767  0.00  0.00    +0.000 A 
ENDBRANCH  10  18
TORSDOF 1
ENDMDL
MODEL 4
REMARK VINA RESULT:      -7.2      2.483      7.678
REMARK  Name = 
REMARK  4 active torsions:
REMARK  status: ('A' for Active; 'I' for Inactive)
REMARK    1  A    between atoms: C_1  and  C_2
REMARK    2  A    between atoms: C_4  and  C_5
REMARK    3  A    between atoms: C_4  and  C_6
REMARK    4  A    between atoms: N_10  and  C_11
REMARK                            x       y       z     vdW  Elec       q    Type
REMARK                         _______ _______ _______ _____ _____    ______ ____
ROOT
ATOM      1  C   UNL     1      -3.139  13.215  20.487  0.00  0.00    +0.000 C 
ATOM      2  C   UNL     1      -2.104  12.168  20.177  0.00  0.00    +0.000 C 
ATOM      3  C   UNL     1      -1.180  11.855  21.084  0.00  0.00    +0.000 C 
ATOM      4  C   UNL     1      -0.113  10.800  20.964  0.00  0.00    +0.000 C 
ATOM      5  C   UNL     1      -0.399   9.842  22.149  0.00  0.00    +0.000 C 
ATOM      6  C   UNL     1       1.211  11.582  21.172  0.00  0.00    +0.000 C 
ATOM      7  N   UNL     1      -0.110  10.069  19.646  0.00  0.00    +0.000 N 
ATOM      8  C   UNL     1       0.941   9.128  19.537  0.00  0.00    +0.000 C 
ATOM      9  O   UNL     1       1.604   8.820  20.532  0.00  0.00    +0.000 OA
ATOM     10  N   UNL     1       1.269   8.620  18.306  0.00  0.00    +0.000 N 
ATOM     11  C   UNL     1      -1.165  10.364  18.681  0.00  0.00    +0.000 A 
ATOM     12  C   UNL     1      -1.359   9.623  17.498  0.00  0.00    +0.000 A 
ATOM     13  C   UNL     1      -2.309   9.984  16.524  0.00  0.00    +0.000 A 
ATOM     14  C   UNL     1      -3.150  11.060  16.739  0.00  0.00    +0.000 A 
ATOM     15  C   UNL     1      -3.060  11.752  17.937  0.00  0.00    +0.000 A 
ATOM     16  C   UNL     1      -2.093  11.419  18.913  0.00  0.00    +0.000 A 
ATOM     17  H   UNL     1       1.032   9.200  17.518  0.00  0.00    +0.000 HD
ENDROOT
BRANCH  10  18
ATOM     18  C   UNL     1       2.284   7.647  18.061  0.00  0.00    +0.000 A 
ATOM     19  C   UNL     1       3.552   7.943  17.539  0.00  0.00    +0.000 A 
ATOM     20  C   UNL     1       4.440   6.932  17.171  0.00  0.00    +0.000 A 
ATOM     21  C   UNL     1       4.100   5.600  17.374  0.00  0.00    +0.000 A 
ATOM     22  C   UNL     1       2.882   5.289  17.977  0.00  0.00    +0.000 A 
ATOM     23  C   UNL     1       1.982   6.306  18.321  0.00  0.00    +0.000 A 
ENDBRANCH  10  18
TORSDOF 1
ENDMDL
MODEL 5
REMARK VINA RESULT:      -7.0      5.496      8.524
REMARK  Name = 
REMARK  4 active torsions:
REMARK  status: ('A' for Active; 'I' for Inactive)
REMARK    1  A    between atoms: C_1  and  C_2
REMARK    2  A    between atoms: C_4  and  C_5
REMARK    3  A    between atoms: C_4  and  C_6
REMARK    4  A    between atoms: N_10  and  C_11
REMARK                            x       y       z     vdW  Elec       q    Type
REMARK                         _______ _______ _______ _____ _____    ______ ____
ROOT
ATOM      1  C   UNL     1       1.081   9.314  17.920  0.00  0.00    +0.000 C 
ATOM      2  C   UNL     1       0.117  10.164  18.702  0.00  0.00    +0.000 C 
ATOM      3  C   UNL     1       0.499  10.722  19.849  0.00  0.00    +0.000 C 
ATOM      4  C   UNL     1      -0.312  11.641  20.725  0.00  0.00    +0.000 C 
ATOM      5  C   UNL     1       0.528  12.943  20.779  0.00  0.00    +0.000 C 
ATOM      6  C   UNL     1      -0.335  10.922  22.100  0.00  0.00    +0.000 C 
ATOM      7  N   UNL     1      -1.709  11.900  20.224  0.00  0.00    +0.000 N 
ATOM      8  C   UNL     1      -2.469  12.715  21.097  0.00  0.00    +0.000 C 
ATOM      9  O   UNL     1      -1.917  13.307  22.029  0.00  0.00    +0.000 OA
ATOM     10  N   UNL     1      -3.830  12.780  20.949  0.00  0.00    +0.000 N 
ATOM     11  C   UNL     1      -2.103  11.344  18.932  0.00  0.00    +0.000 A 
ATOM     12  C   UNL     1      -3.317  11.664  18.291  0.00  0.00    +0.000 A 
ATOM     13  C   UNL     1      -3.734  11.040  17.102  0.00  0.00    +0.000 A 
ATOM     14  C   UNL     1      -2.911  10.124  16.472  0.00  0.00    +0.000 A 
ATOM     15  C   UNL     1      -1.664   9.859  17.016  0.00  0.00    +0.000 A 
ATOM     16  C   UNL     1      -1.242  10.458  18.226  0.00  0.00    +0.000 A 
ATOM     17  H   UNL     1      -4.259  11.984  20.507  0.00  0.00    +0.000 HD
ENDROOT
BRANCH  10  18
ATOM     18  C   UNL     1      -4.707  13.582  21.740  0.00  0.00    +0.000 A 
ATOM     19  C   UNL     1      -4.942  14.947  21.519  0.00  0.00    +0.000 A 
ATOM     20  C   UNL     1      -5.683  15.712  22.421  0.00  0.00    +0.000 A 
ATOM     21  C   UNL     1      -6.254  15.111  23.536  0.00  0.00    +0.000 A 
ATOM     22  C   UNL     1      -6.109  13.737  23.723  0.00  0.00    +0.000 A 
ATOM     23  C   UNL     1      -5.343  12.977  22.829  0.00  0.00    +0.000 A 
ENDBRANCH  10  18
TORSDOF 1
ENDMDL
MODEL 6
REMARK VINA RESULT:      -7.0      5.515      8.522
REMARK  Name = 
REMARK  4 active torsions:
REMARK  status: ('A' for Active; 'I' for Inactive)
REMARK    1  A    between atoms: C_1  and  C_2
REMARK    2  A    between atoms: C_4  and  C_5
REMARK    3  A    between atoms: C_4  and  C_6
REMARK    4  A    between atoms: N_10  and  C_11
REMARK                            x       y       z     vdW  Elec       q    Type
REMARK                         _______ _______ _______ _____ _____    ______ ____
ROOT
ATOM      1  C   UNL     1       1.056   9.352  18.019  0.00  0.00    +0.000 C 
ATOM      2  C   UNL     1       0.087  10.178  18.821  0.00  0.00    +0.000 C 
ATOM      3  C   UNL     1       0.465  10.708  19.983  0.00  0.00    +0.000 C 
ATOM      4  C   UNL     1      -0.351  11.601  20.881  0.00  0.00    +0.000 C 
ATOM      5  C   UNL     1       0.483  12.905  20.969  0.00  0.00    +0.000 C 
ATOM      6  C   UNL     1      -0.372  10.847  22.237  0.00  0.00    +0.000 C 
ATOM      7  N   UNL     1      -1.749  11.865  20.385  0.00  0.00    +0.000 N 
ATOM      8  C   UNL     1      -2.513  12.655  21.277  0.00  0.00    +0.000 C 
ATOM      9  O   UNL     1      -1.965  13.225  22.225  0.00  0.00    +0.000 OA
ATOM     10  N   UNL     1      -3.874  12.717  21.129  0.00  0.00    +0.000 N 
ATOM     11  C   UNL     1      -2.139  11.341  19.079  0.00  0.00    +0.000 A 
ATOM     12  C   UNL     1      -3.353  11.671  18.445  0.00  0.00    +0.000 A 
ATOM     13  C   UNL     1      -3.766  11.075  17.240  0.00  0.00    +0.000 A 
ATOM     14  C   UNL     1      -2.938  10.179  16.588  0.00  0.00    +0.000 A 
ATOM     15  C   UNL     1      -1.690   9.907  17.127  0.00  0.00    +0.000 A 
ATOM     16  C   UNL     1      -1.272  10.477  18.351  0.00  0.00    +0.000 A 
ATOM     17  H   UNL     1      -4.299  11.930  20.666  0.00  0.00    +0.000 HD
ENDROOT
BRANCH  10  18
ATOM     18  C   UNL     1      -4.756  13.494  21.939  0.00  0.00    +0.000 A 
ATOM     19  C   UNL     1      -5.387  13.020  23.098  0.00  0.00    +0.000 A 
ATOM     20  C   UNL     1      -6.361  13.773  23.755  0.00  0.00    +0.000 A 
ATOM     21  C   UNL     1      -6.682  15.045  23.297  0.00  0.00    +0.000 A 
ATOM     22  C   UNL     1      -5.999  15.570  22.201  0.00  0.00    +0.000 A 
ATOM     23  C   UNL     1      -5.040  14.801  21.529  0.00  0.00    +0.000 A 
ENDBRANCH  10  18
TORSDOF 1
ENDMDL
MODEL 7
REMARK VINA RESULT:      -7.0      2.896      6.882
REMARK  Name = 
REMARK  4 active torsions:
REMARK  status: ('A' for Active; 'I' for Inactive)
REMARK    1  A    between atoms: C_1  and  C_2
REMARK    2  A    between atoms: C_4  and  C_5
REMARK    3  A    between atoms: C_4  and  C_6
REMARK    4  A    between atoms: N_10  and  C_11
REMARK                            x       y       z     vdW  Elec       q    Type
REMARK                         _______ _______ _______ _____ _____    ______ ____
ROOT
ATOM      1  C   UNL     1       1.492   5.737  20.791  0.00  0.00    +0.000 C 
ATOM      2  C   UNL     1       2.379   5.587  19.586  0.00  0.00    +0.000 C 
ATOM      3  C   UNL     1       3.014   6.647  19.089  0.00  0.00    +0.000 C 
ATOM      4  C   UNL     1       3.978   6.667  17.931  0.00  0.00    +0.000 C 
ATOM      5  C   UNL     1       5.290   7.216  18.547  0.00  0.00    +0.000 C 
ATOM      6  C   UNL     1       3.347   7.679  16.938  0.00  0.00    +0.000 C 
ATOM      7  N   UNL     1       4.188   5.325  17.278  0.00  0.00    +0.000 N 
ATOM      8  C   UNL     1       5.049   5.384  16.156  0.00  0.00    +0.000 C 
ATOM      9  O   UNL     1       5.705   6.405  15.932  0.00  0.00    +0.000 OA
ATOM     10  N   UNL     1       5.089   4.332  15.279  0.00  0.00    +0.000 N 
ATOM     11  C   UNL     1       3.547   4.153  17.867  0.00  0.00    +0.000 A 
ATOM     12  C   UNL     1       3.811   2.834  17.445  0.00  0.00    +0.000 A 
ATOM     13  C   UNL     1       3.108   1.723  17.944  0.00  0.00    +0.000 A 
ATOM     14  C   UNL     1       2.163   1.888  18.941  0.00  0.00    +0.000 A 
ATOM     15  C   UNL     1       1.947   3.158  19.455  0.00  0.00    +0.000 A 
ATOM     16  C   UNL     1       2.627   4.288  18.945  0.00  0.00    +0.000 A 
ATOM     17  H   UNL     1       4.261   3.759  15.246  0.00  0.00    +0.000 HD
ENDROOT
BRANCH  10  18
ATOM     18  C   UNL     1       5.930   4.251  14.128  0.00  0.00    +0.000 A 
ATOM     19  C   UNL     1       7.119   4.978  13.967  0.00  0.00    +0.000 A 
ATOM     20  C   UNL     1       7.811   4.978  12.755  0.00  0.00    +0.000 A 
ATOM     21  C   UNL     1       7.357   4.202  11.695  0.00  0.00    +0.000 A 
ATOM     22  C   UNL     1       6.229   3.401  11.867  0.00  0.00    +0.000 A 
ATOM     23  C   UNL     1       5.522   3.423  13.077  0.00  0.00    +0.000 A 
ENDBRANCH  10  18
TORSDOF 1
ENDMDL
MODEL 8
REMARK VINA RESULT:      -7.0      2.468      7.630
REMARK  Name = 
REMARK  4 active torsions:
REMARK  status: ('A' for Active; 'I' for Inactive)
REMARK    1  A    between atoms: C_1  and  C_2
REMARK    2  A    between atoms: C_4  and  C_5
REMARK    3  A    between atoms: C_4  and  C_6
REMARK    4  A    between atoms: N_10  and  C_11
REMARK                            x       y       z     vdW  Elec       q    Type
REMARK                         _______ _______ _______ _____ _____    ______ ____
ROOT
ATOM      1  C   UNL     1      -3.027  13.289  20.454  0.00  0.00    +0.000 C 
ATOM      2  C   UNL     1      -2.009  12.227  20.140  0.00  0.00    +0.000 C 
ATOM      3  C   UNL     1      -1.064  11.926  21.029  0.00  0.00    +0.000 C 
ATOM      4  C   UNL     1      -0.008  10.859  20.904  0.00  0.00    +0.000 C 
ATOM      5  C   UNL     1      -0.270   9.930  22.116  0.00  0.00    +0.000 C 
ATOM      6  C   UNL     1       1.327  11.635  21.060  0.00  0.00    +0.000 C 
ATOM      7  N   UNL     1      -0.045  10.101  19.602  0.00  0.00    +0.000 N 
ATOM      8  C   UNL     1       0.995   9.148  19.486  0.00  0.00    +0.000 C 
ATOM      9  O   UNL     1       1.681   8.857  20.470  0.00  0.00    +0.000 OA
ATOM     10  N   UNL     1       1.287   8.612  18.258  0.00  0.00    +0.000 N 
ATOM     11  C   UNL     1      -1.123  10.384  18.659  0.00  0.00    +0.000 A 
ATOM     12  C   UNL     1      -1.354   9.620  17.497  0.00  0.00    +0.000 A 
ATOM     13  C   UNL     1      -2.326   9.968  16.541  0.00  0.00    +0.000 A 
ATOM     14  C   UNL     1      -3.153  11.056  16.755  0.00  0.00    +0.000 A 
ATOM     15  C   UNL     1      -3.026  11.772  17.935  0.00  0.00    +0.000 A 
ATOM     16  C   UNL     1      -2.036  11.451  18.893  0.00  0.00    +0.000 A 
ATOM     17  H   UNL     1       1.033   9.177  17.464  0.00  0.00    +0.000 HD
ENDROOT
BRANCH  10  18
ATOM     18  C   UNL     1       2.288   7.625  18.008  0.00  0.00    +0.000 A 
ATOM     19  C   UNL     1       2.155   6.267  18.332  0.00  0.00    +0.000 A 
ATOM     20  C   UNL     1       3.228   5.384  18.210  0.00  0.00    +0.000 A 
ATOM     21  C   UNL     1       4.443   5.831  17.704  0.00  0.00    +0.000 A 
ATOM     22  C   UNL     1       4.565   7.156  17.290  0.00  0.00    +0.000 A 
ATOM     23  C   UNL     1       3.493   8.047  17.438  0.00  0.00    +0.000 A 
ENDBRANCH  10  18
TORSDOF 1
ENDMDL
MODEL 9
REMARK VINA RESULT:      -7.0      2.123      7.609
REMARK  Name = 
REMARK  4 active torsions:
REMARK  status: ('A' for Active; 'I' for Inactive)
REMARK    1  A    between atoms: C_1  and  C_2
REMARK    2  A    between atoms: C_4  and  C_5
REMARK    3  A    between atoms: C_4  and  C_6
REMARK    4  A    between atoms: N_10  and  C_11
REMARK                            x       y       z     vdW  Elec       q    Type
REMARK                         _______ _______ _______ _____ _____    ______ ____
ROOT
ATOM      1  C   UNL     1      -2.222  12.584  21.350  0.00  0.00    +0.000 C 
ATOM      2  C   UNL     1      -1.266  11.632  20.687  0.00  0.00    +0.000 C 
ATOM      3  C   UNL     1      -1.045  11.713  19.376  0.00  0.00    +0.000 C 
ATOM      4  C   UNL     1      -0.085  10.883  18.565  0.00  0.00    +0.000 C 
ATOM      5  C   UNL     1       0.880  11.926  17.946  0.00  0.00    +0.000 C 
ATOM      6  C   UNL     1      -0.982  10.224  17.483  0.00  0.00    +0.000 C 
ATOM      7  N   UNL     1       0.658   9.841  19.361  0.00  0.00    +0.000 N 
ATOM      8  C   UNL     1       1.506   9.035  18.565  0.00  0.00    +0.000 C 
ATOM      9  O   UNL     1       1.743   9.352  17.395  0.00  0.00    +0.000 OA
ATOM     10  N   UNL     1       1.997   7.861  19.073  0.00  0.00    +0.000 N 
ATOM     11  C   UNL     1       0.467   9.799  20.808  0.00  0.00    +0.000 A 
ATOM     12  C   UNL     1       1.236   8.987  21.666  0.00  0.00    +0.000 A 
ATOM     13  C   UNL     1       0.971   8.874  23.043  0.00  0.00    +0.000 A 
ATOM     14  C   UNL     1      -0.031   9.631  23.622  0.00  0.00    +0.000 A 
ATOM     15  C   UNL     1      -0.742  10.520  22.830  0.00  0.00    +0.000 A 
ATOM     16  C   UNL     1      -0.506  10.625  21.440  0.00  0.00    +0.000 A 
ATOM     17  H   UNL     1       1.450   7.440  19.806  0.00  0.00    +0.000 HD
ENDROOT
BRANCH  10  18
ATOM     18  C   UNL     1       2.881   6.973  18.389  0.00  0.00    +0.000 A 
ATOM     19  C   UNL     1       4.041   7.380  17.713  0.00  0.00    +0.000 A 
ATOM     20  C   UNL     1       4.775   6.489  16.929  0.00  0.00    +0.000 A 
ATOM     21  C   UNL     1       4.395   5.154  16.854  0.00  0.00    +0.000 A 
ATOM     22  C   UNL     1       3.300   4.711  17.593  0.00  0.00    +0.000 A 
ATOM     23  C   UNL     1       2.549   5.615  18.359  0.00  0.00    +0.000 A 
ENDBRANCH  10  18
TORSDOF 1
ENDMDL
