MODEL 1
REMARK VINA RESULT:      -8.0      0.000      0.000
REMARK  Name = 
REMARK  7 active torsions:
REMARK  status: ('A' for Active; 'I' for Inactive)
REMARK    1  A    between atoms: C_1  and  O_2
REMARK    2  A    between atoms: O_2  and  C_3
REMARK    3  A    between atoms: C_6  and  C_7
REMARK    4  A    between atoms: C_7  and  C_9
REMARK    5  A    between atoms: N_18  and  C_19
REMARK    6  A    between atoms: C_19  and  C_20
REMARK    7  A    between atoms: C_23  and  C_24
REMARK                            x       y       z     vdW  Elec       q    Type
REMARK                         _______ _______ _______ _____ _____    ______ ____
ROOT
ATOM      1  C   UNL     1       2.807   5.494  19.099  0.00  0.00    +0.000 A 
ATOM      2  C   UNL     1       2.293   4.480  19.935  0.00  0.00    +0.000 A 
ATOM      3  C   UNL     1       1.024   4.450  20.527  0.00  0.00    +0.000 A 
ATOM      4  C   UNL     1       0.842   3.319  21.358  0.00  0.00    +0.000 A 
ATOM      5  C   UNL     1       1.847   2.334  21.616  0.00  0.00    +0.000 A 
ATOM      6  C   UNL     1       3.141   2.367  21.059  0.00  0.00    +0.000 A 
ATOM      7  C   UNL     1       3.309   3.461  20.216  0.00  0.00    +0.000 A 
ATOM      8  N   UNL     1       4.402   3.849  19.535  0.00  0.00    +0.000 N 
ATOM      9  O   UNL     1       5.540   3.315  19.465  0.00  0.00    +0.000 OA
ATOM     10  N   UNL     1       4.148   5.072  18.904  0.00  0.00    +0.000 N 
ENDROOT
BRANCH   1  11
ATOM     11  C   UNL     1       2.247   6.759  18.639  0.00  0.00    +0.000 C 
ATOM     12  O   UNL     1       2.165   7.024  17.439  0.00  0.00    +0.000 OA
BRANCH  11  16
ATOM     13  C   UNL     1       0.853   9.895  21.276  0.00  0.00    +0.000 A 
ATOM     14  C   UNL     1       1.225   8.654  21.803  0.00  0.00    +0.000 A 
ATOM     15  C   UNL     1       1.677   7.618  20.969  0.00  0.00    +0.000 A 
ATOM     16  C   UNL     1       1.778   7.821  19.589  0.00  0.00    +0.000 A 
ATOM     17  C   UNL     1       1.381   9.062  19.063  0.00  0.00    +0.000 A 
ATOM     18  C   UNL     1       0.927  10.089  19.894  0.00  0.00    +0.000 A 
BRANCH  13  20
ATOM     19  C   UNL     1      -0.681  10.412  23.020  0.00  0.00    +0.000 C 
ATOM     20  O   UNL     1       0.410  10.807  22.194  0.00  0.00    +0.000 OA
ENDBRANCH  13  20
ENDBRANCH  11  16
ENDBRANCH   1  11
BRANCH  10  21
ATOM     21  C   UNL     1       5.280   5.908  18.492  0.00  0.00    +0.000 C 
BRANCH  21  22
ATOM     22  C   UNL     1       5.805   5.769  17.079  0.00  0.00    +0.000 A 
ATOM     23  C   UNL     1       6.976   5.006  16.903  0.00  0.00    +0.000 A 
ATOM     24  C   UNL     1       7.486   4.717  15.632  0.00  0.00    +0.000 A 
ATOM     25  C   UNL     1       6.820   5.176  14.498  0.00  0.00    +0.000 A 
ATOM     26  C   UNL     1       5.644   5.926  14.653  0.00  0.00    +0.000 A 
ATOM     27  C   UNL     1       5.133   6.210  15.933  0.00  0.00    +0.000 A 
BRANCH  25  28
ATOM     28  C   UNL     1       7.327   4.904  13.124  0.00  0.00    +0.000 C 
ATOM     29  N   UNL     1       6.813   3.826  12.457  0.00  0.00    +0.000 N 
ATOM     30  O   UNL     1       8.159   5.631  12.590  0.00  0.00    +0.000 OA
ATOM     31  H   UNL     1       5.975   3.345  12.748  0.00  0.00    +0.000 HD
ATOM     32  H   UNL     1       7.113   3.707  11.495  0.00  0.00    +0.000 HD
ENDBRANCH  25  28
ENDBRANCH  21  22
ENDBRANCH  10  21
TORSDOF 6
ENDMDL
MODEL 2
REMARK VINA RESULT:      -8.0      4.954      8.989
REMARK  Name = 
REMARK  7 active torsions:
REMARK  status: ('A' for Active; 'I' for Inactive)
REMARK    1  A    between atoms: C_1  and  O_2
REMARK    2  A    between atoms: O_2  and  C_3
REMARK    3  A    between atoms: C_6  and  C_7
REMARK    4  A    between atoms: C_7  and  C_9
REMARK    5  A    between atoms: N_18  and  C_19
REMARK    6  A    between atoms: C_19  and  C_20
REMARK    7  A    between atoms: C_23  and  C_24
REMARK                            x       y       z     vdW  Elec       q    Type
REMARK                         _______ _______ _______ _____ _____    ______ ____
ROOT
ATOM      1  C   UNL     1      -0.144  10.715  18.923  0.00  0.00    +0.000 A 
ATOM      2  C   UNL     1      -1.381  10.630  18.248  0.00  0.00    +0.000 A 
ATOM      3  C   UNL     1      -1.629   9.969  17.040  0.00  0.00    +0.000 A 
ATOM      4  C   UNL     1      -2.966  10.124  16.602  0.00  0.00    +0.000 A 
ATOM      5  C   UNL     1      -3.954  10.907  17.281  0.00  0.00    +0.000 A 
ATOM      6  C   UNL     1      -3.713  11.608  18.479  0.00  0.00    +0.000 A 
ATOM      7  C   UNL     1      -2.407  11.429  18.925  0.00  0.00    +0.000 A 
ATOM      8  N   UNL     1      -1.797  11.959  20.001  0.00  0.00    +0.000 N 
ATOM      9  O   UNL     1      -2.250  12.729  20.887  0.00  0.00    +0.000 OA
ATOM     10  N   UNL     1      -0.447  11.591  19.997  0.00  0.00    +0.000 N 
ENDROOT
BRANCH   1  11
ATOM     11  C   UNL     1       1.185  10.214  18.594  0.00  0.00    +0.000 C 
ATOM     12  O   UNL     1       1.986  10.896  17.955  0.00  0.00    +0.000 OA
BRANCH  11  16
ATOM     13  C   UNL     1       2.425   6.247  19.804  0.00  0.00    +0.000 A 
ATOM     14  C   UNL     1       2.675   6.690  18.501  0.00  0.00    +0.000 A 
ATOM     15  C   UNL     1       2.280   7.970  18.081  0.00  0.00    +0.000 A 
ATOM     16  C   UNL     1       1.639   8.835  18.974  0.00  0.00    +0.000 A 
ATOM     17  C   UNL     1       1.370   8.377  20.275  0.00  0.00    +0.000 A 
ATOM     18  C   UNL     1       1.760   7.100  20.689  0.00  0.00    +0.000 A 
BRANCH  13  20
ATOM     19  C   UNL     1       2.122   4.260  21.077  0.00  0.00    +0.000 C 
ATOM     20  O   UNL     1       2.841   4.973  20.075  0.00  0.00    +0.000 OA
ENDBRANCH  13  20
ENDBRANCH  11  16
ENDBRANCH   1  11
BRANCH  10  21
ATOM     21  C   UNL     1       0.508  12.385  20.779  0.00  0.00    +0.000 C 
BRANCH  21  22
ATOM     22  C   UNL     1       1.176  13.571  20.116  0.00  0.00    +0.000 A 
ATOM     23  C   UNL     1       2.585  13.585  20.101  0.00  0.00    +0.000 A 
ATOM     24  C   UNL     1       3.306  14.571  19.418  0.00  0.00    +0.000 A 
ATOM     25  C   UNL     1       2.627  15.565  18.717  0.00  0.00    +0.000 A 
ATOM     26  C   UNL     1       1.223  15.559  18.711  0.00  0.00    +0.000 A 
ATOM     27  C   UNL     1       0.503  14.563  19.394  0.00  0.00    +0.000 A 
BRANCH  25  28
ATOM     28  C   UNL     1       3.348  16.643  17.984  0.00  0.00    +0.000 C 
ATOM     29  N   UNL     1       2.760  17.150  16.857  0.00  0.00    +0.000 N 
ATOM     30  O   UNL     1       4.420  17.085  18.383  0.00  0.00    +0.000 OA
ATOM     31  H   UNL     1       1.792  16.994  16.621  0.00  0.00    +0.000 HD
ATOM     32  H   UNL     1       3.229  17.937  16.420  0.00  0.00    +0.000 HD
ENDBRANCH  25  28
ENDBRANCH  21  22
ENDBRANCH  10  21
TORSDOF 6
ENDMDL
MODEL 3
REMARK VINA RESULT:      -7.9      3.184      7.172
REMARK  Name = 
REMARK  7 active torsions:
REMARK  status: ('A' for Active; 'I' for Inactive)
REMARK    1  A    between atoms: C_1  and  O_2
REMARK    2  A    between atoms: O_2  and  C_3
REMARK    3  A    between atoms: C_6  and  C_7
REMARK    4  A    between atoms: C_7  and  C_9
REMARK    5  A    between atoms: N_18  and  C_19
REMARK    6  A    between atoms: C_19  and  C_20
REMARK    7  A    between atoms: C_23  and  C_24
REMARK                            x       y       z     vdW  Elec       q    Type
REMARK                         _______ _______ _______ _____ _____    ______ ____
ROOT
ATOM      1  C   UNL     1       6.412   4.898  17.484  0.00  0.00    +0.000 A 
ATOM      2  C   UNL     1       6.480   4.622  16.102  0.00  0.00    +0.000 A 
ATOM      3  C   UNL     1       7.537   4.934  15.240  0.00  0.00    +0.000 A 
ATOM      4  C   UNL     1       7.266   4.574  13.898  0.00  0.00    +0.000 A 
ATOM      5  C   UNL     1       6.035   4.000  13.448  0.00  0.00    +0.000 A 
ATOM      6  C   UNL     1       4.946   3.712  14.295  0.00  0.00    +0.000 A 
ATOM      7  C   UNL     1       5.225   4.037  15.619  0.00  0.00    +0.000 A 
ATOM      8  N   UNL     1       4.434   3.941  16.702  0.00  0.00    +0.000 N 
ATOM      9  O   UNL     1       3.254   3.515  16.804  0.00  0.00    +0.000 OA
ATOM     10  N   UNL     1       5.093   4.487  17.809  0.00  0.00    +0.000 N 
ENDROOT
BRANCH   1  11
ATOM     11  C   UNL     1       7.331   5.576  18.392  0.00  0.00    +0.000 C 
ATOM     12  O   UNL     1       7.866   4.977  19.325  0.00  0.00    +0.000 OA
BRANCH  11  16
ATOM     13  C   UNL     1       8.347   9.774  18.120  0.00  0.00    +0.000 A 
ATOM     14  C   UNL     1       7.378   9.234  17.268  0.00  0.00    +0.000 A 
ATOM     15  C   UNL     1       7.033   7.874  17.332  0.00  0.00    +0.000 A 
ATOM     16  C   UNL     1       7.647   7.037  18.270  0.00  0.00    +0.000 A 
ATOM     17  C   UNL     1       8.635   7.581  19.108  0.00  0.00    +0.000 A 
ATOM     18  C   UNL     1       8.981   8.933  19.038  0.00  0.00    +0.000 A 
BRANCH  13  20
ATOM     19  C   UNL     1       9.959  11.524  18.077  0.00  0.00    +0.000 C 
ATOM     20  O   UNL     1       8.605  11.105  17.937  0.00  0.00    +0.000 OA
ENDBRANCH  13  20
ENDBRANCH  11  16
ENDBRANCH   1  11
BRANCH  10  21
ATOM     21  C   UNL     1       4.303   4.909  18.970  0.00  0.00    +0.000 C 
BRANCH  21  22
ATOM     22  C   UNL     1       3.432   6.140  18.843  0.00  0.00    +0.000 A 
ATOM     23  C   UNL     1       2.600   6.451  19.937  0.00  0.00    +0.000 A 
ATOM     24  C   UNL     1       1.838   7.625  19.977  0.00  0.00    +0.000 A 
ATOM     25  C   UNL     1       1.905   8.529  18.919  0.00  0.00    +0.000 A 
ATOM     26  C   UNL     1       2.739   8.242  17.827  0.00  0.00    +0.000 A 
ATOM     27  C   UNL     1       3.506   7.064  17.794  0.00  0.00    +0.000 A 
BRANCH  25  28
ATOM     28  C   UNL     1       1.107   9.787  18.909  0.00  0.00    +0.000 C 
ATOM     29  N   UNL     1       1.476  10.768  18.029  0.00  0.00    +0.000 N 
ATOM     30  O   UNL     1       0.134   9.937  19.642  0.00  0.00    +0.000 OA
ATOM     31  H   UNL     1       2.105  10.609  17.257  0.00  0.00    +0.000 HD
ATOM     32  H   UNL     1       0.871  11.581  17.983  0.00  0.00    +0.000 HD
ENDBRANCH  25  28
ENDBRANCH  21  22
ENDBRANCH  10  21
TORSDOF 6
ENDMDL
MODEL 4
REMARK VINA RESULT:      -7.9      4.747      8.775
REMARK  Name = 
REMARK  7 active torsions:
REMARK  status: ('A' for Active; 'I' for Inactive)
REMARK    1  A    between atoms: C_1  and  O_2
REMARK    2  A    between atoms: O_2  and  C_3
REMARK    3  A    between atoms: C_6  and  C_7
REMARK    4  A    between atoms: C_7  and  C_9
REMARK    5  A    between atoms: N_18  and  C_19
REMARK    6  A    between atoms: C_19  and  C_20
REMARK    7  A    between atoms: C_23  and  C_24
REMARK                            x       y       z     vdW  Elec       q    Type
REMARK                         _______ _______ _______ _____ _____    ______ ____
ROOT
ATOM      1  C   UNL     1       0.185  10.293  18.730  0.00  0.00    +0.000 A 
ATOM      2  C   UNL     1      -1.115  10.366  18.187  0.00  0.00    +0.000 A 
ATOM      3  C   UNL     1      -1.572   9.731  17.027  0.00  0.00    +0.000 A 
ATOM      4  C   UNL     1      -2.915  10.057  16.723  0.00  0.00    +0.000 A 
ATOM      5  C   UNL     1      -3.716  10.972  17.480  0.00  0.00    +0.000 A 
ATOM      6  C   UNL     1      -3.262  11.648  18.629  0.00  0.00    +0.000 A 
ATOM      7  C   UNL     1      -1.952  11.302  18.945  0.00  0.00    +0.000 A 
ATOM      8  N   UNL     1      -1.169  11.757  19.940  0.00  0.00    +0.000 N 
ATOM      9  O   UNL     1      -1.423  12.591  20.848  0.00  0.00    +0.000 OA
ATOM     10  N   UNL     1       0.114  11.214  19.808  0.00  0.00    +0.000 N 
ENDROOT
BRANCH   1  11
ATOM     11  C   UNL     1       1.395   9.616  18.281  0.00  0.00    +0.000 C 
ATOM     12  O   UNL     1       2.118  10.106  17.411  0.00  0.00    +0.000 OA
BRANCH  11  16
ATOM     13  C   UNL     1       2.523   5.776  19.931  0.00  0.00    +0.000 A 
ATOM     14  C   UNL     1       2.791   6.066  18.589  0.00  0.00    +0.000 A 
ATOM     15  C   UNL     1       2.432   7.302  18.027  0.00  0.00    +0.000 A 
ATOM     16  C   UNL     1       1.810   8.277  18.814  0.00  0.00    +0.000 A 
ATOM     17  C   UNL     1       1.523   7.972  20.156  0.00  0.00    +0.000 A 
ATOM     18  C   UNL     1       1.877   6.739  20.710  0.00  0.00    +0.000 A 
BRANCH  13  20
ATOM     19  C   UNL     1       2.095   3.905  21.336  0.00  0.00    +0.000 C 
ATOM     20  O   UNL     1       2.903   4.529  20.344  0.00  0.00    +0.000 OA
ENDBRANCH  13  20
ENDBRANCH  11  16
ENDBRANCH   1  11
BRANCH  10  21
ATOM     21  C   UNL     1       1.240  11.882  20.469  0.00  0.00    +0.000 C 
BRANCH  21  22
ATOM     22  C   UNL     1       1.844  13.103  19.810  0.00  0.00    +0.000 A 
ATOM     23  C   UNL     1       1.831  14.302  20.551  0.00  0.00    +0.000 A 
ATOM     24  C   UNL     1       2.462  15.463  20.089  0.00  0.00    +0.000 A 
ATOM     25  C   UNL     1       3.139  15.445  18.871  0.00  0.00    +0.000 A 
ATOM     26  C   UNL     1       3.174  14.256  18.126  0.00  0.00    +0.000 A 
ATOM     27  C   UNL     1       2.543  13.091  18.597  0.00  0.00    +0.000 A 
BRANCH  25  28
ATOM     28  C   UNL     1       3.817  16.656  18.331  0.00  0.00    +0.000 C 
ATOM     29  N   UNL     1       5.100  16.903  18.738  0.00  0.00    +0.000 N 
ATOM     30  O   UNL     1       3.262  17.400  17.528  0.00  0.00    +0.000 OA
ATOM     31  H   UNL     1       5.675  16.215  19.200  0.00  0.00    +0.000 HD
ATOM     32  H   UNL     1       5.570  17.687  18.297  0.00  0.00    +0.000 HD
ENDBRANCH  25  28
ENDBRANCH  21  22
ENDBRANCH  10  21
TORSDOF 6
ENDMDL
MODEL 5
REMARK VINA RESULT:      -7.9      1.371      1.526
REMARK  Name = 
REMARK  7 active torsions:
REMARK  status: ('A' for Active; 'I' for Inactive)
REMARK    1  A    between atoms: C_1  and  O_2
REMARK    2  A    between atoms: O_2  and  C_3
REMARK    3  A    between atoms: C_6  and  C_7
REMARK    4  A    between atoms: C_7  and  C_9
REMARK    5  A    between atoms: N_18  and  C_19
REMARK    6  A    between atoms: C_19  and  C_20
REMARK    7  A    between atoms: C_23  and  C_24
REMARK                            x       y       z     vdW  Elec       q    Type
REMARK                         _______ _______ _______ _____ _____    ______ ____
ROOT
ATOM      1  C   UNL     1       3.338   5.038  18.797  0.00  0.00    +0.000 A 
ATOM      2  C   UNL     1       2.460   4.316  19.632  0.00  0.00    +0.000 A 
ATOM      3  C   UNL     1       1.147   4.669  19.967  0.00  0.00    +0.000 A 
ATOM      4  C   UNL     1       0.557   3.760  20.876  0.00  0.00    +0.000 A 
ATOM      5  C   UNL     1       1.229   2.628  21.440  0.00  0.00    +0.000 A 
ATOM      6  C   UNL     1       2.561   2.278  21.144  0.00  0.00    +0.000 A 
ATOM      7  C   UNL     1       3.130   3.154  20.225  0.00  0.00    +0.000 A 
ATOM      8  N   UNL     1       4.379   3.169  19.727  0.00  0.00    +0.000 N 
ATOM      9  O   UNL     1       5.343   2.389  19.943  0.00  0.00    +0.000 OA
ATOM     10  N   UNL     1       4.544   4.299  18.917  0.00  0.00    +0.000 N 
ENDROOT
BRANCH   1  11
ATOM     11  C   UNL     1       3.195   6.305  18.090  0.00  0.00    +0.000 C 
ATOM     12  O   UNL     1       3.740   6.496  17.002  0.00  0.00    +0.000 OA
BRANCH  11  16
ATOM     13  C   UNL     1       0.912   9.659  19.597  0.00  0.00    +0.000 A 
ATOM     14  C   UNL     1       1.377   8.678  20.479  0.00  0.00    +0.000 A 
ATOM     15  C   UNL     1       2.116   7.577  20.016  0.00  0.00    +0.000 A 
ATOM     16  C   UNL     1       2.415   7.455  18.655  0.00  0.00    +0.000 A 
ATOM     17  C   UNL     1       1.927   8.432  17.771  0.00  0.00    +0.000 A 
ATOM     18  C   UNL     1       1.187   9.523  18.234  0.00  0.00    +0.000 A 
BRANCH  13  20
ATOM     19  C   UNL     1       0.377  11.977  19.655  0.00  0.00    +0.000 C 
ATOM     20  O   UNL     1       0.187  10.665  20.175  0.00  0.00    +0.000 OA
ENDBRANCH  13  20
ENDBRANCH  11  16
ENDBRANCH   1  11
BRANCH  10  21
ATOM     21  C   UNL     1       5.901   4.779  18.634  0.00  0.00    +0.000 C 
BRANCH  21  22
ATOM     22  C   UNL     1       6.384   4.780  17.200  0.00  0.00    +0.000 A 
ATOM     23  C   UNL     1       5.816   3.825  16.333  0.00  0.00    +0.000 A 
ATOM     24  C   UNL     1       6.103   3.807  14.963  0.00  0.00    +0.000 A 
ATOM     25  C   UNL     1       6.959   4.765  14.423  0.00  0.00    +0.000 A 
ATOM     26  C   UNL     1       7.523   5.732  15.269  0.00  0.00    +0.000 A 
ATOM     27  C   UNL     1       7.228   5.748  16.644  0.00  0.00    +0.000 A 
BRANCH  25  28
ATOM     28  C   UNL     1       7.304   4.782  12.974  0.00  0.00    +0.000 C 
ATOM     29  N   UNL     1       8.156   5.758  12.534  0.00  0.00    +0.000 N 
ATOM     30  O   UNL     1       6.864   3.939  12.198  0.00  0.00    +0.000 OA
ATOM     31  H   UNL     1       8.720   6.319  13.154  0.00  0.00    +0.000 HD
ATOM     32  H   UNL     1       8.440   5.703  11.561  0.00  0.00    +0.000 HD
ENDBRANCH  25  28
ENDBRANCH  21  22
ENDBRANCH  10  21
TORSDOF 6
ENDMDL
MODEL 6
REMARK VINA RESULT:      -7.9      4.898      9.028
REMARK  Name = 
REMARK  7 active torsions:
REMARK  status: ('A' for Active; 'I' for Inactive)
REMARK    1  A    between atoms: C_1  and  O_2
REMARK    2  A    between atoms: O_2  and  C_3
REMARK    3  A    between atoms: C_6  and  C_7
REMARK    4  A    between atoms: C_7  and  C_9
REMARK    5  A    between atoms: N_18  and  C_19
REMARK    6  A    between atoms: C_19  and  C_20
REMARK    7  A    between atoms: C_23  and  C_24
REMARK                            x       y       z     vdW  Elec       q    Type
REMARK                         _______ _______ _______ _____ _____    ______ ____
ROOT
ATOM      1  C   UNL     1      -0.179  10.750  19.005  0.00  0.00    +0.000 A 
ATOM      2  C   UNL     1      -1.398  10.668  18.299  0.00  0.00    +0.000 A 
ATOM      3  C   UNL     1      -1.610  10.030  17.072  0.00  0.00    +0.000 A 
ATOM      4  C   UNL     1      -2.938  10.183  16.605  0.00  0.00    +0.000 A 
ATOM      5  C   UNL     1      -3.949  10.943  17.275  0.00  0.00    +0.000 A 
ATOM      6  C   UNL     1      -3.743  11.622  18.492  0.00  0.00    +0.000 A 
ATOM      7  C   UNL     1      -2.447  11.445  18.967  0.00  0.00    +0.000 A 
ATOM      8  N   UNL     1      -1.868  11.957  20.067  0.00  0.00    +0.000 N 
ATOM      9  O   UNL     1      -2.349  12.705  20.958  0.00  0.00    +0.000 OA
ATOM     10  N   UNL     1      -0.515  11.602  20.089  0.00  0.00    +0.000 N 
ENDROOT
BRANCH   1  11
ATOM     11  C   UNL     1       1.162  10.266  18.698  0.00  0.00    +0.000 C 
ATOM     12  O   UNL     1       1.986  10.982  18.128  0.00  0.00    +0.000 OA
BRANCH  11  16
ATOM     13  C   UNL     1       2.500   6.230  19.508  0.00  0.00    +0.000 A 
ATOM     14  C   UNL     1       1.908   6.987  20.524  0.00  0.00    +0.000 A 
ATOM     15  C   UNL     1       1.470   8.300  20.290  0.00  0.00    +0.000 A 
ATOM     16  C   UNL     1       1.604   8.869  19.019  0.00  0.00    +0.000 A 
ATOM     17  C   UNL     1       2.219   8.112  18.008  0.00  0.00    +0.000 A 
ATOM     18  C   UNL     1       2.660   6.808  18.245  0.00  0.00    +0.000 A 
BRANCH  13  20
ATOM     19  C   UNL     1       4.164   4.534  19.383  0.00  0.00    +0.000 C 
ATOM     20  O   UNL     1       2.903   4.976  19.876  0.00  0.00    +0.000 OA
ENDBRANCH  13  20
ENDBRANCH  11  16
ENDBRANCH   1  11
BRANCH  10  21
ATOM     21  C   UNL     1       0.414  12.387  20.909  0.00  0.00    +0.000 C 
BRANCH  21  22
ATOM     22  C   UNL     1       1.142  13.548  20.267  0.00  0.00    +0.000 A 
ATOM     23  C   UNL     1       2.529  13.640  20.497  0.00  0.00    +0.000 A 
ATOM     24  C   UNL     1       3.321  14.604  19.863  0.00  0.00    +0.000 A 
ATOM     25  C   UNL     1       2.739  15.496  18.964  0.00  0.00    +0.000 A 
ATOM     26  C   UNL     1       1.361  15.410  18.712  0.00  0.00    +0.000 A 
ATOM     27  C   UNL     1       0.570  14.437  19.349  0.00  0.00    +0.000 A 
BRANCH  25  28
ATOM     28  C   UNL     1       3.537  16.546  18.271  0.00  0.00    +0.000 C 
ATOM     29  N   UNL     1       4.878  16.604  18.534  0.00  0.00    +0.000 N 
ATOM     30  O   UNL     1       3.022  17.321  17.471  0.00  0.00    +0.000 OA
ATOM     31  H   UNL     1       5.384  15.861  18.991  0.00  0.00    +0.000 HD
ATOM     32  H   UNL     1       5.414  17.274  17.993  0.00  0.00    +0.000 HD
ENDBRANCH  25  28
ENDBRANCH  21  22
ENDBRANCH  10  21
TORSDOF 6
ENDMDL
MODEL 7
REMARK VINA RESULT:      -7.9      4.859      8.888
REMARK  Name = 
REMARK  7 active torsions:
REMARK  status: ('A' for Active; 'I' for Inactive)
REMARK    1  A    between atoms: C_1  and  O_2
REMARK    2  A    between atoms: O_2  and  C_3
REMARK    3  A    between atoms: C_6  and  C_7
REMARK    4  A    between atoms: C_7  and  C_9
REMARK    5  A    between atoms: N_18  and  C_19
REMARK    6  A    between atoms: C_19  and  C_20
REMARK    7  A    between atoms: C_23  and  C_24
REMARK                            x       y       z     vdW  Elec       q    Type
REMARK                         _______ _______ _______ _____ _____    ______ ____
ROOT
ATOM      1  C   UNL     1      -0.100  10.427  18.621  0.00  0.00    +0.000 A 
ATOM      2  C   UNL     1      -1.358  10.390  17.982  0.00  0.00    +0.000 A 
ATOM      3  C   UNL     1      -1.672   9.716  16.796  0.00  0.00    +0.000 A 
ATOM      4  C   UNL     1      -3.012   9.930  16.391  0.00  0.00    +0.000 A 
ATOM      5  C   UNL     1      -3.939  10.776  17.078  0.00  0.00    +0.000 A 
ATOM      6  C   UNL     1      -3.630  11.491  18.252  0.00  0.00    +0.000 A 
ATOM      7  C   UNL     1      -2.323  11.256  18.668  0.00  0.00    +0.000 A 
ATOM      8  N   UNL     1      -1.657  11.776  19.714  0.00  0.00    +0.000 N 
ATOM      9  O   UNL     1      -2.046  12.588  20.594  0.00  0.00    +0.000 OA
ATOM     10  N   UNL     1      -0.327  11.341  19.682  0.00  0.00    +0.000 N 
ENDROOT
BRANCH   1  11
ATOM     11  C   UNL     1       1.192   9.851  18.268  0.00  0.00    +0.000 C 
ATOM     12  O   UNL     1       1.951  10.416  17.479  0.00  0.00    +0.000 OA
BRANCH  11  16
ATOM     13  C   UNL     1       2.601   6.021  19.712  0.00  0.00    +0.000 A 
ATOM     14  C   UNL     1       1.921   6.886  20.576  0.00  0.00    +0.000 A 
ATOM     15  C   UNL     1       1.457   8.136  20.134  0.00  0.00    +0.000 A 
ATOM     16  C   UNL     1       1.656   8.530  18.807  0.00  0.00    +0.000 A 
ATOM     17  C   UNL     1       2.359   7.667  17.950  0.00  0.00    +0.000 A 
ATOM     18  C   UNL     1       2.824   6.426  18.393  0.00  0.00    +0.000 A 
BRANCH  13  20
ATOM     19  C   UNL     1       2.152   4.250  21.236  0.00  0.00    +0.000 C 
ATOM     20  O   UNL     1       3.018   4.847  20.275  0.00  0.00    +0.000 OA
ENDBRANCH  13  20
ENDBRANCH  11  16
ENDBRANCH   1  11
BRANCH  10  21
ATOM     21  C   UNL     1       0.688  12.101  20.419  0.00  0.00    +0.000 C 
BRANCH  21  22
ATOM     22  C   UNL     1       1.413  13.221  19.704  0.00  0.00    +0.000 A 
ATOM     23  C   UNL     1       0.791  14.485  19.697  0.00  0.00    +0.000 A 
ATOM     24  C   UNL     1       1.421  15.616  19.166  0.00  0.00    +0.000 A 
ATOM     25  C   UNL     1       2.707  15.509  18.640  0.00  0.00    +0.000 A 
ATOM     26  C   UNL     1       3.347  14.260  18.650  0.00  0.00    +0.000 A 
ATOM     27  C   UNL     1       2.711  13.128  19.189  0.00  0.00    +0.000 A 
BRANCH  25  28
ATOM     28  C   UNL     1       3.416  16.681  18.054  0.00  0.00    +0.000 C 
ATOM     29  N   UNL     1       4.721  16.881  18.414  0.00  0.00    +0.000 N 
ATOM     30  O   UNL     1       2.866  17.431  17.254  0.00  0.00    +0.000 OA
ATOM     31  H   UNL     1       5.282  16.178  18.872  0.00  0.00    +0.000 HD
ATOM     32  H   UNL     1       5.207  17.636  17.943  0.00  0.00    +0.000 HD
ENDBRANCH  25  28
ENDBRANCH  21  22
ENDBRANCH  10  21
TORSDOF 6
ENDMDL
MODEL 8
REMARK VINA RESULT:      -7.8      5.318      9.400
REMARK  Name = 
REMARK  7 active torsions:
REMARK  status: ('A' for Active; 'I' for Inactive)
REMARK    1  A    between atoms: C_1  and  O_2
REMARK    2  A    between atoms: O_2  and  C_3
REMARK    3  A    between atoms: C_6  and  C_7
REMARK    4  A    between atoms: C_7  and  C_9
REMARK    5  A    between atoms: N_18  and  C_19
REMARK    6  A    between atoms: C_19  and  C_20
REMARK    7  A    between atoms: C_23  and  C_24
REMARK                            x       y       z     vdW  Elec       q    Type
REMARK                         _______ _______ _______ _____ _____    ______ ____
ROOT
ATOM      1  C   UNL     1      -0.582  11.049  18.939  0.00  0.00    +0.000 A 
ATOM      2  C   UNL     1      -1.740  10.799  18.172  0.00  0.00    +0.000 A 
ATOM      3  C   UNL     1      -1.819  10.026  17.007  0.00  0.00    +0.000 A 
ATOM      4  C   UNL     1      -3.118  10.024  16.446  0.00  0.00    +0.000 A 
ATOM      5  C   UNL     1      -4.227  10.763  16.970  0.00  0.00    +0.000 A 
ATOM      6  C   UNL     1      -4.158  11.574  18.119  0.00  0.00    +0.000 A 
ATOM      7  C   UNL     1      -2.888  11.551  18.688  0.00  0.00    +0.000 A 
ATOM      8  N   UNL     1      -2.427  12.216  19.763  0.00  0.00    +0.000 N 
ATOM      9  O   UNL     1      -3.023  13.008  20.538  0.00  0.00    +0.000 OA
ATOM     10  N   UNL     1      -1.055  11.975  19.905  0.00  0.00    +0.000 N 
ENDROOT
BRANCH   1  11
ATOM     11  C   UNL     1       0.809  10.648  18.768  0.00  0.00    +0.000 C 
ATOM     12  O   UNL     1       1.637  11.407  18.263  0.00  0.00    +0.000 OA
BRANCH  11  16
ATOM     13  C   UNL     1       2.305   6.712  19.773  0.00  0.00    +0.000 A 
ATOM     14  C   UNL     1       1.645   7.477  20.741  0.00  0.00    +0.000 A 
ATOM     15  C   UNL     1       1.154   8.758  20.443  0.00  0.00    +0.000 A 
ATOM     16  C   UNL     1       1.304   9.286  19.156  0.00  0.00    +0.000 A 
ATOM     17  C   UNL     1       1.987   8.522  18.194  0.00  0.00    +0.000 A 
ATOM     18  C   UNL     1       2.479   7.250  18.495  0.00  0.00    +0.000 A 
BRANCH  13  20
ATOM     19  C   UNL     1       1.763   4.528  20.547  0.00  0.00    +0.000 C 
ATOM     20  O   UNL     1       2.753   5.493  20.202  0.00  0.00    +0.000 OA
ENDBRANCH  13  20
ENDBRANCH  11  16
ENDBRANCH   1  11
BRANCH  10  21
ATOM     21  C   UNL     1      -0.247  12.911  20.694  0.00  0.00    +0.000 C 
BRANCH  21  22
ATOM     22  C   UNL     1       0.378  14.096  19.992  0.00  0.00    +0.000 A 
ATOM     23  C   UNL     1       1.784  14.187  20.017  0.00  0.00    +0.000 A 
ATOM     24  C   UNL     1       2.474  15.175  19.306  0.00  0.00    +0.000 A 
ATOM     25  C   UNL     1       1.767  16.094  18.535  0.00  0.00    +0.000 A 
ATOM     26  C   UNL     1       0.366  16.011  18.487  0.00  0.00    +0.000 A 
ATOM     27  C   UNL     1      -0.322  15.013  19.199  0.00  0.00    +0.000 A 
BRANCH  25  28
ATOM     28  C   UNL     1       2.453  17.172  17.768  0.00  0.00    +0.000 C 
ATOM     29  N   UNL     1       1.683  17.985  16.983  0.00  0.00    +0.000 N 
ATOM     30  O   UNL     1       3.665  17.348  17.853  0.00  0.00    +0.000 OA
ATOM     31  H   UNL     1       0.678  18.035  17.058  0.00  0.00    +0.000 HD
ATOM     32  H   UNL     1       2.160  18.760  16.534  0.00  0.00    +0.000 HD
ENDBRANCH  25  28
ENDBRANCH  21  22
ENDBRANCH  10  21
TORSDOF 6
ENDMDL
MODEL 9
REMARK VINA RESULT:      -7.8      5.581     10.204
REMARK  Name = 
REMARK  7 active torsions:
REMARK  status: ('A' for Active; 'I' for Inactive)
REMARK    1  A    between atoms: C_1  and  O_2
REMARK    2  A    between atoms: O_2  and  C_3
REMARK    3  A    between atoms: C_6  and  C_7
REMARK    4  A    between atoms: C_7  and  C_9
REMARK    5  A    between atoms: N_18  and  C_19
REMARK    6  A    between atoms: C_19  and  C_20
REMARK    7  A    between atoms: C_23  and  C_24
REMARK                            x       y       z     vdW  Elec       q    Type
REMARK                         _______ _______ _______ _____ _____    ______ ____
ROOT
ATOM      1  C   UNL     1      -3.649  12.743  21.403  0.00  0.00    +0.000 A 
ATOM      2  C   UNL     1      -5.003  13.033  21.676  0.00  0.00    +0.000 A 
ATOM      3  C   UNL     1      -5.933  13.588  20.789  0.00  0.00    +0.000 A 
ATOM      4  C   UNL     1      -7.194  13.808  21.395  0.00  0.00    +0.000 A 
ATOM      5  C   UNL     1      -7.488  13.543  22.770  0.00  0.00    +0.000 A 
ATOM      6  C   UNL     1      -6.555  13.019  23.686  0.00  0.00    +0.000 A 
ATOM      7  C   UNL     1      -5.325  12.774  23.083  0.00  0.00    +0.000 A 
ATOM      8  N   UNL     1      -4.187  12.310  23.631  0.00  0.00    +0.000 N 
ATOM      9  O   UNL     1      -3.947  11.961  24.816  0.00  0.00    +0.000 OA
ATOM     10  N   UNL     1      -3.168  12.327  22.672  0.00  0.00    +0.000 N 
ENDROOT
BRANCH   1  11
ATOM     11  C   UNL     1      -2.828  12.942  20.215  0.00  0.00    +0.000 C 
ATOM     12  O   UNL     1      -2.078  13.913  20.110  0.00  0.00    +0.000 OA
BRANCH  11  16
ATOM     13  C   UNL     1      -3.081  10.296  16.798  0.00  0.00    +0.000 A 
ATOM     14  C   UNL     1      -1.875  10.422  17.496  0.00  0.00    +0.000 A 
ATOM     15  C   UNL     1      -1.765  11.277  18.605  0.00  0.00    +0.000 A 
ATOM     16  C   UNL     1      -2.875  12.007  19.042  0.00  0.00    +0.000 A 
ATOM     17  C   UNL     1      -4.077  11.893  18.324  0.00  0.00    +0.000 A 
ATOM     18  C   UNL     1      -4.182  11.046  17.217  0.00  0.00    +0.000 A 
BRANCH  13  20
ATOM     19  C   UNL     1      -3.227  10.031  14.438  0.00  0.00    +0.000 C 
ATOM     20  O   UNL     1      -3.045   9.448  15.725  0.00  0.00    +0.000 OA
ENDBRANCH  13  20
ENDBRANCH  11  16
ENDBRANCH   1  11
BRANCH  10  21
ATOM     21  C   UNL     1      -1.771  12.308  23.117  0.00  0.00    +0.000 C 
BRANCH  21  22
ATOM     22  C   UNL     1      -0.817  11.330  22.467  0.00  0.00    +0.000 A 
ATOM     23  C   UNL     1      -1.038   9.960  22.715  0.00  0.00    +0.000 A 
ATOM     24  C   UNL     1      -0.290   8.964  22.076  0.00  0.00    +0.000 A 
ATOM     25  C   UNL     1       0.693   9.319  21.155  0.00  0.00    +0.000 A 
ATOM     26  C   UNL     1       0.917  10.678  20.885  0.00  0.00    +0.000 A 
ATOM     27  C   UNL     1       0.160  11.676  21.526  0.00  0.00    +0.000 A 
BRANCH  25  28
ATOM     28  C   UNL     1       1.522   8.298  20.457  0.00  0.00    +0.000 C 
ATOM     29  N   UNL     1       1.846   7.162  21.146  0.00  0.00    +0.000 N 
ATOM     30  O   UNL     1       1.884   8.449  19.294  0.00  0.00    +0.000 OA
ATOM     31  H   UNL     1       1.388   6.884  22.001  0.00  0.00    +0.000 HD
ATOM     32  H   UNL     1       2.343   6.446  20.626  0.00  0.00    +0.000 HD
ENDBRANCH  25  28
ENDBRANCH  21  22
ENDBRANCH  10  21
TORSDOF 6
ENDMDL
