MODEL 1
REMARK VINA RESULT:      -7.0      0.000      0.000
REMARK  Name = 
REMARK  7 active torsions:
REMARK  status: ('A' for Active; 'I' for Inactive)
REMARK    1  A    between atoms: C_1  and  C_2
REMARK    2  A    between atoms: C_5  and  N_6
REMARK    3  A    between atoms: C_9  and  O_10
REMARK    4  A    between atoms: C_13  and  C_14
REMARK    5  A    between atoms: C_14  and  O_16
REMARK    6  A    between atoms: C_17  and  C_18
REMARK    7  A    between atoms: C_18  and  O_20
REMARK                            x       y       z     vdW  Elec       q    Type
REMARK                         _______ _______ _______ _____ _____    ______ ____
ROOT
ATOM      1  C   UNL     1       1.092   6.201  21.095  0.00  0.00    +0.000 C 
ATOM      2  C   UNL     1       2.135   5.669  20.143  0.00  0.00    +0.000 A 
ATOM      3  C   UNL     1       2.813   6.595  19.345  0.00  0.00    +0.000 A 
ATOM      4  C   UNL     1       3.797   6.192  18.440  0.00  0.00    +0.000 A 
ATOM      5  C   UNL     1       4.197   4.854  18.324  0.00  0.00    +0.000 A 
ATOM      6  C   UNL     1       3.538   3.913  19.176  0.00  0.00    +0.000 A 
ATOM      7  C   UNL     1       2.477   4.300  20.044  0.00  0.00    +0.000 A 
ENDROOT
BRANCH   5   8
ATOM      8  N   UNL     1       5.236   4.501  17.457  0.00  0.00    +0.000 N 
ATOM      9  C   UNL     1       4.941   4.183  16.039  0.00  0.00    +0.000 C 
ATOM     10  C   UNL     1       5.529   5.212  15.079  0.00  0.00    +0.000 C 
ATOM     11  C   UNL     1       6.991   5.525  15.371  0.00  0.00    +0.000 C 
ATOM     12  C   UNL     1       7.188   5.903  16.833  0.00  0.00    +0.000 C 
ATOM     13  C   UNL     1       6.638   4.835  17.770  0.00  0.00    +0.000 C 
BRANCH  11  14
ATOM     14  O   UNL     1       7.836   4.433  15.011  0.00  0.00    +0.000 OA
ATOM     15  H   UNL     1       8.068   3.919  15.804  0.00  0.00    +0.000 HD
ENDBRANCH  11  14
ENDBRANCH   5   8
BRANCH   6  16
ATOM     16  C   UNL     1       4.057   2.528  19.255  0.00  0.00    +0.000 C 
ATOM     17  O   UNL     1       3.588   1.611  18.602  0.00  0.00    +0.000 OA
BRANCH  16  18
ATOM     18  O   UNL     1       5.091   2.382  20.111  0.00  0.00    +0.000 OA
ATOM     19  H   UNL     1       5.867   2.921  19.836  0.00  0.00    +0.000 HD
ENDBRANCH  16  18
ENDBRANCH   6  16
BRANCH   7  20
ATOM     20  C   UNL     1       1.740   3.336  20.933  0.00  0.00    +0.000 C 
ATOM     21  O   UNL     1       2.106   3.090  22.072  0.00  0.00    +0.000 OA
BRANCH  20  22
ATOM     22  O   UNL     1       0.535   2.933  20.484  0.00  0.00    +0.000 OA
ATOM     23  H   UNL     1       0.530   2.610  19.552  0.00  0.00    +0.000 HD
ENDBRANCH  20  22
ENDBRANCH   7  20
TORSDOF 6
ENDMDL
MODEL 2
REMARK VINA RESULT:      -6.7      1.858      5.298
REMARK  Name = 
REMARK  7 active torsions:
REMARK  status: ('A' for Active; 'I' for Inactive)
REMARK    1  A    between atoms: C_1  and  C_2
REMARK    2  A    between atoms: C_5  and  N_6
REMARK    3  A    between atoms: C_9  and  O_10
REMARK    4  A    between atoms: C_13  and  C_14
REMARK    5  A    between atoms: C_14  and  O_16
REMARK    6  A    between atoms: C_17  and  C_18
REMARK    7  A    between atoms: C_18  and  O_20
REMARK                            x       y       z     vdW  Elec       q    Type
REMARK                         _______ _______ _______ _____ _____    ______ ____
ROOT
ATOM      1  C   UNL     1       7.386   7.623  17.039  0.00  0.00    +0.000 C 
ATOM      2  C   UNL     1       6.150   6.891  17.502  0.00  0.00    +0.000 A 
ATOM      3  C   UNL     1       4.924   7.549  17.370  0.00  0.00    +0.000 A 
ATOM      4  C   UNL     1       3.730   6.945  17.767  0.00  0.00    +0.000 A 
ATOM      5  C   UNL     1       3.688   5.635  18.262  0.00  0.00    +0.000 A 
ATOM      6  C   UNL     1       4.937   4.944  18.350  0.00  0.00    +0.000 A 
ATOM      7  C   UNL     1       6.170   5.578  18.025  0.00  0.00    +0.000 A 
ENDROOT
BRANCH   5   8
ATOM      8  N   UNL     1       2.462   5.040  18.582  0.00  0.00    +0.000 N 
ATOM      9  C   UNL     1       1.843   4.071  17.645  0.00  0.00    +0.000 C 
ATOM     10  C   UNL     1       1.797   2.658  18.220  0.00  0.00    +0.000 C 
ATOM     11  C   UNL     1       1.244   2.616  19.639  0.00  0.00    +0.000 C 
ATOM     12  C   UNL     1       1.981   3.596  20.542  0.00  0.00    +0.000 C 
ATOM     13  C   UNL     1       1.970   5.008  19.970  0.00  0.00    +0.000 C 
BRANCH  11  14
ATOM     14  O   UNL     1      -0.159   2.868  19.655  0.00  0.00    +0.000 OA
ATOM     15  H   UNL     1      -0.408   3.297  20.493  0.00  0.00    +0.000 HD
ENDBRANCH  11  14
ENDBRANCH   5   8
BRANCH   6  16
ATOM     16  C   UNL     1       4.938   3.496  18.662  0.00  0.00    +0.000 C 
ATOM     17  O   UNL     1       5.004   3.068  19.802  0.00  0.00    +0.000 OA
BRANCH  16  18
ATOM     18  O   UNL     1       4.858   2.704  17.572  0.00  0.00    +0.000 OA
ATOM     19  H   UNL     1       4.239   3.074  16.901  0.00  0.00    +0.000 HD
ENDBRANCH  16  18
ENDBRANCH   6  16
BRANCH   7  20
ATOM     20  C   UNL     1       7.506   4.895  18.133  0.00  0.00    +0.000 C 
ATOM     21  O   UNL     1       8.154   4.887  19.168  0.00  0.00    +0.000 OA
BRANCH  20  22
ATOM     22  O   UNL     1       7.843   4.106  17.093  0.00  0.00    +0.000 OA
ATOM     23  H   UNL     1       8.814   4.023  16.937  0.00  0.00    +0.000 HD
ENDBRANCH  20  22
ENDBRANCH   7  20
TORSDOF 6
ENDMDL
MODEL 3
REMARK VINA RESULT:      -6.2      1.232      1.865
REMARK  Name = 
REMARK  7 active torsions:
REMARK  status: ('A' for Active; 'I' for Inactive)
REMARK    1  A    between atoms: C_1  and  C_2
REMARK    2  A    between atoms: C_5  and  N_6
REMARK    3  A    between atoms: C_9  and  O_10
REMARK    4  A    between atoms: C_13  and  C_14
REMARK    5  A    between atoms: C_14  and  O_16
REMARK    6  A    between atoms: C_17  and  C_18
REMARK    7  A    between atoms: C_18  and  O_20
REMARK                            x       y       z     vdW  Elec       q    Type
REMARK                         _______ _______ _______ _____ _____    ______ ____
ROOT
ATOM      1  C   UNL     1       1.096   5.937  20.748  0.00  0.00    +0.000 C 
ATOM      2  C   UNL     1       2.175   5.900  19.693  0.00  0.00    +0.000 A 
ATOM      3  C   UNL     1       2.602   7.122  19.165  0.00  0.00    +0.000 A 
ATOM      4  C   UNL     1       3.599   7.182  18.188  0.00  0.00    +0.000 A 
ATOM      5  C   UNL     1       4.261   6.035  17.730  0.00  0.00    +0.000 A 
ATOM      6  C   UNL     1       3.857   4.790  18.307  0.00  0.00    +0.000 A 
ATOM      7  C   UNL     1       2.787   4.708  19.243  0.00  0.00    +0.000 A 
ENDROOT
BRANCH   5   8
ATOM      8  N   UNL     1       5.303   6.144  16.803  0.00  0.00    +0.000 N 
ATOM      9  C   UNL     1       6.707   5.960  17.244  0.00  0.00    +0.000 C 
ATOM     10  C   UNL     1       7.343   4.709  16.645  0.00  0.00    +0.000 C 
ATOM     11  C   UNL     1       7.127   4.599  15.141  0.00  0.00    +0.000 C 
ATOM     12  C   UNL     1       5.651   4.736  14.789  0.00  0.00    +0.000 C 
ATOM     13  C   UNL     1       5.054   6.018  15.356  0.00  0.00    +0.000 C 
BRANCH  11  14
ATOM     14  O   UNL     1       7.908   5.560  14.434  0.00  0.00    +0.000 OA
ATOM     15  H   UNL     1       8.570   5.952  15.031  0.00  0.00    +0.000 HD
ENDBRANCH  11  14
ENDBRANCH   5   8
BRANCH   6  16
ATOM     16  C   UNL     1       4.655   3.574  18.025  0.00  0.00    +0.000 C 
ATOM     17  O   UNL     1       4.487   2.894  17.027  0.00  0.00    +0.000 OA
BRANCH  16  18
ATOM     18  O   UNL     1       5.577   3.297  18.971  0.00  0.00    +0.000 OA
ATOM     19  H   UNL     1       5.215   3.424  19.878  0.00  0.00    +0.000 HD
ENDBRANCH  16  18
ENDBRANCH   6  16
BRANCH   7  20
ATOM     20  C   UNL     1       2.314   3.415  19.850  0.00  0.00    +0.000 C 
ATOM     21  O   UNL     1       1.449   2.728  19.330  0.00  0.00    +0.000 OA
BRANCH  20  22
ATOM     22  O   UNL     1       3.053   2.948  20.876  0.00  0.00    +0.000 OA
ATOM     23  H   UNL     1       3.714   2.258  20.627  0.00  0.00    +0.000 HD
ENDBRANCH  20  22
ENDBRANCH   7  20
TORSDOF 6
ENDMDL
MODEL 4
REMARK VINA RESULT:      -6.1      1.829      5.305
REMARK  Name = 
REMARK  7 active torsions:
REMARK  status: ('A' for Active; 'I' for Inactive)
REMARK    1  A    between atoms: C_1  and  C_2
REMARK    2  A    between atoms: C_5  and  N_6
REMARK    3  A    between atoms: C_9  and  O_10
REMARK    4  A    between atoms: C_13  and  C_14
REMARK    5  A    between atoms: C_14  and  O_16
REMARK    6  A    between atoms: C_17  and  C_18
REMARK    7  A    between atoms: C_18  and  O_20
REMARK                            x       y       z     vdW  Elec       q    Type
REMARK                         _______ _______ _______ _____ _____    ______ ____
ROOT
ATOM      1  C   UNL     1       7.231   7.615  17.047  0.00  0.00    +0.000 C 
ATOM      2  C   UNL     1       6.021   6.845  17.517  0.00  0.00    +0.000 A 
ATOM      3  C   UNL     1       4.792   7.512  17.515  0.00  0.00    +0.000 A 
ATOM      4  C   UNL     1       3.620   6.876  17.930  0.00  0.00    +0.000 A 
ATOM      5  C   UNL     1       3.601   5.528  18.311  0.00  0.00    +0.000 A 
ATOM      6  C   UNL     1       4.851   4.832  18.265  0.00  0.00    +0.000 A 
ATOM      7  C   UNL     1       6.065   5.492  17.923  0.00  0.00    +0.000 A 
ENDROOT
BRANCH   5   8
ATOM      8  N   UNL     1       2.394   4.907  18.650  0.00  0.00    +0.000 N 
ATOM      9  C   UNL     1       1.703   4.043  17.663  0.00  0.00    +0.000 C 
ATOM     10  C   UNL     1       1.680   2.579  18.090  0.00  0.00    +0.000 C 
ATOM     11  C   UNL     1       1.224   2.391  19.531  0.00  0.00    +0.000 C 
ATOM     12  C   UNL     1       2.031   3.268  20.479  0.00  0.00    +0.000 C 
ATOM     13  C   UNL     1       1.996   4.732  20.059  0.00  0.00    +0.000 C 
BRANCH  11  14
ATOM     14  O   UNL     1      -0.172   2.645  19.670  0.00  0.00    +0.000 OA
ATOM     15  H   UNL     1      -0.369   3.562  19.408  0.00  0.00    +0.000 HD
ENDBRANCH  11  14
ENDBRANCH   5   8
BRANCH   6  16
ATOM     16  C   UNL     1       4.862   3.363  18.450  0.00  0.00    +0.000 C 
ATOM     17  O   UNL     1       4.629   2.583  17.541  0.00  0.00    +0.000 OA
BRANCH  16  18
ATOM     18  O   UNL     1       5.154   2.974  19.709  0.00  0.00    +0.000 OA
ATOM     19  H   UNL     1       4.643   2.172  19.968  0.00  0.00    +0.000 HD
ENDBRANCH  16  18
ENDBRANCH   6  16
BRANCH   7  20
ATOM     20  C   UNL     1       7.402   4.802  17.891  0.00  0.00    +0.000 C 
ATOM     21  O   UNL     1       7.899   4.391  16.855  0.00  0.00    +0.000 OA
BRANCH  20  22
ATOM     22  O   UNL     1       8.117   4.864  19.032  0.00  0.00    +0.000 OA
ATOM     23  H   UNL     1       7.917   4.150  19.683  0.00  0.00    +0.000 HD
ENDBRANCH  20  22
ENDBRANCH   7  20
TORSDOF 6
ENDMDL
MODEL 5
REMARK VINA RESULT:      -6.1      1.809      5.743
REMARK  Name = 
REMARK  7 active torsions:
REMARK  status: ('A' for Active; 'I' for Inactive)
REMARK    1  A    between atoms: C_1  and  C_2
REMARK    2  A    between atoms: C_5  and  N_6
REMARK    3  A    between atoms: C_9  and  O_10
REMARK    4  A    between atoms: C_13  and  C_14
REMARK    5  A    between atoms: C_14  and  O_16
REMARK    6  A    between atoms: C_17  and  C_18
REMARK    7  A    between atoms: C_18  and  O_20
REMARK                            x       y       z     vdW  Elec       q    Type
REMARK                         _______ _______ _______ _____ _____    ______ ____
ROOT
ATOM      1  C   UNL     1       7.606   4.899  14.755  0.00  0.00    +0.000 C 
ATOM      2  C   UNL     1       6.351   4.623  15.546  0.00  0.00    +0.000 A 
ATOM      3  C   UNL     1       5.208   4.252  14.832  0.00  0.00    +0.000 A 
ATOM      4  C   UNL     1       4.004   3.973  15.482  0.00  0.00    +0.000 A 
ATOM      5  C   UNL     1       3.892   3.992  16.878  0.00  0.00    +0.000 A 
ATOM      6  C   UNL     1       5.075   4.323  17.611  0.00  0.00    +0.000 A 
ATOM      7  C   UNL     1       6.285   4.689  16.957  0.00  0.00    +0.000 A 
ENDROOT
BRANCH   5   8
ATOM      8  N   UNL     1       2.687   3.636  17.494  0.00  0.00    +0.000 N 
ATOM      9  C   UNL     1       2.463   2.236  17.928  0.00  0.00    +0.000 C 
ATOM     10  C   UNL     1       2.380   2.105  19.446  0.00  0.00    +0.000 C 
ATOM     11  C   UNL     1       1.442   3.126  20.076  0.00  0.00    +0.000 C 
ATOM     12  C   UNL     1       1.786   4.539  19.624  0.00  0.00    +0.000 C 
ATOM     13  C   UNL     1       1.813   4.654  18.105  0.00  0.00    +0.000 C 
BRANCH  11  14
ATOM     14  O   UNL     1       0.078   2.821  19.790  0.00  0.00    +0.000 OA
ATOM     15  H   UNL     1      -0.493   3.160  20.502  0.00  0.00    +0.000 HD
ENDBRANCH  11  14
ENDBRANCH   5   8
BRANCH   6  16
ATOM     16  C   UNL     1       5.080   4.155  19.082  0.00  0.00    +0.000 C 
ATOM     17  O   UNL     1       4.827   5.069  19.850  0.00  0.00    +0.000 OA
BRANCH  16  18
ATOM     18  O   UNL     1       5.387   2.905  19.487  0.00  0.00    +0.000 OA
ATOM     19  H   UNL     1       4.579   2.358  19.617  0.00  0.00    +0.000 HD
ENDBRANCH  16  18
ENDBRANCH   6  16
BRANCH   7  20
ATOM     20  C   UNL     1       7.542   5.071  17.691  0.00  0.00    +0.000 C 
ATOM     21  O   UNL     1       7.685   6.166  18.212  0.00  0.00    +0.000 OA
BRANCH  20  22
ATOM     22  O   UNL     1       8.404   4.064  17.933  0.00  0.00    +0.000 OA
ATOM     23  H   UNL     1       9.034   3.875  17.197  0.00  0.00    +0.000 HD
ENDBRANCH  20  22
ENDBRANCH   7  20
TORSDOF 6
ENDMDL
MODEL 6
REMARK VINA RESULT:      -5.9      1.125      1.835
REMARK  Name = 
REMARK  7 active torsions:
REMARK  status: ('A' for Active; 'I' for Inactive)
REMARK    1  A    between atoms: C_1  and  C_2
REMARK    2  A    between atoms: C_5  and  N_6
REMARK    3  A    between atoms: C_9  and  O_10
REMARK    4  A    between atoms: C_13  and  C_14
REMARK    5  A    between atoms: C_14  and  O_16
REMARK    6  A    between atoms: C_17  and  C_18
REMARK    7  A    between atoms: C_18  and  O_20
REMARK                            x       y       z     vdW  Elec       q    Type
REMARK                         _______ _______ _______ _____ _____    ______ ____
ROOT
ATOM      1  C   UNL     1       0.998   6.519  20.825  0.00  0.00    +0.000 C 
ATOM      2  C   UNL     1       2.088   6.343  19.796  0.00  0.00    +0.000 A 
ATOM      3  C   UNL     1       2.464   7.469  19.057  0.00  0.00    +0.000 A 
ATOM      4  C   UNL     1       3.466   7.398  18.087  0.00  0.00    +0.000 A 
ATOM      5  C   UNL     1       4.185   6.221  17.845  0.00  0.00    +0.000 A 
ATOM      6  C   UNL     1       3.833   5.082  18.637  0.00  0.00    +0.000 A 
ATOM      7  C   UNL     1       2.759   5.119  19.570  0.00  0.00    +0.000 A 
ENDROOT
BRANCH   5   8
ATOM      8  N   UNL     1       5.231   6.211  16.916  0.00  0.00    +0.000 N 
ATOM      9  C   UNL     1       6.637   6.177  17.385  0.00  0.00    +0.000 C 
ATOM     10  C   UNL     1       7.338   4.871  17.024  0.00  0.00    +0.000 C 
ATOM     11  C   UNL     1       7.143   4.480  15.565  0.00  0.00    +0.000 C 
ATOM     12  C   UNL     1       5.666   4.479  15.191  0.00  0.00    +0.000 C 
ATOM     13  C   UNL     1       5.003   5.812  15.515  0.00  0.00    +0.000 C 
BRANCH  11  14
ATOM     14  O   UNL     1       7.886   5.333  14.696  0.00  0.00    +0.000 OA
ATOM     15  H   UNL     1       8.085   4.866  13.865  0.00  0.00    +0.000 HD
ENDBRANCH  11  14
ENDBRANCH   5   8
BRANCH   6  16
ATOM     16  C   UNL     1       4.690   3.875  18.580  0.00  0.00    +0.000 C 
ATOM     17  O   UNL     1       5.623   3.694  19.344  0.00  0.00    +0.000 OA
BRANCH  16  18
ATOM     18  O   UNL     1       4.340   3.004  17.610  0.00  0.00    +0.000 OA
ATOM     19  H   UNL     1       4.682   3.285  16.731  0.00  0.00    +0.000 HD
ENDBRANCH  16  18
ENDBRANCH   6  16
BRANCH   7  20
ATOM     20  C   UNL     1       2.340   3.936  20.399  0.00  0.00    +0.000 C 
ATOM     21  O   UNL     1       2.629   3.833  21.581  0.00  0.00    +0.000 OA
BRANCH  20  22
ATOM     22  O   UNL     1       1.443   3.110  19.825  0.00  0.00    +0.000 OA
ATOM     23  H   UNL     1       0.499   3.350  19.987  0.00  0.00    +0.000 HD
ENDBRANCH  20  22
ENDBRANCH   7  20
TORSDOF 6
ENDMDL
MODEL 7
REMARK VINA RESULT:      -5.9      0.603      1.170
REMARK  Name = 
REMARK  7 active torsions:
REMARK  status: ('A' for Active; 'I' for Inactive)
REMARK    1  A    between atoms: C_1  and  C_2
REMARK    2  A    between atoms: C_5  and  N_6
REMARK    3  A    between atoms: C_9  and  O_10
REMARK    4  A    between atoms: C_13  and  C_14
REMARK    5  A    between atoms: C_14  and  O_16
REMARK    6  A    between atoms: C_17  and  C_18
REMARK    7  A    between atoms: C_18  and  O_20
REMARK                            x       y       z     vdW  Elec       q    Type
REMARK                         _______ _______ _______ _____ _____    ______ ____
ROOT
ATOM      1  C   UNL     1       1.402   6.958  20.851  0.00  0.00    +0.000 C 
ATOM      2  C   UNL     1       2.305   6.224  19.890  0.00  0.00    +0.000 A 
ATOM      3  C   UNL     1       2.990   6.985  18.939  0.00  0.00    +0.000 A 
ATOM      4  C   UNL     1       3.850   6.390  18.015  0.00  0.00    +0.000 A 
ATOM      5  C   UNL     1       4.118   5.014  18.027  0.00  0.00    +0.000 A 
ATOM      6  C   UNL     1       3.456   4.243  19.033  0.00  0.00    +0.000 A 
ATOM      7  C   UNL     1       2.514   4.826  19.928  0.00  0.00    +0.000 A 
ENDROOT
BRANCH   5   8
ATOM      8  N   UNL     1       5.042   4.467  17.130  0.00  0.00    +0.000 N 
ATOM      9  C   UNL     1       4.597   4.029  15.785  0.00  0.00    +0.000 C 
ATOM     10  C   UNL     1       5.191   4.885  14.670  0.00  0.00    +0.000 C 
ATOM     11  C   UNL     1       6.695   5.078  14.813  0.00  0.00    +0.000 C 
ATOM     12  C   UNL     1       7.053   5.589  16.202  0.00  0.00    +0.000 C 
ATOM     13  C   UNL     1       6.490   4.689  17.295  0.00  0.00    +0.000 C 
BRANCH  11  14
ATOM     14  O   UNL     1       7.402   3.874  14.518  0.00  0.00    +0.000 OA
ATOM     15  H   UNL     1       8.288   3.904  14.920  0.00  0.00    +0.000 HD
ENDBRANCH  11  14
ENDBRANCH   5   8
BRANCH   6  16
ATOM     16  C   UNL     1       3.855   2.831  19.235  0.00  0.00    +0.000 C 
ATOM     17  O   UNL     1       4.710   2.497  20.037  0.00  0.00    +0.000 OA
BRANCH  16  18
ATOM     18  O   UNL     1       3.185   1.958  18.452  0.00  0.00    +0.000 OA
ATOM     19  H   UNL     1       3.760   1.211  18.169  0.00  0.00    +0.000 HD
ENDBRANCH  16  18
ENDBRANCH   6  16
BRANCH   7  20
ATOM     20  C   UNL     1       1.776   4.043  20.980  0.00  0.00    +0.000 C 
ATOM     21  O   UNL     1       0.690   3.527  20.766  0.00  0.00    +0.000 OA
BRANCH  20  22
ATOM     22  O   UNL     1       2.479   3.756  22.093  0.00  0.00    +0.000 OA
ATOM     23  H   UNL     1       1.929   3.596  22.897  0.00  0.00    +0.000 HD
ENDBRANCH  20  22
ENDBRANCH   7  20
TORSDOF 6
ENDMDL
MODEL 8
REMARK VINA RESULT:      -5.8      1.878      5.690
REMARK  Name = 
REMARK  7 active torsions:
REMARK  status: ('A' for Active; 'I' for Inactive)
REMARK    1  A    between atoms: C_1  and  C_2
REMARK    2  A    between atoms: C_5  and  N_6
REMARK    3  A    between atoms: C_9  and  O_10
REMARK    4  A    between atoms: C_13  and  C_14
REMARK    5  A    between atoms: C_14  and  O_16
REMARK    6  A    between atoms: C_17  and  C_18
REMARK    7  A    between atoms: C_18  and  O_20
REMARK                            x       y       z     vdW  Elec       q    Type
REMARK                         _______ _______ _______ _____ _____    ______ ____
ROOT
ATOM      1  C   UNL     1       7.732   5.133  15.129  0.00  0.00    +0.000 C 
ATOM      2  C   UNL     1       6.436   4.798  15.826  0.00  0.00    +0.000 A 
ATOM      3  C   UNL     1       5.360   4.398  15.029  0.00  0.00    +0.000 A 
ATOM      4  C   UNL     1       4.125   4.064  15.591  0.00  0.00    +0.000 A 
ATOM      5  C   UNL     1       3.917   4.055  16.976  0.00  0.00    +0.000 A 
ATOM      6  C   UNL     1       5.034   4.416  17.794  0.00  0.00    +0.000 A 
ATOM      7  C   UNL     1       6.272   4.837  17.230  0.00  0.00    +0.000 A 
ENDROOT
BRANCH   5   8
ATOM      8  N   UNL     1       2.687   3.645  17.502  0.00  0.00    +0.000 N 
ATOM      9  C   UNL     1       2.464   2.218  17.838  0.00  0.00    +0.000 C 
ATOM     10  C   UNL     1       2.301   1.994  19.338  0.00  0.00    +0.000 C 
ATOM     11  C   UNL     1       1.312   2.961  19.975  0.00  0.00    +0.000 C 
ATOM     12  C   UNL     1       1.656   4.404  19.629  0.00  0.00    +0.000 C 
ATOM     13  C   UNL     1       1.763   4.611  18.124  0.00  0.00    +0.000 C 
BRANCH  11  14
ATOM     14  O   UNL     1      -0.029   2.654  19.597  0.00  0.00    +0.000 OA
ATOM     15  H   UNL     1      -0.027   2.042  18.840  0.00  0.00    +0.000 HD
ENDBRANCH  11  14
ENDBRANCH   5   8
BRANCH   6  16
ATOM     16  C   UNL     1       4.944   4.223  19.259  0.00  0.00    +0.000 C 
ATOM     17  O   UNL     1       5.146   3.146  19.795  0.00  0.00    +0.000 OA
BRANCH  16  18
ATOM     18  O   UNL     1       4.620   5.345  19.938  0.00  0.00    +0.000 OA
ATOM     19  H   UNL     1       5.108   5.405  20.791  0.00  0.00    +0.000 HD
ENDBRANCH  16  18
ENDBRANCH   6  16
BRANCH   7  20
ATOM     20  C   UNL     1       7.459   5.252  18.055  0.00  0.00    +0.000 C 
ATOM     21  O   UNL     1       8.316   4.458  18.412  0.00  0.00    +0.000 OA
BRANCH  20  22
ATOM     22  O   UNL     1       7.641   6.581  18.188  0.00  0.00    +0.000 OA
ATOM     23  H   UNL     1       6.854   7.129  17.958  0.00  0.00    +0.000 HD
ENDBRANCH  20  22
ENDBRANCH   7  20
TORSDOF 6
ENDMDL
MODEL 9
REMARK VINA RESULT:      -5.7      1.875      2.497
REMARK  Name = 
REMARK  7 active torsions:
REMARK  status: ('A' for Active; 'I' for Inactive)
REMARK    1  A    between atoms: C_1  and  C_2
REMARK    2  A    between atoms: C_5  and  N_6
REMARK    3  A    between atoms: C_9  and  O_10
REMARK    4  A    between atoms: C_13  and  C_14
REMARK    5  A    between atoms: C_14  and  O_16
REMARK    6  A    between atoms: C_17  and  C_18
REMARK    7  A    between atoms: C_18  and  O_20
REMARK                            x       y       z     vdW  Elec       q    Type
REMARK                         _______ _______ _______ _____ _____    ______ ____
ROOT
ATOM      1  C   UNL     1       0.497   2.536  19.374  0.00  0.00    +0.000 C 
ATOM      2  C   UNL     1       1.808   2.996  18.784  0.00  0.00    +0.000 A 
ATOM      3  C   UNL     1       1.974   2.867  17.403  0.00  0.00    +0.000 A 
ATOM      4  C   UNL     1       3.153   3.271  16.772  0.00  0.00    +0.000 A 
ATOM      5  C   UNL     1       4.201   3.878  17.475  0.00  0.00    +0.000 A 
ATOM      6  C   UNL     1       4.010   4.056  18.881  0.00  0.00    +0.000 A 
ATOM      7  C   UNL     1       2.849   3.574  19.548  0.00  0.00    +0.000 A 
ENDROOT
BRANCH   5   8
ATOM      8  N   UNL     1       5.336   4.335  16.795  0.00  0.00    +0.000 N 
ATOM      9  C   UNL     1       6.125   3.397  15.960  0.00  0.00    +0.000 C 
ATOM     10  C   UNL     1       6.050   3.739  14.475  0.00  0.00    +0.000 C 
ATOM     11  C   UNL     1       6.308   5.214  14.195  0.00  0.00    +0.000 C 
ATOM     12  C   UNL     1       5.409   6.098  15.049  0.00  0.00    +0.000 C 
ATOM     13  C   UNL     1       5.541   5.770  16.531  0.00  0.00    +0.000 C 
BRANCH  11  14
ATOM     14  O   UNL     1       7.681   5.546  14.391  0.00  0.00    +0.000 OA
ATOM     15  H   UNL     1       8.237   4.765  14.222  0.00  0.00    +0.000 HD
ENDBRANCH  11  14
ENDBRANCH   5   8
BRANCH   6  16
ATOM     16  C   UNL     1       4.982   4.876  19.641  0.00  0.00    +0.000 C 
ATOM     17  O   UNL     1       6.076   4.455  19.979  0.00  0.00    +0.000 OA
BRANCH  16  18
ATOM     18  O   UNL     1       4.545   6.122  19.919  0.00  0.00    +0.000 OA
ATOM     19  H   UNL     1       4.005   6.140  20.742  0.00  0.00    +0.000 HD
ENDBRANCH  16  18
ENDBRANCH   6  16
BRANCH   7  20
ATOM     20  C   UNL     1       2.624   3.716  21.029  0.00  0.00    +0.000 C 
ATOM     21  O   UNL     1       2.888   2.821  21.817  0.00  0.00    +0.000 OA
BRANCH  20  22
ATOM     22  O   UNL     1       2.328   4.959  21.457  0.00  0.00    +0.000 OA
ATOM     23  H   UNL     1       2.265   5.637  20.742  0.00  0.00    +0.000 HD
ENDBRANCH  20  22
ENDBRANCH   7  20
TORSDOF 6
ENDMDL
