MODEL 1
REMARK VINA RESULT:      -6.7      0.000      0.000
REMARK  Name = 
REMARK  5 active torsions:
REMARK  status: ('A' for Active; 'I' for Inactive)
REMARK    1  A    between atoms: C_1  and  O_2
REMARK    2  A    between atoms: O_2  and  C_3
REMARK    3  A    between atoms: C_6  and  N_7
REMARK    4  A    between atoms: C_8  and  N_9
REMARK    5  A    between atoms: C_10  and  C_11
REMARK                            x       y       z     vdW  Elec       q    Type
REMARK                         _______ _______ _______ _____ _____    ______ ____
ROOT
ATOM      1  N   UNL     1       3.971   4.614  18.561  0.00  0.00    +0.000 N 
ATOM      2  C   UNL     1       3.847   3.584  19.511  0.00  0.00    +0.000 A 
ATOM      3  C   UNL     1       2.727   3.832  20.229  0.00  0.00    +0.000 A 
ATOM      4  N   UNL     1       2.130   4.976  19.792  0.00  0.00    +0.000 N 
ATOM      5  C   UNL     1       2.868   5.513  18.741  0.00  0.00    +0.000 A 
ATOM      6  O   UNL     1       2.553   6.530  18.149  0.00  0.00    +0.000 OA
ATOM      7  H   UNL     1       1.286   5.399  20.151  0.00  0.00    +0.000 HD
ENDROOT
BRANCH   1  11
ATOM      8  C   UNL     1       6.907   5.229  15.540  0.00  0.00    +0.000 A 
ATOM      9  C   UNL     1       5.866   4.329  15.342  0.00  0.00    +0.000 A 
ATOM     10  C   UNL     1       4.906   4.122  16.338  0.00  0.00    +0.000 A 
ATOM     11  C   UNL     1       4.972   4.800  17.564  0.00  0.00    +0.000 A 
ATOM     12  C   UNL     1       6.057   5.666  17.762  0.00  0.00    +0.000 A 
ATOM     13  C   UNL     1       7.011   5.888  16.758  0.00  0.00    +0.000 A 
BRANCH   8  15
ATOM     14  C   UNL     1       7.317   4.850  13.249  0.00  0.00    +0.000 C 
ATOM     15  O   UNL     1       7.783   5.352  14.496  0.00  0.00    +0.000 OA
ENDBRANCH   8  15
ENDBRANCH   1  11
BRANCH   2  16
ATOM     16  N   UNL     1       4.744   2.558  19.720  0.00  0.00    +0.000 N 
ATOM     17  H   UNL     1       4.419   1.682  19.315  0.00  0.00    +0.000 HD
ATOM     18  H   UNL     1       5.697   2.763  19.426  0.00  0.00    +0.000 HD
ENDBRANCH   2  16
BRANCH   3  19
ATOM     19  C   UNL     1       2.230   3.076  21.315  0.00  0.00    +0.000 C 
ATOM     20  N   UNL     1       1.801   2.467  22.205  0.00  0.00    +0.000 NA
ENDBRANCH   3  19
TORSDOF 4
ENDMDL
MODEL 2
REMARK VINA RESULT:      -6.7      0.153      1.172
REMARK  Name = 
REMARK  5 active torsions:
REMARK  status: ('A' for Active; 'I' for Inactive)
REMARK    1  A    between atoms: C_1  and  O_2
REMARK    2  A    between atoms: O_2  and  C_3
REMARK    3  A    between atoms: C_6  and  N_7
REMARK    4  A    between atoms: C_8  and  N_9
REMARK    5  A    between atoms: C_10  and  C_11
REMARK                            x       y       z     vdW  Elec       q    Type
REMARK                         _______ _______ _______ _____ _____    ______ ____
ROOT
ATOM      1  N   UNL     1       3.924   4.625  18.446  0.00  0.00    +0.000 N 
ATOM      2  C   UNL     1       3.841   3.601  19.407  0.00  0.00    +0.000 A 
ATOM      3  C   UNL     1       2.740   3.840  20.156  0.00  0.00    +0.000 A 
ATOM      4  N   UNL     1       2.115   4.972  19.729  0.00  0.00    +0.000 N 
ATOM      5  C   UNL     1       2.815   5.511  18.652  0.00  0.00    +0.000 A 
ATOM      6  O   UNL     1       2.469   6.520  18.063  0.00  0.00    +0.000 OA
ATOM      7  H   UNL     1       1.278   5.388  20.110  0.00  0.00    +0.000 HD
ENDROOT
BRANCH   1  11
ATOM      8  C   UNL     1       6.873   5.139  15.419  0.00  0.00    +0.000 A 
ATOM      9  C   UNL     1       6.935   5.871  16.599  0.00  0.00    +0.000 A 
ATOM     10  C   UNL     1       5.962   5.708  17.589  0.00  0.00    +0.000 A 
ATOM     11  C   UNL     1       4.893   4.816  17.418  0.00  0.00    +0.000 A 
ATOM     12  C   UNL     1       4.821   4.124  16.201  0.00  0.00    +0.000 A 
ATOM     13  C   UNL     1       5.805   4.274  15.213  0.00  0.00    +0.000 A 
BRANCH   8  15
ATOM     14  C   UNL     1       7.588   5.042  13.174  0.00  0.00    +0.000 C 
ATOM     15  O   UNL     1       7.881   5.379  14.525  0.00  0.00    +0.000 OA
ENDBRANCH   8  15
ENDBRANCH   1  11
BRANCH   2  16
ATOM     16  N   UNL     1       4.757   2.588  19.597  0.00  0.00    +0.000 N 
ATOM     17  H   UNL     1       4.618   2.112  20.486  0.00  0.00    +0.000 HD
ATOM     18  H   UNL     1       4.812   1.918  18.831  0.00  0.00    +0.000 HD
ENDBRANCH   2  16
BRANCH   3  19
ATOM     19  C   UNL     1       2.285   3.085  21.261  0.00  0.00    +0.000 C 
ATOM     20  N   UNL     1       1.903   2.485  22.178  0.00  0.00    +0.000 NA
ENDBRANCH   3  19
TORSDOF 4
ENDMDL
MODEL 3
REMARK VINA RESULT:      -6.2      2.647      6.217
REMARK  Name = 
REMARK  5 active torsions:
REMARK  status: ('A' for Active; 'I' for Inactive)
REMARK    1  A    between atoms: C_1  and  O_2
REMARK    2  A    between atoms: O_2  and  C_3
REMARK    3  A    between atoms: C_6  and  N_7
REMARK    4  A    between atoms: C_8  and  N_9
REMARK    5  A    between atoms: C_10  and  C_11
REMARK                            x       y       z     vdW  Elec       q    Type
REMARK                         _______ _______ _______ _____ _____    ______ ____
ROOT
ATOM      1  N   UNL     1       4.449   5.120  17.016  0.00  0.00    +0.000 N 
ATOM      2  C   UNL     1       5.424   4.523  16.197  0.00  0.00    +0.000 A 
ATOM      3  C   UNL     1       6.047   5.517  15.524  0.00  0.00    +0.000 A 
ATOM      4  N   UNL     1       5.515   6.724  15.865  0.00  0.00    +0.000 N 
ATOM      5  C   UNL     1       4.503   6.537  16.803  0.00  0.00    +0.000 A 
ATOM      6  O   UNL     1       3.865   7.451  17.294  0.00  0.00    +0.000 OA
ATOM      7  H   UNL     1       5.784   7.631  15.511  0.00  0.00    +0.000 HD
ENDROOT
BRANCH   1  11
ATOM      8  C   UNL     1       1.698   3.363  19.750  0.00  0.00    +0.000 A 
ATOM      9  C   UNL     1       2.897   3.902  20.201  0.00  0.00    +0.000 A 
ATOM     10  C   UNL     1       3.804   4.472  19.302  0.00  0.00    +0.000 A 
ATOM     11  C   UNL     1       3.539   4.504  17.925  0.00  0.00    +0.000 A 
ATOM     12  C   UNL     1       2.347   3.911  17.485  0.00  0.00    +0.000 A 
ATOM     13  C   UNL     1       1.428   3.354  18.387  0.00  0.00    +0.000 A 
BRANCH   8  15
ATOM     14  C   UNL     1       1.535   2.525  21.948  0.00  0.00    +0.000 C 
ATOM     15  O   UNL     1       0.889   2.837  20.720  0.00  0.00    +0.000 OA
ENDBRANCH   8  15
ENDBRANCH   1  11
BRANCH   2  16
ATOM     16  N   UNL     1       5.646   3.169  16.052  0.00  0.00    +0.000 N 
ATOM     17  H   UNL     1       6.624   2.965  15.854  0.00  0.00    +0.000 HD
ATOM     18  H   UNL     1       5.305   2.599  16.824  0.00  0.00    +0.000 HD
ENDBRANCH   2  16
BRANCH   3  19
ATOM     19  C   UNL     1       7.074   5.377  14.562  0.00  0.00    +0.000 C 
ATOM     20  N   UNL     1       7.924   5.284  13.778  0.00  0.00    +0.000 NA
ENDBRANCH   3  19
TORSDOF 4
ENDMDL
MODEL 4
REMARK VINA RESULT:      -6.2      2.707      6.145
REMARK  Name = 
REMARK  5 active torsions:
REMARK  status: ('A' for Active; 'I' for Inactive)
REMARK    1  A    between atoms: C_1  and  O_2
REMARK    2  A    between atoms: O_2  and  C_3
REMARK    3  A    between atoms: C_6  and  N_7
REMARK    4  A    between atoms: C_8  and  N_9
REMARK    5  A    between atoms: C_10  and  C_11
REMARK                            x       y       z     vdW  Elec       q    Type
REMARK                         _______ _______ _______ _____ _____    ______ ____
ROOT
ATOM      1  N   UNL     1       4.761   4.920  16.840  0.00  0.00    +0.000 N 
ATOM      2  C   UNL     1       5.702   4.385  15.941  0.00  0.00    +0.000 A 
ATOM      3  C   UNL     1       6.240   5.421  15.258  0.00  0.00    +0.000 A 
ATOM      4  N   UNL     1       5.684   6.596  15.667  0.00  0.00    +0.000 N 
ATOM      5  C   UNL     1       4.745   6.343  16.664  0.00  0.00    +0.000 A 
ATOM      6  O   UNL     1       4.106   7.217  17.222  0.00  0.00    +0.000 OA
ATOM      7  H   UNL     1       5.892   7.522  15.323  0.00  0.00    +0.000 HD
ENDROOT
BRANCH   1  11
ATOM      8  C   UNL     1       2.314   2.825  19.623  0.00  0.00    +0.000 A 
ATOM      9  C   UNL     1       1.762   3.381  18.474  0.00  0.00    +0.000 A 
ATOM     10  C   UNL     1       2.566   4.076  17.565  0.00  0.00    +0.000 A 
ATOM     11  C   UNL     1       3.940   4.244  17.789  0.00  0.00    +0.000 A 
ATOM     12  C   UNL     1       4.467   3.718  18.977  0.00  0.00    +0.000 A 
ATOM     13  C   UNL     1       3.667   3.006  19.883  0.00  0.00    +0.000 A 
BRANCH   8  15
ATOM     14  C   UNL     1       1.371   2.640  21.777  0.00  0.00    +0.000 C 
ATOM     15  O   UNL     1       1.433   2.165  20.437  0.00  0.00    +0.000 OA
ENDBRANCH   8  15
ENDBRANCH   1  11
BRANCH   2  16
ATOM     16  N   UNL     1       5.968   3.047  15.743  0.00  0.00    +0.000 N 
ATOM     17  H   UNL     1       6.926   2.809  15.994  0.00  0.00    +0.000 HD
ATOM     18  H   UNL     1       5.307   2.414  16.190  0.00  0.00    +0.000 HD
ENDBRANCH   2  16
BRANCH   3  19
ATOM     19  C   UNL     1       7.204   5.350  14.226  0.00  0.00    +0.000 C 
ATOM     20  N   UNL     1       8.011   5.301  13.394  0.00  0.00    +0.000 NA
ENDBRANCH   3  19
TORSDOF 4
ENDMDL
MODEL 5
REMARK VINA RESULT:      -6.1      1.303      1.304
REMARK  Name = 
REMARK  5 active torsions:
REMARK  status: ('A' for Active; 'I' for Inactive)
REMARK    1  A    between atoms: C_1  and  O_2
REMARK    2  A    between atoms: O_2  and  C_3
REMARK    3  A    between atoms: C_6  and  N_7
REMARK    4  A    between atoms: C_8  and  N_9
REMARK    5  A    between atoms: C_10  and  C_11
REMARK                            x       y       z     vdW  Elec       q    Type
REMARK                         _______ _______ _______ _____ _____    ______ ____
ROOT
ATOM      1  N   UNL     1       3.120   4.016  18.226  0.00  0.00    +0.000 N 
ATOM      2  C   UNL     1       3.313   3.450  19.500  0.00  0.00    +0.000 A 
ATOM      3  C   UNL     1       2.089   3.198  20.017  0.00  0.00    +0.000 A 
ATOM      4  N   UNL     1       1.118   3.581  19.141  0.00  0.00    +0.000 N 
ATOM      5  C   UNL     1       1.708   4.104  17.993  0.00  0.00    +0.000 A 
ATOM      6  O   UNL     1       1.073   4.510  17.037  0.00  0.00    +0.000 OA
ATOM      7  H   UNL     1       0.119   3.515  19.271  0.00  0.00    +0.000 HD
ENDROOT
BRANCH   1  11
ATOM      8  C   UNL     1       5.967   5.280  15.323  0.00  0.00    +0.000 A 
ATOM      9  C   UNL     1       5.759   3.927  15.568  0.00  0.00    +0.000 A 
ATOM     10  C   UNL     1       4.830   3.513  16.527  0.00  0.00    +0.000 A 
ATOM     11  C   UNL     1       4.094   4.443  17.276  0.00  0.00    +0.000 A 
ATOM     12  C   UNL     1       4.354   5.802  17.049  0.00  0.00    +0.000 A 
ATOM     13  C   UNL     1       5.274   6.220  16.076  0.00  0.00    +0.000 A 
BRANCH   8  15
ATOM     14  C   UNL     1       7.059   4.572  13.357  0.00  0.00    +0.000 C 
ATOM     15  O   UNL     1       6.897   5.566  14.361  0.00  0.00    +0.000 OA
ENDBRANCH   8  15
ENDBRANCH   1  11
BRANCH   2  16
ATOM     16  N   UNL     1       4.524   3.262  20.132  0.00  0.00    +0.000 N 
ATOM     17  H   UNL     1       5.136   2.644  19.602  0.00  0.00    +0.000 HD
ATOM     18  H   UNL     1       5.008   4.122  20.384  0.00  0.00    +0.000 HD
ENDBRANCH   2  16
BRANCH   3  19
ATOM     19  C   UNL     1       1.800   2.661  21.292  0.00  0.00    +0.000 C 
ATOM     20  N   UNL     1       1.572   2.200  22.332  0.00  0.00    +0.000 NA
ENDBRANCH   3  19
TORSDOF 4
ENDMDL
MODEL 6
REMARK VINA RESULT:      -6.1      1.281      1.592
REMARK  Name = 
REMARK  5 active torsions:
REMARK  status: ('A' for Active; 'I' for Inactive)
REMARK    1  A    between atoms: C_1  and  O_2
REMARK    2  A    between atoms: O_2  and  C_3
REMARK    3  A    between atoms: C_6  and  N_7
REMARK    4  A    between atoms: C_8  and  N_9
REMARK    5  A    between atoms: C_10  and  C_11
REMARK                            x       y       z     vdW  Elec       q    Type
REMARK                         _______ _______ _______ _____ _____    ______ ____
ROOT
ATOM      1  N   UNL     1       3.136   3.981  18.168  0.00  0.00    +0.000 N 
ATOM      2  C   UNL     1       3.335   3.420  19.443  0.00  0.00    +0.000 A 
ATOM      3  C   UNL     1       2.114   3.214  19.986  0.00  0.00    +0.000 A 
ATOM      4  N   UNL     1       1.139   3.622  19.127  0.00  0.00    +0.000 N 
ATOM      5  C   UNL     1       1.723   4.115  17.963  0.00  0.00    +0.000 A 
ATOM      6  O   UNL     1       1.083   4.535  17.015  0.00  0.00    +0.000 OA
ATOM      7  H   UNL     1       0.141   3.591  19.276  0.00  0.00    +0.000 HD
ENDROOT
BRANCH   1  11
ATOM      8  C   UNL     1       6.089   5.145  15.330  0.00  0.00    +0.000 A 
ATOM      9  C   UNL     1       5.363   6.102  16.029  0.00  0.00    +0.000 A 
ATOM     10  C   UNL     1       4.388   5.719  16.956  0.00  0.00    +0.000 A 
ATOM     11  C   UNL     1       4.104   4.367  17.196  0.00  0.00    +0.000 A 
ATOM     12  C   UNL     1       4.812   3.419  16.445  0.00  0.00    +0.000 A 
ATOM     13  C   UNL     1       5.803   3.800  15.527  0.00  0.00    +0.000 A 
BRANCH   8  15
ATOM     14  C   UNL     1       7.236   4.845  13.292  0.00  0.00    +0.000 C 
ATOM     15  O   UNL     1       7.018   5.636  14.454  0.00  0.00    +0.000 OA
ENDBRANCH   8  15
ENDBRANCH   1  11
BRANCH   2  16
ATOM     16  N   UNL     1       4.552   3.196  20.053  0.00  0.00    +0.000 N 
ATOM     17  H   UNL     1       4.465   2.574  20.853  0.00  0.00    +0.000 HD
ATOM     18  H   UNL     1       5.287   2.880  19.424  0.00  0.00    +0.000 HD
ENDBRANCH   2  16
BRANCH   3  19
ATOM     19  C   UNL     1       1.832   2.697  21.272  0.00  0.00    +0.000 C 
ATOM     20  N   UNL     1       1.579   2.277  22.323  0.00  0.00    +0.000 NA
ENDBRANCH   3  19
TORSDOF 4
ENDMDL
MODEL 7
REMARK VINA RESULT:      -6.0      2.720      6.351
REMARK  Name = 
REMARK  5 active torsions:
REMARK  status: ('A' for Active; 'I' for Inactive)
REMARK    1  A    between atoms: C_1  and  O_2
REMARK    2  A    between atoms: O_2  and  C_3
REMARK    3  A    between atoms: C_6  and  N_7
REMARK    4  A    between atoms: C_8  and  N_9
REMARK    5  A    between atoms: C_10  and  C_11
REMARK                            x       y       z     vdW  Elec       q    Type
REMARK                         _______ _______ _______ _____ _____    ______ ____
ROOT
ATOM      1  N   UNL     1       5.785   4.511  17.480  0.00  0.00    +0.000 N 
ATOM      2  C   UNL     1       5.643   4.524  16.081  0.00  0.00    +0.000 A 
ATOM      3  C   UNL     1       6.882   4.648  15.552  0.00  0.00    +0.000 A 
ATOM      4  N   UNL     1       7.813   4.724  16.543  0.00  0.00    +0.000 N 
ATOM      5  C   UNL     1       7.181   4.643  17.781  0.00  0.00    +0.000 A 
ATOM      6  O   UNL     1       7.778   4.669  18.843  0.00  0.00    +0.000 OA
ATOM      7  H   UNL     1       8.812   4.827  16.436  0.00  0.00    +0.000 HD
ENDROOT
BRANCH   1  11
ATOM      8  C   UNL     1       2.850   4.141  20.542  0.00  0.00    +0.000 A 
ATOM      9  C   UNL     1       3.527   3.021  20.071  0.00  0.00    +0.000 A 
ATOM     10  C   UNL     1       4.485   3.143  19.061  0.00  0.00    +0.000 A 
ATOM     11  C   UNL     1       4.781   4.386  18.484  0.00  0.00    +0.000 A 
ATOM     12  C   UNL     1       4.052   5.495  18.938  0.00  0.00    +0.000 A 
ATOM     13  C   UNL     1       3.102   5.379  19.963  0.00  0.00    +0.000 A 
BRANCH   8  15
ATOM     14  C   UNL     1       1.483   2.558  21.631  0.00  0.00    +0.000 C 
ATOM     15  O   UNL     1       1.939   3.902  21.534  0.00  0.00    +0.000 OA
ENDBRANCH   8  15
ENDBRANCH   1  11
BRANCH   2  16
ATOM     16  N   UNL     1       4.453   4.493  15.383  0.00  0.00    +0.000 N 
ATOM     17  H   UNL     1       4.380   3.666  14.795  0.00  0.00    +0.000 HD
ATOM     18  H   UNL     1       3.622   4.603  15.961  0.00  0.00    +0.000 HD
ENDBRANCH   2  16
BRANCH   3  19
ATOM     19  C   UNL     1       7.215   4.739  14.181  0.00  0.00    +0.000 C 
ATOM     20  N   UNL     1       7.497   4.792  13.057  0.00  0.00    +0.000 NA
ENDBRANCH   3  19
TORSDOF 4
ENDMDL
MODEL 8
REMARK VINA RESULT:      -6.0      2.917      6.413
REMARK  Name = 
REMARK  5 active torsions:
REMARK  status: ('A' for Active; 'I' for Inactive)
REMARK    1  A    between atoms: C_1  and  O_2
REMARK    2  A    between atoms: O_2  and  C_3
REMARK    3  A    between atoms: C_6  and  N_7
REMARK    4  A    between atoms: C_8  and  N_9
REMARK    5  A    between atoms: C_10  and  C_11
REMARK                            x       y       z     vdW  Elec       q    Type
REMARK                         _______ _______ _______ _____ _____    ______ ____
ROOT
ATOM      1  N   UNL     1       5.521   4.369  16.741  0.00  0.00    +0.000 N 
ATOM      2  C   UNL     1       5.687   4.550  15.356  0.00  0.00    +0.000 A 
ATOM      3  C   UNL     1       6.985   4.868  15.145  0.00  0.00    +0.000 A 
ATOM      4  N   UNL     1       7.659   4.909  16.328  0.00  0.00    +0.000 N 
ATOM      5  C   UNL     1       6.788   4.603  17.370  0.00  0.00    +0.000 A 
ATOM      6  O   UNL     1       7.130   4.552  18.538  0.00  0.00    +0.000 OA
ATOM      7  H   UNL     1       8.635   5.127  16.467  0.00  0.00    +0.000 HD
ENDROOT
BRANCH   1  11
ATOM      8  C   UNL     1       2.061   3.305  18.982  0.00  0.00    +0.000 A 
ATOM      9  C   UNL     1       2.961   2.331  18.565  0.00  0.00    +0.000 A 
ATOM     10  C   UNL     1       4.093   2.681  17.823  0.00  0.00    +0.000 A 
ATOM     11  C   UNL     1       4.346   4.013  17.466  0.00  0.00    +0.000 A 
ATOM     12  C   UNL     1       3.400   4.973  17.853  0.00  0.00    +0.000 A 
ATOM     13  C   UNL     1       2.273   4.628  18.613  0.00  0.00    +0.000 A 
BRANCH   8  15
ATOM     14  C   UNL     1       1.198   2.772  21.111  0.00  0.00    +0.000 C 
ATOM     15  O   UNL     1       0.993   2.847  19.705  0.00  0.00    +0.000 OA
ENDBRANCH   8  15
ENDBRANCH   1  11
BRANCH   2  16
ATOM     16  N   UNL     1       4.693   4.489  14.402  0.00  0.00    +0.000 N 
ATOM     17  H   UNL     1       3.803   4.831  14.760  0.00  0.00    +0.000 HD
ATOM     18  H   UNL     1       4.927   4.938  13.519  0.00  0.00    +0.000 HD
ENDBRANCH   2  16
BRANCH   3  19
ATOM     19  C   UNL     1       7.595   5.170  13.906  0.00  0.00    +0.000 C 
ATOM     20  N   UNL     1       8.076   5.412  12.878  0.00  0.00    +0.000 NA
ENDBRANCH   3  19
TORSDOF 4
ENDMDL
MODEL 9
REMARK VINA RESULT:      -6.0      2.717      6.427
REMARK  Name = 
REMARK  5 active torsions:
REMARK  status: ('A' for Active; 'I' for Inactive)
REMARK    1  A    between atoms: C_1  and  O_2
REMARK    2  A    between atoms: O_2  and  C_3
REMARK    3  A    between atoms: C_6  and  N_7
REMARK    4  A    between atoms: C_8  and  N_9
REMARK    5  A    between atoms: C_10  and  C_11
REMARK                            x       y       z     vdW  Elec       q    Type
REMARK                         _______ _______ _______ _____ _____    ______ ____
ROOT
ATOM      1  N   UNL     1       5.816   4.468  17.495  0.00  0.00    +0.000 N 
ATOM      2  C   UNL     1       5.668   4.490  16.096  0.00  0.00    +0.000 A 
ATOM      3  C   UNL     1       6.899   4.664  15.564  0.00  0.00    +0.000 A 
ATOM      4  N   UNL     1       7.831   4.763  16.552  0.00  0.00    +0.000 N 
ATOM      5  C   UNL     1       7.207   4.647  17.792  0.00  0.00    +0.000 A 
ATOM      6  O   UNL     1       7.807   4.684  18.852  0.00  0.00    +0.000 OA
ATOM      7  H   UNL     1       8.825   4.903  16.443  0.00  0.00    +0.000 HD
ENDROOT
BRANCH   1  11
ATOM      8  C   UNL     1       2.779   3.965  20.435  0.00  0.00    +0.000 A 
ATOM      9  C   UNL     1       3.136   5.235  19.998  0.00  0.00    +0.000 A 
ATOM     10  C   UNL     1       4.139   5.399  19.037  0.00  0.00    +0.000 A 
ATOM     11  C   UNL     1       4.820   4.298  18.501  0.00  0.00    +0.000 A 
ATOM     12  C   UNL     1       4.479   3.030  18.992  0.00  0.00    +0.000 A 
ATOM     13  C   UNL     1       3.462   2.860  19.942  0.00  0.00    +0.000 A 
BRANCH   8  15
ATOM     14  C   UNL     1       1.392   2.623  21.791  0.00  0.00    +0.000 C 
ATOM     15  O   UNL     1       1.783   3.925  21.373  0.00  0.00    +0.000 OA
ENDBRANCH   8  15
ENDBRANCH   1  11
BRANCH   2  16
ATOM     16  N   UNL     1       4.477   4.424  15.402  0.00  0.00    +0.000 N 
ATOM     17  H   UNL     1       4.158   3.464  15.288  0.00  0.00    +0.000 HD
ATOM     18  H   UNL     1       3.736   5.011  15.780  0.00  0.00    +0.000 HD
ENDBRANCH   2  16
BRANCH   3  19
ATOM     19  C   UNL     1       7.223   4.780  14.193  0.00  0.00    +0.000 C 
ATOM     20  N   UNL     1       7.495   4.898  13.071  0.00  0.00    +0.000 NA
ENDBRANCH   3  19
TORSDOF 4
ENDMDL
