MODEL 1
REMARK VINA RESULT:      -8.8      0.000      0.000
REMARK  Name = 
REMARK  6 active torsions:
REMARK  status: ('A' for Active; 'I' for Inactive)
REMARK    1  A    between atoms: N_3  and  C_4
REMARK    2  A    between atoms: N_13  and  C_14
REMARK    3  A    between atoms: C_19  and  C_20
REMARK    4  A    between atoms: C_20  and  N_21
REMARK    5  A    between atoms: C_24  and  C_25
REMARK    6  A    between atoms: C_25  and  C_26
REMARK                            x       y       z     vdW  Elec       q    Type
REMARK                         _______ _______ _______ _____ _____    ______ ____
ROOT
ATOM      1  C   UNL     1       0.372   9.761  20.322  0.00  0.00    +0.000 A 
ATOM      2  C   UNL     1       0.421   8.734  21.272  0.00  0.00    +0.000 A 
ATOM      3  C   UNL     1      -0.059   8.915  22.585  0.00  0.00    +0.000 A 
ATOM      4  C   UNL     1      -0.547  10.145  23.006  0.00  0.00    +0.000 A 
ATOM      5  C   UNL     1      -0.639  11.172  22.084  0.00  0.00    +0.000 A 
ATOM      6  C   UNL     1      -0.248  10.985  20.732  0.00  0.00    +0.000 A 
ENDROOT
BRANCH   1  10
ATOM      7  O   UNL     1       2.191   9.255  17.212  0.00  0.00    +0.000 OA
ATOM      8  C   UNL     1       1.803   8.847  18.309  0.00  0.00    +0.000 C 
ATOM      9  N   UNL     1       2.139   7.618  18.810  0.00  0.00    +0.000 N 
ATOM     10  N   UNL     1       0.936   9.663  19.012  0.00  0.00    +0.000 N 
ATOM     11  H   UNL     1       1.386   7.225  19.345  0.00  0.00    +0.000 HD
ATOM     12  H   UNL     1       0.710  10.456  18.423  0.00  0.00    +0.000 HD
BRANCH   9  13
ATOM     13  C   UNL     1       2.958   6.630  18.158  0.00  0.00    +0.000 A 
ATOM     14  C   UNL     1       2.428   5.334  18.108  0.00  0.00    +0.000 A 
ATOM     15  C   UNL     1       3.124   4.240  17.574  0.00  0.00    +0.000 A 
ATOM     16  C   UNL     1       4.415   4.475  17.102  0.00  0.00    +0.000 A 
ATOM     17  N   UNL     1       5.335   3.618  16.567  0.00  0.00    +0.000 N 
ATOM     18  N   UNL     1       6.513   4.203  16.278  0.00  0.00    +0.000 NA
ATOM     19  C   UNL     1       6.307   5.480  16.619  0.00  0.00    +0.000 A 
ATOM     20  C   UNL     1       5.002   5.728  17.132  0.00  0.00    +0.000 A 
ATOM     21  C   UNL     1       4.255   6.843  17.635  0.00  0.00    +0.000 A 
ATOM     22  H   UNL     1       5.234   2.624  16.393  0.00  0.00    +0.000 HD
ENDBRANCH   9  13
ENDBRANCH   1  10
BRANCH   6  23
ATOM     23  C   UNL     1      -0.574  12.151  19.806  0.00  0.00    +0.000 C 
BRANCH  23  24
ATOM     24  N   UNL     1       0.225  13.372  20.073  0.00  0.00    +0.000 NA
ATOM     25  C   UNL     1       1.670  13.130  19.953  0.00  0.00    +0.000 C 
ATOM     26  C   UNL     1       2.463  14.390  20.305  0.00  0.00    +0.000 C 
ATOM     27  C   UNL     1       2.169  15.594  19.406  0.00  0.00    +0.000 C 
ATOM     28  C   UNL     1       0.652  15.719  19.129  0.00  0.00    +0.000 C 
ATOM     29  C   UNL     1      -0.209  14.443  19.171  0.00  0.00    +0.000 C 
BRANCH  27  30
ATOM     30  C   UNL     1       3.008  15.660  18.102  0.00  0.00    +0.000 C 
BRANCH  30  31
ATOM     31  C   UNL     1       4.521  15.731  18.258  0.00  0.00    +0.000 A 
ATOM     32  C   UNL     1       5.333  14.683  17.783  0.00  0.00    +0.000 A 
ATOM     33  C   UNL     1       6.728  14.763  17.860  0.00  0.00    +0.000 A 
ATOM     34  C   UNL     1       7.342  15.889  18.395  0.00  0.00    +0.000 A 
ATOM     35  C   UNL     1       6.554  16.940  18.867  0.00  0.00    +0.000 A 
ATOM     36  C   UNL     1       5.155  16.857  18.808  0.00  0.00    +0.000 A 
ENDBRANCH  30  31
ENDBRANCH  27  30
ENDBRANCH  23  24
ENDBRANCH   6  23
TORSDOF 6
ENDMDL
MODEL 2
REMARK VINA RESULT:      -8.8      3.916      6.309
REMARK  Name = 
REMARK  6 active torsions:
REMARK  status: ('A' for Active; 'I' for Inactive)
REMARK    1  A    between atoms: N_3  and  C_4
REMARK    2  A    between atoms: N_13  and  C_14
REMARK    3  A    between atoms: C_19  and  C_20
REMARK    4  A    between atoms: C_20  and  N_21
REMARK    5  A    between atoms: C_24  and  C_25
REMARK    6  A    between atoms: C_25  and  C_26
REMARK                            x       y       z     vdW  Elec       q    Type
REMARK                         _______ _______ _______ _____ _____    ______ ____
ROOT
ATOM      1  C   UNL     1       0.689   9.531  20.341  0.00  0.00    +0.000 A 
ATOM      2  C   UNL     1       1.005   8.613  21.348  0.00  0.00    +0.000 A 
ATOM      3  C   UNL     1       0.570   8.790  22.677  0.00  0.00    +0.000 A 
ATOM      4  C   UNL     1      -0.144   9.920  23.051  0.00  0.00    +0.000 A 
ATOM      5  C   UNL     1      -0.502  10.832  22.074  0.00  0.00    +0.000 A 
ATOM      6  C   UNL     1      -0.153  10.627  20.713  0.00  0.00    +0.000 A 
ENDROOT
BRANCH   1  10
ATOM      7  O   UNL     1       2.364   9.083  17.142  0.00  0.00    +0.000 OA
ATOM      8  C   UNL     1       2.042   8.662  18.255  0.00  0.00    +0.000 C 
ATOM      9  N   UNL     1       2.435   7.441  18.733  0.00  0.00    +0.000 N 
ATOM     10  N   UNL     1       1.190   9.452  19.003  0.00  0.00    +0.000 N 
ATOM     11  H   UNL     1       1.721   7.026  19.303  0.00  0.00    +0.000 HD
ATOM     12  H   UNL     1       0.913  10.241  18.429  0.00  0.00    +0.000 HD
BRANCH   9  13
ATOM     13  C   UNL     1       3.248   6.477  18.037  0.00  0.00    +0.000 A 
ATOM     14  C   UNL     1       2.736   5.174  17.983  0.00  0.00    +0.000 A 
ATOM     15  C   UNL     1       3.430   4.100  17.407  0.00  0.00    +0.000 A 
ATOM     16  C   UNL     1       4.701   4.364  16.896  0.00  0.00    +0.000 A 
ATOM     17  N   UNL     1       5.616   3.531  16.316  0.00  0.00    +0.000 N 
ATOM     18  N   UNL     1       6.774   4.140  15.997  0.00  0.00    +0.000 NA
ATOM     19  C   UNL     1       6.560   5.408  16.366  0.00  0.00    +0.000 A 
ATOM     20  C   UNL     1       5.269   5.626  16.927  0.00  0.00    +0.000 A 
ATOM     21  C   UNL     1       4.522   6.720  17.474  0.00  0.00    +0.000 A 
ATOM     22  H   UNL     1       5.525   2.538  16.128  0.00  0.00    +0.000 HD
ENDBRANCH   9  13
ENDBRANCH   1  10
BRANCH   6  23
ATOM     23  C   UNL     1      -0.769  11.626  19.739  0.00  0.00    +0.000 C 
BRANCH  23  24
ATOM     24  N   UNL     1      -1.437  10.995  18.574  0.00  0.00    +0.000 NA
ATOM     25  C   UNL     1      -2.699  10.339  18.942  0.00  0.00    +0.000 C 
ATOM     26  C   UNL     1      -3.321   9.639  17.732  0.00  0.00    +0.000 C 
ATOM     27  C   UNL     1      -3.664  10.574  16.569  0.00  0.00    +0.000 C 
ATOM     28  C   UNL     1      -2.534  11.605  16.337  0.00  0.00    +0.000 C 
ATOM     29  C   UNL     1      -1.649  12.004  17.531  0.00  0.00    +0.000 C 
BRANCH  27  30
ATOM     30  C   UNL     1      -5.059  11.247  16.657  0.00  0.00    +0.000 C 
BRANCH  30  31
ATOM     31  C   UNL     1      -5.644  11.443  18.049  0.00  0.00    +0.000 A 
ATOM     32  C   UNL     1      -6.576  10.520  18.563  0.00  0.00    +0.000 A 
ATOM     33  C   UNL     1      -7.074  10.650  19.865  0.00  0.00    +0.000 A 
ATOM     34  C   UNL     1      -6.645  11.688  20.684  0.00  0.00    +0.000 A 
ATOM     35  C   UNL     1      -5.719  12.610  20.194  0.00  0.00    +0.000 A 
ATOM     36  C   UNL     1      -5.230  12.494  18.884  0.00  0.00    +0.000 A 
ENDBRANCH  30  31
ENDBRANCH  27  30
ENDBRANCH  23  24
ENDBRANCH   6  23
TORSDOF 6
ENDMDL
MODEL 3
REMARK VINA RESULT:      -8.7      1.414      2.773
REMARK  Name = 
REMARK  6 active torsions:
REMARK  status: ('A' for Active; 'I' for Inactive)
REMARK    1  A    between atoms: N_3  and  C_4
REMARK    2  A    between atoms: N_13  and  C_14
REMARK    3  A    between atoms: C_19  and  C_20
REMARK    4  A    between atoms: C_20  and  N_21
REMARK    5  A    between atoms: C_24  and  C_25
REMARK    6  A    between atoms: C_25  and  C_26
REMARK                            x       y       z     vdW  Elec       q    Type
REMARK                         _______ _______ _______ _____ _____    ______ ____
ROOT
ATOM      1  C   UNL     1       0.325   9.785  20.362  0.00  0.00    +0.000 A 
ATOM      2  C   UNL     1       0.115   8.679  21.193  0.00  0.00    +0.000 A 
ATOM      3  C   UNL     1      -0.369   8.822  22.509  0.00  0.00    +0.000 A 
ATOM      4  C   UNL     1      -0.602  10.078  23.054  0.00  0.00    +0.000 A 
ATOM      5  C   UNL     1      -0.436  11.191  22.248  0.00  0.00    +0.000 A 
ATOM      6  C   UNL     1      -0.038  11.065  20.892  0.00  0.00    +0.000 A 
ENDROOT
BRANCH   1  10
ATOM      7  O   UNL     1       2.190   9.314  17.273  0.00  0.00    +0.000 OA
ATOM      8  C   UNL     1       1.781   8.892  18.356  0.00  0.00    +0.000 C 
ATOM      9  N   UNL     1       2.098   7.652  18.842  0.00  0.00    +0.000 N 
ATOM     10  N   UNL     1       0.910   9.704  19.059  0.00  0.00    +0.000 N 
ATOM     11  H   UNL     1       1.333   7.256  19.359  0.00  0.00    +0.000 HD
ATOM     12  H   UNL     1       0.699  10.509  18.479  0.00  0.00    +0.000 HD
BRANCH   9  13
ATOM     13  C   UNL     1       2.920   6.668  18.187  0.00  0.00    +0.000 A 
ATOM     14  C   UNL     1       2.381   5.376  18.112  0.00  0.00    +0.000 A 
ATOM     15  C   UNL     1       3.077   4.285  17.572  0.00  0.00    +0.000 A 
ATOM     16  C   UNL     1       4.376   4.518  17.119  0.00  0.00    +0.000 A 
ATOM     17  N   UNL     1       5.297   3.663  16.585  0.00  0.00    +0.000 N 
ATOM     18  N   UNL     1       6.483   4.244  16.320  0.00  0.00    +0.000 NA
ATOM     19  C   UNL     1       6.281   5.518  16.675  0.00  0.00    +0.000 A 
ATOM     20  C   UNL     1       4.971   5.767  17.175  0.00  0.00    +0.000 A 
ATOM     21  C   UNL     1       4.224   6.879  17.684  0.00  0.00    +0.000 A 
ATOM     22  H   UNL     1       5.192   2.672  16.395  0.00  0.00    +0.000 HD
ENDBRANCH   9  13
ENDBRANCH   1  10
BRANCH   6  23
ATOM     23  C   UNL     1      -0.071  12.363  20.094  0.00  0.00    +0.000 C 
BRANCH  23  24
ATOM     24  N   UNL     1       1.269  12.850  19.683  0.00  0.00    +0.000 NA
ATOM     25  C   UNL     1       1.202  13.768  18.537  0.00  0.00    +0.000 C 
ATOM     26  C   UNL     1       2.604  14.192  18.097  0.00  0.00    +0.000 C 
ATOM     27  C   UNL     1       3.409  14.929  19.172  0.00  0.00    +0.000 C 
ATOM     28  C   UNL     1       3.231  14.256  20.554  0.00  0.00    +0.000 C 
ATOM     29  C   UNL     1       1.929  13.482  20.830  0.00  0.00    +0.000 C 
BRANCH  27  30
ATOM     30  C   UNL     1       3.172  16.461  19.234  0.00  0.00    +0.000 C 
BRANCH  30  31
ATOM     31  C   UNL     1       1.829  16.973  18.731  0.00  0.00    +0.000 A 
ATOM     32  C   UNL     1       1.730  17.576  17.462  0.00  0.00    +0.000 A 
ATOM     33  C   UNL     1       0.492  17.993  16.958  0.00  0.00    +0.000 A 
ATOM     34  C   UNL     1      -0.669  17.805  17.698  0.00  0.00    +0.000 A 
ATOM     35  C   UNL     1      -0.592  17.205  18.956  0.00  0.00    +0.000 A 
ATOM     36  C   UNL     1       0.649  16.802  19.472  0.00  0.00    +0.000 A 
ENDBRANCH  30  31
ENDBRANCH  27  30
ENDBRANCH  23  24
ENDBRANCH   6  23
TORSDOF 6
ENDMDL
MODEL 4
REMARK VINA RESULT:      -8.7      1.632      2.809
REMARK  Name = 
REMARK  6 active torsions:
REMARK  status: ('A' for Active; 'I' for Inactive)
REMARK    1  A    between atoms: N_3  and  C_4
REMARK    2  A    between atoms: N_13  and  C_14
REMARK    3  A    between atoms: C_19  and  C_20
REMARK    4  A    between atoms: C_20  and  N_21
REMARK    5  A    between atoms: C_24  and  C_25
REMARK    6  A    between atoms: C_25  and  C_26
REMARK                            x       y       z     vdW  Elec       q    Type
REMARK                         _______ _______ _______ _____ _____    ______ ____
ROOT
ATOM      1  C   UNL     1       0.292   9.693  20.476  0.00  0.00    +0.000 A 
ATOM      2  C   UNL     1       0.140   8.648  21.394  0.00  0.00    +0.000 A 
ATOM      3  C   UNL     1      -0.375   8.866  22.688  0.00  0.00    +0.000 A 
ATOM      4  C   UNL     1      -0.699  10.144  23.123  0.00  0.00    +0.000 A 
ATOM      5  C   UNL     1      -0.592  11.196  22.230  0.00  0.00    +0.000 A 
ATOM      6  C   UNL     1      -0.163  10.985  20.894  0.00  0.00    +0.000 A 
ENDROOT
BRANCH   1  10
ATOM      7  O   UNL     1       2.246   9.117  17.461  0.00  0.00    +0.000 OA
ATOM      8  C   UNL     1       1.867   8.765  18.580  0.00  0.00    +0.000 C 
ATOM      9  N   UNL     1       2.307   7.622  19.191  0.00  0.00    +0.000 N 
ATOM     10  N   UNL     1       0.903   9.544  19.191  0.00  0.00    +0.000 N 
ATOM     11  H   UNL     1       1.581   7.200  19.742  0.00  0.00    +0.000 HD
ATOM     12  H   UNL     1       0.617  10.259  18.531  0.00  0.00    +0.000 HD
BRANCH   9  13
ATOM     13  C   UNL     1       3.240   6.671  18.645  0.00  0.00    +0.000 A 
ATOM     14  C   UNL     1       3.598   5.612  19.491  0.00  0.00    +0.000 A 
ATOM     15  C   UNL     1       4.546   4.639  19.143  0.00  0.00    +0.000 A 
ATOM     16  C   UNL     1       5.169   4.771  17.902  0.00  0.00    +0.000 A 
ATOM     17  N   UNL     1       6.140   4.014  17.311  0.00  0.00    +0.000 N 
ATOM     18  N   UNL     1       6.543   4.490  16.118  0.00  0.00    +0.000 NA
ATOM     19  C   UNL     1       5.771   5.569  15.946  0.00  0.00    +0.000 A 
ATOM     20  C   UNL     1       4.870   5.799  17.024  0.00  0.00    +0.000 A 
ATOM     21  C   UNL     1       3.862   6.754  17.377  0.00  0.00    +0.000 A 
ATOM     22  H   UNL     1       6.586   3.177  17.673  0.00  0.00    +0.000 HD
ENDBRANCH   9  13
ENDBRANCH   1  10
BRANCH   6  23
ATOM     23  C   UNL     1      -0.267  12.209  19.990  0.00  0.00    +0.000 C 
BRANCH  23  24
ATOM     24  N   UNL     1       1.045  12.779  19.597  0.00  0.00    +0.000 NA
ATOM     25  C   UNL     1       0.925  13.752  18.503  0.00  0.00    +0.000 C 
ATOM     26  C   UNL     1       2.302  14.264  18.077  0.00  0.00    +0.000 C 
ATOM     27  C   UNL     1       3.082  14.979  19.185  0.00  0.00    +0.000 C 
ATOM     28  C   UNL     1       2.947  14.226  20.529  0.00  0.00    +0.000 C 
ATOM     29  C   UNL     1       1.685  13.379  20.772  0.00  0.00    +0.000 C 
BRANCH  27  30
ATOM     30  C   UNL     1       2.775  16.493  19.330  0.00  0.00    +0.000 C 
BRANCH  30  31
ATOM     31  C   UNL     1       1.748  17.084  18.374  0.00  0.00    +0.000 A 
ATOM     32  C   UNL     1       0.389  17.144  18.741  0.00  0.00    +0.000 A 
ATOM     33  C   UNL     1      -0.557  17.742  17.901  0.00  0.00    +0.000 A 
ATOM     34  C   UNL     1      -0.170  18.306  16.691  0.00  0.00    +0.000 A 
ATOM     35  C   UNL     1       1.172  18.261  16.312  0.00  0.00    +0.000 A 
ATOM     36  C   UNL     1       2.122  17.646  17.143  0.00  0.00    +0.000 A 
ENDBRANCH  30  31
ENDBRANCH  27  30
ENDBRANCH  23  24
ENDBRANCH   6  23
TORSDOF 6
ENDMDL
MODEL 5
REMARK VINA RESULT:      -8.6      3.167      9.057
REMARK  Name = 
REMARK  6 active torsions:
REMARK  status: ('A' for Active; 'I' for Inactive)
REMARK    1  A    between atoms: N_3  and  C_4
REMARK    2  A    between atoms: N_13  and  C_14
REMARK    3  A    between atoms: C_19  and  C_20
REMARK    4  A    between atoms: C_20  and  N_21
REMARK    5  A    between atoms: C_24  and  C_25
REMARK    6  A    between atoms: C_25  and  C_26
REMARK                            x       y       z     vdW  Elec       q    Type
REMARK                         _______ _______ _______ _____ _____    ______ ____
ROOT
ATOM      1  C   UNL     1       1.693   5.570  20.151  0.00  0.00    +0.000 A 
ATOM      2  C   UNL     1       1.119   4.345  20.513  0.00  0.00    +0.000 A 
ATOM      3  C   UNL     1       0.989   3.286  19.593  0.00  0.00    +0.000 A 
ATOM      4  C   UNL     1       1.374   3.438  18.268  0.00  0.00    +0.000 A 
ATOM      5  C   UNL     1       1.975   4.624  17.883  0.00  0.00    +0.000 A 
ATOM      6  C   UNL     1       2.200   5.670  18.816  0.00  0.00    +0.000 A 
ENDROOT
BRANCH   1  10
ATOM      7  O   UNL     1       1.902   8.743  21.919  0.00  0.00    +0.000 OA
ATOM      8  C   UNL     1       1.507   8.067  20.967  0.00  0.00    +0.000 C 
ATOM      9  N   UNL     1       0.791   8.592  19.925  0.00  0.00    +0.000 N 
ATOM     10  N   UNL     1       1.756   6.708  21.015  0.00  0.00    +0.000 N 
ATOM     11  H   UNL     1       0.114   7.935  19.580  0.00  0.00    +0.000 HD
ATOM     12  H   UNL     1       2.174   6.500  21.914  0.00  0.00    +0.000 HD
BRANCH   9  13
ATOM     13  C   UNL     1       0.384   9.966  19.781  0.00  0.00    +0.000 A 
ATOM     14  C   UNL     1      -0.901  10.274  20.248  0.00  0.00    +0.000 A 
ATOM     15  C   UNL     1      -1.479  11.545  20.120  0.00  0.00    +0.000 A 
ATOM     16  C   UNL     1      -0.730  12.524  19.468  0.00  0.00    +0.000 A 
ATOM     17  N   UNL     1      -1.034  13.821  19.166  0.00  0.00    +0.000 N 
ATOM     18  N   UNL     1      -0.072  14.451  18.465  0.00  0.00    +0.000 NA
ATOM     19  C   UNL     1       0.880  13.518  18.351  0.00  0.00    +0.000 A 
ATOM     20  C   UNL     1       0.540  12.282  18.973  0.00  0.00    +0.000 A 
ATOM     21  C   UNL     1       1.133  10.991  19.158  0.00  0.00    +0.000 A 
ATOM     22  H   UNL     1      -1.882  14.331  19.388  0.00  0.00    +0.000 HD
ENDBRANCH   9  13
ENDBRANCH   1  10
BRANCH   6  23
ATOM     23  C   UNL     1       3.027   6.834  18.281  0.00  0.00    +0.000 C 
BRANCH  23  24
ATOM     24  N   UNL     1       4.476   6.731  18.582  0.00  0.00    +0.000 NA
ATOM     25  C   UNL     1       4.860   5.381  19.019  0.00  0.00    +0.000 C 
ATOM     26  C   UNL     1       6.343   5.330  19.389  0.00  0.00    +0.000 C 
ATOM     27  C   UNL     1       7.294   5.681  18.240  0.00  0.00    +0.000 C 
ATOM     28  C   UNL     1       6.765   6.891  17.435  0.00  0.00    +0.000 C 
ATOM     29  C   UNL     1       5.247   7.146  17.406  0.00  0.00    +0.000 C 
BRANCH  27  30
ATOM     30  C   UNL     1       7.678   4.491  17.321  0.00  0.00    +0.000 C 
BRANCH  30  31
ATOM     31  C   UNL     1       6.971   4.402  15.976  0.00  0.00    +0.000 A 
ATOM     32  C   UNL     1       7.577   4.929  14.819  0.00  0.00    +0.000 A 
ATOM     33  C   UNL     1       6.968   4.798  13.565  0.00  0.00    +0.000 A 
ATOM     34  C   UNL     1       5.758   4.127  13.435  0.00  0.00    +0.000 A 
ATOM     35  C   UNL     1       5.144   3.594  14.569  0.00  0.00    +0.000 A 
ATOM     36  C   UNL     1       5.741   3.739  15.831  0.00  0.00    +0.000 A 
ENDBRANCH  30  31
ENDBRANCH  27  30
ENDBRANCH  23  24
ENDBRANCH   6  23
TORSDOF 6
ENDMDL
MODEL 6
REMARK VINA RESULT:      -8.6      3.468      9.140
REMARK  Name = 
REMARK  6 active torsions:
REMARK  status: ('A' for Active; 'I' for Inactive)
REMARK    1  A    between atoms: N_3  and  C_4
REMARK    2  A    between atoms: N_13  and  C_14
REMARK    3  A    between atoms: C_19  and  C_20
REMARK    4  A    between atoms: C_20  and  N_21
REMARK    5  A    between atoms: C_24  and  C_25
REMARK    6  A    between atoms: C_25  and  C_26
REMARK                            x       y       z     vdW  Elec       q    Type
REMARK                         _______ _______ _______ _____ _____    ______ ____
ROOT
ATOM      1  C   UNL     1       1.677   5.437  20.131  0.00  0.00    +0.000 A 
ATOM      2  C   UNL     1       1.130   4.228  20.574  0.00  0.00    +0.000 A 
ATOM      3  C   UNL     1       0.932   3.139  19.701  0.00  0.00    +0.000 A 
ATOM      4  C   UNL     1       1.221   3.245  18.347  0.00  0.00    +0.000 A 
ATOM      5  C   UNL     1       1.794   4.416  17.881  0.00  0.00    +0.000 A 
ATOM      6  C   UNL     1       2.086   5.492  18.760  0.00  0.00    +0.000 A 
ENDROOT
BRANCH   1  10
ATOM      7  O   UNL     1       2.026   8.666  21.773  0.00  0.00    +0.000 OA
ATOM      8  C   UNL     1       1.569   7.963  20.869  0.00  0.00    +0.000 C 
ATOM      9  N   UNL     1       0.800   8.463  19.852  0.00  0.00    +0.000 N 
ATOM     10  N   UNL     1       1.804   6.603  20.949  0.00  0.00    +0.000 N 
ATOM     11  H   UNL     1       0.097   7.804  19.569  0.00  0.00    +0.000 HD
ATOM     12  H   UNL     1       2.271   6.420  21.830  0.00  0.00    +0.000 HD
BRANCH   9  13
ATOM     13  C   UNL     1       0.402   9.836  19.684  0.00  0.00    +0.000 A 
ATOM     14  C   UNL     1       1.238  10.619  18.876  0.00  0.00    +0.000 A 
ATOM     15  C   UNL     1       1.036  11.990  18.665  0.00  0.00    +0.000 A 
ATOM     16  C   UNL     1      -0.040  12.585  19.324  0.00  0.00    +0.000 A 
ATOM     17  N   UNL     1      -0.462  13.884  19.343  0.00  0.00    +0.000 N 
ATOM     18  N   UNL     1      -1.516  14.097  20.153  0.00  0.00    +0.000 NA
ATOM     19  C   UNL     1      -1.779  12.877  20.635  0.00  0.00    +0.000 A 
ATOM     20  C   UNL     1      -0.897  11.872  20.145  0.00  0.00    +0.000 A 
ATOM     21  C   UNL     1      -0.703  10.461  20.307  0.00  0.00    +0.000 A 
ATOM     22  H   UNL     1      -0.067  14.676  18.846  0.00  0.00    +0.000 HD
ENDBRANCH   9  13
ENDBRANCH   1  10
BRANCH   6  23
ATOM     23  C   UNL     1       2.873   6.635  18.128  0.00  0.00    +0.000 C 
BRANCH  23  24
ATOM     24  N   UNL     1       4.315   6.637  18.478  0.00  0.00    +0.000 NA
ATOM     25  C   UNL     1       4.770   5.330  18.974  0.00  0.00    +0.000 C 
ATOM     26  C   UNL     1       6.241   5.390  19.392  0.00  0.00    +0.000 C 
ATOM     27  C   UNL     1       7.205   5.763  18.261  0.00  0.00    +0.000 C 
ATOM     28  C   UNL     1       6.626   6.909  17.397  0.00  0.00    +0.000 C 
ATOM     29  C   UNL     1       5.097   7.062  17.312  0.00  0.00    +0.000 C 
BRANCH  27  30
ATOM     30  C   UNL     1       7.696   4.571  17.398  0.00  0.00    +0.000 C 
BRANCH  30  31
ATOM     31  C   UNL     1       7.028   4.380  16.042  0.00  0.00    +0.000 A 
ATOM     32  C   UNL     1       5.781   3.731  15.951  0.00  0.00    +0.000 A 
ATOM     33  C   UNL     1       5.125   3.605  14.721  0.00  0.00    +0.000 A 
ATOM     34  C   UNL     1       5.686   4.132  13.564  0.00  0.00    +0.000 A 
ATOM     35  C   UNL     1       6.919   4.782  13.635  0.00  0.00    +0.000 A 
ATOM     36  C   UNL     1       7.589   4.896  14.863  0.00  0.00    +0.000 A 
ENDBRANCH  30  31
ENDBRANCH  27  30
ENDBRANCH  23  24
ENDBRANCH   6  23
TORSDOF 6
ENDMDL
MODEL 7
REMARK VINA RESULT:      -8.6      4.521     10.311
REMARK  Name = 
REMARK  6 active torsions:
REMARK  status: ('A' for Active; 'I' for Inactive)
REMARK    1  A    between atoms: N_3  and  C_4
REMARK    2  A    between atoms: N_13  and  C_14
REMARK    3  A    between atoms: C_19  and  C_20
REMARK    4  A    between atoms: C_20  and  N_21
REMARK    5  A    between atoms: C_24  and  C_25
REMARK    6  A    between atoms: C_25  and  C_26
REMARK                            x       y       z     vdW  Elec       q    Type
REMARK                         _______ _______ _______ _____ _____    ______ ____
ROOT
ATOM      1  C   UNL     1       0.837   9.136  20.369  0.00  0.00    +0.000 A 
ATOM      2  C   UNL     1       0.464  10.085  19.410  0.00  0.00    +0.000 A 
ATOM      3  C   UNL     1       0.960  10.041  18.091  0.00  0.00    +0.000 A 
ATOM      4  C   UNL     1       1.887   9.083  17.707  0.00  0.00    +0.000 A 
ATOM      5  C   UNL     1       2.253   8.109  18.620  0.00  0.00    +0.000 A 
ATOM      6  C   UNL     1       1.696   8.080  19.926  0.00  0.00    +0.000 A 
ENDROOT
BRANCH   1  10
ATOM      7  O   UNL     1      -0.107   9.793  23.821  0.00  0.00    +0.000 OA
ATOM      8  C   UNL     1      -0.135  10.087  22.625  0.00  0.00    +0.000 C 
ATOM      9  N   UNL     1      -0.765  11.205  22.146  0.00  0.00    +0.000 N 
ATOM     10  N   UNL     1       0.446   9.195  21.743  0.00  0.00    +0.000 N 
ATOM     11  H   UNL     1      -1.174  11.035  21.245  0.00  0.00    +0.000 HD
ATOM     12  H   UNL     1       0.736   8.380  22.273  0.00  0.00    +0.000 HD
BRANCH   9  13
ATOM     13  C   UNL     1      -1.483  12.177  22.929  0.00  0.00    +0.000 A 
ATOM     14  C   UNL     1      -2.776  11.809  23.322  0.00  0.00    +0.000 A 
ATOM     15  C   UNL     1      -3.636  12.664  24.026  0.00  0.00    +0.000 A 
ATOM     16  C   UNL     1      -3.167  13.946  24.313  0.00  0.00    +0.000 A 
ATOM     17  N   UNL     1      -3.775  14.995  24.943  0.00  0.00    +0.000 N 
ATOM     18  N   UNL     1      -3.022  16.111  24.980  0.00  0.00    +0.000 NA
ATOM     19  C   UNL     1      -1.890  15.733  24.377  0.00  0.00    +0.000 A 
ATOM     20  C   UNL     1      -1.904  14.377  23.943  0.00  0.00    +0.000 A 
ATOM     21  C   UNL     1      -1.022  13.471  23.268  0.00  0.00    +0.000 A 
ATOM     22  H   UNL     1      -4.704  15.025  25.348  0.00  0.00    +0.000 HD
ENDBRANCH   9  13
ENDBRANCH   1  10
BRANCH   6  23
ATOM     23  C   UNL     1       2.065   6.851  20.749  0.00  0.00    +0.000 C 
BRANCH  23  24
ATOM     24  N   UNL     1       1.642   5.568  20.135  0.00  0.00    +0.000 NA
ATOM     25  C   UNL     1       2.038   5.469  18.723  0.00  0.00    +0.000 C 
ATOM     26  C   UNL     1       1.524   4.167  18.104  0.00  0.00    +0.000 C 
ATOM     27  C   UNL     1       2.053   2.896  18.774  0.00  0.00    +0.000 C 
ATOM     28  C   UNL     1       2.054   3.042  20.314  0.00  0.00    +0.000 C 
ATOM     29  C   UNL     1       2.184   4.453  20.917  0.00  0.00    +0.000 C 
BRANCH  27  30
ATOM     30  C   UNL     1       3.417   2.390  18.236  0.00  0.00    +0.000 C 
BRANCH  30  31
ATOM     31  C   UNL     1       4.452   3.447  17.875  0.00  0.00    +0.000 A 
ATOM     32  C   UNL     1       4.588   3.881  16.542  0.00  0.00    +0.000 A 
ATOM     33  C   UNL     1       5.490   4.897  16.205  0.00  0.00    +0.000 A 
ATOM     34  C   UNL     1       6.260   5.511  17.185  0.00  0.00    +0.000 A 
ATOM     35  C   UNL     1       6.136   5.098  18.513  0.00  0.00    +0.000 A 
ATOM     36  C   UNL     1       5.247   4.067  18.853  0.00  0.00    +0.000 A 
ENDBRANCH  30  31
ENDBRANCH  27  30
ENDBRANCH  23  24
ENDBRANCH   6  23
TORSDOF 6
ENDMDL
MODEL 8
REMARK VINA RESULT:      -8.4      4.351      9.613
REMARK  Name = 
REMARK  6 active torsions:
REMARK  status: ('A' for Active; 'I' for Inactive)
REMARK    1  A    between atoms: N_3  and  C_4
REMARK    2  A    between atoms: N_13  and  C_14
REMARK    3  A    between atoms: C_19  and  C_20
REMARK    4  A    between atoms: C_20  and  N_21
REMARK    5  A    between atoms: C_24  and  C_25
REMARK    6  A    between atoms: C_25  and  C_26
REMARK                            x       y       z     vdW  Elec       q    Type
REMARK                         _______ _______ _______ _____ _____    ______ ____
ROOT
ATOM      1  C   UNL     1       2.249   4.936  20.061  0.00  0.00    +0.000 A 
ATOM      2  C   UNL     1       0.981   4.434  20.378  0.00  0.00    +0.000 A 
ATOM      3  C   UNL     1       0.754   3.055  20.561  0.00  0.00    +0.000 A 
ATOM      4  C   UNL     1       1.773   2.131  20.377  0.00  0.00    +0.000 A 
ATOM      5  C   UNL     1       3.046   2.595  20.096  0.00  0.00    +0.000 A 
ATOM      6  C   UNL     1       3.317   3.985  19.997  0.00  0.00    +0.000 A 
ENDROOT
BRANCH   1  10
ATOM      7  O   UNL     1       2.411   8.502  19.356  0.00  0.00    +0.000 OA
ATOM      8  C   UNL     1       1.943   7.551  19.986  0.00  0.00    +0.000 C 
ATOM      9  N   UNL     1       0.954   7.691  20.921  0.00  0.00    +0.000 N 
ATOM     10  N   UNL     1       2.511   6.310  19.765  0.00  0.00    +0.000 N 
ATOM     11  H   UNL     1       1.071   7.039  21.676  0.00  0.00    +0.000 HD
ATOM     12  H   UNL     1       3.304   6.437  19.146  0.00  0.00    +0.000 HD
BRANCH   9  13
ATOM     13  C   UNL     1       0.328   8.925  21.319  0.00  0.00    +0.000 A 
ATOM     14  C   UNL     1       0.151   9.103  22.697  0.00  0.00    +0.000 A 
ATOM     15  C   UNL     1      -0.504  10.213  23.250  0.00  0.00    +0.000 A 
ATOM     16  C   UNL     1      -1.019  11.156  22.362  0.00  0.00    +0.000 A 
ATOM     17  N   UNL     1      -1.724  12.303  22.594  0.00  0.00    +0.000 N 
ATOM     18  N   UNL     1      -2.113  12.935  21.470  0.00  0.00    +0.000 NA
ATOM     19  C   UNL     1      -1.604  12.166  20.500  0.00  0.00    +0.000 A 
ATOM     20  C   UNL     1      -0.889  11.035  20.989  0.00  0.00    +0.000 A 
ATOM     21  C   UNL     1      -0.172   9.919  20.446  0.00  0.00    +0.000 A 
ATOM     22  H   UNL     1      -1.992  12.700  23.488  0.00  0.00    +0.000 HD
ENDBRANCH   9  13
ENDBRANCH   1  10
BRANCH   6  23
ATOM     23  C   UNL     1       4.794   4.339  19.859  0.00  0.00    +0.000 C 
BRANCH  23  24
ATOM     24  N   UNL     1       5.085   5.280  18.750  0.00  0.00    +0.000 NA
ATOM     25  C   UNL     1       6.514   5.610  18.659  0.00  0.00    +0.000 C 
ATOM     26  C   UNL     1       6.766   6.635  17.552  0.00  0.00    +0.000 C 
ATOM     27  C   UNL     1       6.359   6.167  16.152  0.00  0.00    +0.000 C 
ATOM     28  C   UNL     1       5.001   5.427  16.190  0.00  0.00    +0.000 C 
ATOM     29  C   UNL     1       4.591   4.713  17.491  0.00  0.00    +0.000 C 
BRANCH  27  30
ATOM     30  C   UNL     1       7.442   5.360  15.388  0.00  0.00    +0.000 C 
BRANCH  30  31
ATOM     31  C   UNL     1       7.044   4.772  14.042  0.00  0.00    +0.000 A 
ATOM     32  C   UNL     1       7.726   5.155  12.870  0.00  0.00    +0.000 A 
ATOM     33  C   UNL     1       7.414   4.576  11.634  0.00  0.00    +0.000 A 
ATOM     34  C   UNL     1       6.434   3.595  11.542  0.00  0.00    +0.000 A 
ATOM     35  C   UNL     1       5.750   3.199  12.693  0.00  0.00    +0.000 A 
ATOM     36  C   UNL     1       6.046   3.790  13.930  0.00  0.00    +0.000 A 
ENDBRANCH  30  31
ENDBRANCH  27  30
ENDBRANCH  23  24
ENDBRANCH   6  23
TORSDOF 6
ENDMDL
MODEL 9
REMARK VINA RESULT:      -8.4      1.404      2.073
REMARK  Name = 
REMARK  6 active torsions:
REMARK  status: ('A' for Active; 'I' for Inactive)
REMARK    1  A    between atoms: N_3  and  C_4
REMARK    2  A    between atoms: N_13  and  C_14
REMARK    3  A    between atoms: C_19  and  C_20
REMARK    4  A    between atoms: C_20  and  N_21
REMARK    5  A    between atoms: C_24  and  C_25
REMARK    6  A    between atoms: C_25  and  C_26
REMARK                            x       y       z     vdW  Elec       q    Type
REMARK                         _______ _______ _______ _____ _____    ______ ____
ROOT
ATOM      1  C   UNL     1       0.403   9.675  20.796  0.00  0.00    +0.000 A 
ATOM      2  C   UNL     1       0.159   8.911  21.942  0.00  0.00    +0.000 A 
ATOM      3  C   UNL     1      -0.508   9.446  23.062  0.00  0.00    +0.000 A 
ATOM      4  C   UNL     1      -0.898  10.778  23.094  0.00  0.00    +0.000 A 
ATOM      5  C   UNL     1      -0.700  11.554  21.965  0.00  0.00    +0.000 A 
ATOM      6  C   UNL     1      -0.114  11.010  20.793  0.00  0.00    +0.000 A 
ENDROOT
BRANCH   1  10
ATOM      7  O   UNL     1       2.594   8.213  18.285  0.00  0.00    +0.000 OA
ATOM      8  C   UNL     1       1.917   8.113  19.310  0.00  0.00    +0.000 C 
ATOM      9  N   UNL     1       1.834   6.958  20.040  0.00  0.00    +0.000 N 
ATOM     10  N   UNL     1       1.163   9.213  19.675  0.00  0.00    +0.000 N 
ATOM     11  H   UNL     1       0.920   6.843  20.439  0.00  0.00    +0.000 HD
ATOM     12  H   UNL     1       1.257   9.910  18.945  0.00  0.00    +0.000 HD
BRANCH   9  13
ATOM     13  C   UNL     1       2.490   5.713  19.737  0.00  0.00    +0.000 A 
ATOM     14  C   UNL     1       3.882   5.777  19.586  0.00  0.00    +0.000 A 
ATOM     15  C   UNL     1       4.666   4.673  19.221  0.00  0.00    +0.000 A 
ATOM     16  C   UNL     1       4.000   3.472  18.975  0.00  0.00    +0.000 A 
ATOM     17  N   UNL     1       4.479   2.256  18.577  0.00  0.00    +0.000 N 
ATOM     18  N   UNL     1       3.516   1.335  18.380  0.00  0.00    +0.000 NA
ATOM     19  C   UNL     1       2.397   1.996  18.696  0.00  0.00    +0.000 A 
ATOM     20  C   UNL     1       2.627   3.343  19.095  0.00  0.00    +0.000 A 
ATOM     21  C   UNL     1       1.850   4.471  19.518  0.00  0.00    +0.000 A 
ATOM     22  H   UNL     1       5.443   1.992  18.402  0.00  0.00    +0.000 HD
ENDBRANCH   9  13
ENDBRANCH   1  10
BRANCH   6  23
ATOM     23  C   UNL     1      -0.127  11.939  19.584  0.00  0.00    +0.000 C 
BRANCH  23  24
ATOM     24  N   UNL     1       0.524  13.250  19.826  0.00  0.00    +0.000 NA
ATOM     25  C   UNL     1       1.991  13.156  19.806  0.00  0.00    +0.000 C 
ATOM     26  C   UNL     1       2.627  14.509  20.130  0.00  0.00    +0.000 C 
ATOM     27  C   UNL     1       2.269  15.628  19.147  0.00  0.00    +0.000 C 
ATOM     28  C   UNL     1       0.768  15.577  18.775  0.00  0.00    +0.000 C 
ATOM     29  C   UNL     1       0.042  14.222  18.839  0.00  0.00    +0.000 C 
BRANCH  27  30
ATOM     30  C   UNL     1       3.179  15.716  17.894  0.00  0.00    +0.000 C 
BRANCH  30  31
ATOM     31  C   UNL     1       4.682  15.769  18.134  0.00  0.00    +0.000 A 
ATOM     32  C   UNL     1       5.258  16.883  18.775  0.00  0.00    +0.000 A 
ATOM     33  C   UNL     1       6.628  16.919  19.061  0.00  0.00    +0.000 A 
ATOM     34  C   UNL     1       7.446  15.846  18.730  0.00  0.00    +0.000 A 
ATOM     35  C   UNL     1       6.893  14.731  18.097  0.00  0.00    +0.000 A 
ATOM     36  C   UNL     1       5.523  14.698  17.793  0.00  0.00    +0.000 A 
ENDBRANCH  30  31
ENDBRANCH  27  30
ENDBRANCH  23  24
ENDBRANCH   6  23
TORSDOF 6
ENDMDL
