MODEL 1
REMARK VINA RESULT:      -8.4      0.000      0.000
REMARK  Name = 
REMARK  5 active torsions:
REMARK  status: ('A' for Active; 'I' for Inactive)
REMARK    1  A    between atoms: C_1  and  O_2
REMARK    2  A    between atoms: O_2  and  C_3
REMARK    3  A    between atoms: C_6  and  S_7
REMARK    4  A    between atoms: S_7  and  O_10
REMARK    5  A    between atoms: O_10  and  C_11
REMARK                            x       y       z     vdW  Elec       q    Type
REMARK                         _______ _______ _______ _____ _____    ______ ____
ROOT
ATOM      1  C   UNL     1       3.807   5.252  18.946  0.00  0.00    +0.000 A 
ATOM      2  C   UNL     1       4.818   5.059  17.977  0.00  0.00    +0.000 A 
ATOM      3  C   UNL     1       5.946   5.887  17.877  0.00  0.00    +0.000 A 
ATOM      4  C   UNL     1       6.690   5.937  16.699  0.00  0.00    +0.000 A 
ATOM      5  C   UNL     1       6.416   5.038  15.679  0.00  0.00    +0.000 A 
ATOM      6  C   UNL     1       5.475   4.024  15.885  0.00  0.00    +0.000 A 
ATOM      7  C   UNL     1       4.653   4.030  17.032  0.00  0.00    +0.000 A 
ATOM      8  C   UNL     1       3.632   3.079  17.235  0.00  0.00    +0.000 A 
ATOM      9  C   UNL     1       2.733   3.179  18.314  0.00  0.00    +0.000 A 
ATOM     10  C   UNL     1       1.659   2.281  18.474  0.00  0.00    +0.000 A 
ATOM     11  C   UNL     1       0.719   2.458  19.491  0.00  0.00    +0.000 A 
ATOM     12  C   UNL     1       0.879   3.475  20.418  0.00  0.00    +0.000 A 
ATOM     13  C   UNL     1       1.966   4.335  20.312  0.00  0.00    +0.000 A 
ATOM     14  C   UNL     1       2.847   4.258  19.215  0.00  0.00    +0.000 A 
ENDROOT
BRANCH   1  15
ATOM     15  O   UNL     1       3.604   6.569  19.389  0.00  0.00    +0.000 OA
BRANCH  15  16
ATOM     16  S   UNL     1       2.601   7.521  18.469  0.00  0.00    +0.000 S 
ATOM     17  O   UNL     1       1.607   6.671  17.828  0.00  0.00    +0.000 OA
ATOM     18  O   UNL     1       3.387   8.463  17.697  0.00  0.00    +0.000 OA
BRANCH  16  22
ATOM     19  C   UNL     1       0.431  10.228  21.414  0.00  0.00    +0.000 A 
ATOM     20  C   UNL     1       0.573  10.617  20.089  0.00  0.00    +0.000 A 
ATOM     21  C   UNL     1       1.168   9.755  19.157  0.00  0.00    +0.000 A 
ATOM     22  C   UNL     1       1.617   8.509  19.586  0.00  0.00    +0.000 A 
ATOM     23  C   UNL     1       1.476   8.108  20.919  0.00  0.00    +0.000 A 
ATOM     24  C   UNL     1       0.879   8.973  21.843  0.00  0.00    +0.000 A 
BRANCH  19  26
ATOM     25  C   UNL     1      -1.119  10.752  23.133  0.00  0.00    +0.000 C 
ATOM     26  O   UNL     1      -0.098  11.189  22.245  0.00  0.00    +0.000 OA
ENDBRANCH  19  26
ENDBRANCH  16  22
ENDBRANCH  15  16
ENDBRANCH   1  15
TORSDOF 4
ENDMDL
MODEL 2
REMARK VINA RESULT:      -8.3      0.902      3.650
REMARK  Name = 
REMARK  5 active torsions:
REMARK  status: ('A' for Active; 'I' for Inactive)
REMARK    1  A    between atoms: C_1  and  O_2
REMARK    2  A    between atoms: O_2  and  C_3
REMARK    3  A    between atoms: C_6  and  S_7
REMARK    4  A    between atoms: S_7  and  O_10
REMARK    5  A    between atoms: O_10  and  C_11
REMARK                            x       y       z     vdW  Elec       q    Type
REMARK                         _______ _______ _______ _____ _____    ______ ____
ROOT
ATOM      1  C   UNL     1       3.196   5.667  18.294  0.00  0.00    +0.000 A 
ATOM      2  C   UNL     1       2.504   4.601  18.910  0.00  0.00    +0.000 A 
ATOM      3  C   UNL     1       1.421   4.794  19.781  0.00  0.00    +0.000 A 
ATOM      4  C   UNL     1       1.035   3.795  20.672  0.00  0.00    +0.000 A 
ATOM      5  C   UNL     1       1.615   2.538  20.581  0.00  0.00    +0.000 A 
ATOM      6  C   UNL     1       2.495   2.257  19.532  0.00  0.00    +0.000 A 
ATOM      7  C   UNL     1       2.962   3.288  18.690  0.00  0.00    +0.000 A 
ATOM      8  C   UNL     1       3.917   3.064  17.678  0.00  0.00    +0.000 A 
ATOM      9  C   UNL     1       4.474   4.125  16.939  0.00  0.00    +0.000 A 
ATOM     10  C   UNL     1       5.491   3.916  15.985  0.00  0.00    +0.000 A 
ATOM     11  C   UNL     1       6.102   4.992  15.338  0.00  0.00    +0.000 A 
ATOM     12  C   UNL     1       5.654   6.284  15.560  0.00  0.00    +0.000 A 
ATOM     13  C   UNL     1       4.611   6.505  16.452  0.00  0.00    +0.000 A 
ATOM     14  C   UNL     1       4.075   5.449  17.217  0.00  0.00    +0.000 A 
ENDROOT
BRANCH   1  15
ATOM     15  O   UNL     1       3.221   6.887  18.991  0.00  0.00    +0.000 OA
BRANCH  15  16
ATOM     16  S   UNL     1       2.239   8.096  18.415  0.00  0.00    +0.000 S 
ATOM     17  O   UNL     1       1.187   7.499  17.604  0.00  0.00    +0.000 OA
ATOM     18  O   UNL     1       3.047   9.186  17.904  0.00  0.00    +0.000 OA
BRANCH  16  22
ATOM     19  C   UNL     1       0.261  10.033  22.028  0.00  0.00    +0.000 A 
ATOM     20  C   UNL     1       0.127  10.608  20.772  0.00  0.00    +0.000 A 
ATOM     21  C   UNL     1       0.664   9.976  19.641  0.00  0.00    +0.000 A 
ATOM     22  C   UNL     1       1.337   8.768  19.803  0.00  0.00    +0.000 A 
ATOM     23  C   UNL     1       1.475   8.180  21.065  0.00  0.00    +0.000 A 
ATOM     24  C   UNL     1       0.935   8.816  22.188  0.00  0.00    +0.000 A 
BRANCH  19  26
ATOM     25  C   UNL     1      -1.267  11.709  22.725  0.00  0.00    +0.000 C 
ATOM     26  O   UNL     1      -0.241  10.785  23.065  0.00  0.00    +0.000 OA
ENDBRANCH  19  26
ENDBRANCH  16  22
ENDBRANCH  15  16
ENDBRANCH   1  15
TORSDOF 4
ENDMDL
MODEL 3
REMARK VINA RESULT:      -8.3      0.460      1.056
REMARK  Name = 
REMARK  5 active torsions:
REMARK  status: ('A' for Active; 'I' for Inactive)
REMARK    1  A    between atoms: C_1  and  O_2
REMARK    2  A    between atoms: O_2  and  C_3
REMARK    3  A    between atoms: C_6  and  S_7
REMARK    4  A    between atoms: S_7  and  O_10
REMARK    5  A    between atoms: O_10  and  C_11
REMARK                            x       y       z     vdW  Elec       q    Type
REMARK                         _______ _______ _______ _____ _____    ______ ____
ROOT
ATOM      1  C   UNL     1       3.995   5.320  18.919  0.00  0.00    +0.000 A 
ATOM      2  C   UNL     1       4.960   5.061  17.919  0.00  0.00    +0.000 A 
ATOM      3  C   UNL     1       6.036   5.921  17.655  0.00  0.00    +0.000 A 
ATOM      4  C   UNL     1       6.710   5.865  16.436  0.00  0.00    +0.000 A 
ATOM      5  C   UNL     1       6.427   4.839  15.546  0.00  0.00    +0.000 A 
ATOM      6  C   UNL     1       5.553   3.816  15.925  0.00  0.00    +0.000 A 
ATOM      7  C   UNL     1       4.797   3.919  17.112  0.00  0.00    +0.000 A 
ATOM      8  C   UNL     1       3.841   2.954  17.485  0.00  0.00    +0.000 A 
ATOM      9  C   UNL     1       2.999   3.140  18.598  0.00  0.00    +0.000 A 
ATOM     10  C   UNL     1       1.984   2.219  18.927  0.00  0.00    +0.000 A 
ATOM     11  C   UNL     1       1.094   2.473  19.972  0.00  0.00    +0.000 A 
ATOM     12  C   UNL     1       1.251   3.599  20.763  0.00  0.00    +0.000 A 
ATOM     13  C   UNL     1       2.284   4.489  20.492  0.00  0.00    +0.000 A 
ATOM     14  C   UNL     1       3.106   4.322  19.360  0.00  0.00    +0.000 A 
ENDROOT
BRANCH   1  15
ATOM     15  O   UNL     1       3.749   6.670  19.219  0.00  0.00    +0.000 OA
BRANCH  15  16
ATOM     16  S   UNL     1       2.642   7.457  18.262  0.00  0.00    +0.000 S 
ATOM     17  O   UNL     1       1.639   6.499  17.820  0.00  0.00    +0.000 OA
ATOM     18  O   UNL     1       3.331   8.308  17.311  0.00  0.00    +0.000 OA
BRANCH  16  22
ATOM     19  C   UNL     1      -0.065  10.046  20.846  0.00  0.00    +0.000 A 
ATOM     20  C   UNL     1       0.561   8.935  21.393  0.00  0.00    +0.000 A 
ATOM     21  C   UNL     1       1.459   8.178  20.628  0.00  0.00    +0.000 A 
ATOM     22  C   UNL     1       1.706   8.558  19.311  0.00  0.00    +0.000 A 
ATOM     23  C   UNL     1       1.081   9.679  18.752  0.00  0.00    +0.000 A 
ATOM     24  C   UNL     1       0.187  10.429  19.523  0.00  0.00    +0.000 A 
BRANCH  19  26
ATOM     25  C   UNL     1      -0.816  10.427  23.064  0.00  0.00    +0.000 C 
ATOM     26  O   UNL     1      -0.980  10.659  21.671  0.00  0.00    +0.000 OA
ENDBRANCH  19  26
ENDBRANCH  16  22
ENDBRANCH  15  16
ENDBRANCH   1  15
TORSDOF 4
ENDMDL
MODEL 4
REMARK VINA RESULT:      -8.1      2.828      6.109
REMARK  Name = 
REMARK  5 active torsions:
REMARK  status: ('A' for Active; 'I' for Inactive)
REMARK    1  A    between atoms: C_1  and  O_2
REMARK    2  A    between atoms: O_2  and  C_3
REMARK    3  A    between atoms: C_6  and  S_7
REMARK    4  A    between atoms: S_7  and  O_10
REMARK    5  A    between atoms: O_10  and  C_11
REMARK                            x       y       z     vdW  Elec       q    Type
REMARK                         _______ _______ _______ _____ _____    ______ ____
ROOT
ATOM      1  C   UNL     1       3.172   5.408  18.434  0.00  0.00    +0.000 A 
ATOM      2  C   UNL     1       3.185   4.507  19.522  0.00  0.00    +0.000 A 
ATOM      3  C   UNL     1       3.853   3.274  19.486  0.00  0.00    +0.000 A 
ATOM      4  C   UNL     1       3.519   2.255  20.375  0.00  0.00    +0.000 A 
ATOM      5  C   UNL     1       2.637   2.518  21.414  0.00  0.00    +0.000 A 
ATOM      6  C   UNL     1       2.182   3.823  21.622  0.00  0.00    +0.000 A 
ATOM      7  C   UNL     1       2.439   4.833  20.670  0.00  0.00    +0.000 A 
ATOM      8  C   UNL     1       1.924   6.139  20.797  0.00  0.00    +0.000 A 
ATOM      9  C   UNL     1       2.074   7.095  19.774  0.00  0.00    +0.000 A 
ATOM     10  C   UNL     1       1.489   8.374  19.858  0.00  0.00    +0.000 A 
ATOM     11  C   UNL     1       1.562   9.270  18.789  0.00  0.00    +0.000 A 
ATOM     12  C   UNL     1       2.291   8.946  17.657  0.00  0.00    +0.000 A 
ATOM     13  C   UNL     1       2.926   7.711  17.580  0.00  0.00    +0.000 A 
ATOM     14  C   UNL     1       2.750   6.742  18.587  0.00  0.00    +0.000 A 
ENDROOT
BRANCH   1  15
ATOM     15  O   UNL     1       3.288   4.846  17.151  0.00  0.00    +0.000 OA
BRANCH  15  16
ATOM     16  S   UNL     1       4.828   4.554  16.601  0.00  0.00    +0.000 S 
ATOM     17  O   UNL     1       4.916   4.969  15.208  0.00  0.00    +0.000 OA
ATOM     18  O   UNL     1       5.255   3.231  17.014  0.00  0.00    +0.000 OA
BRANCH  16  22
ATOM     19  C   UNL     1       7.900   7.361  18.445  0.00  0.00    +0.000 A 
ATOM     20  C   UNL     1       7.083   7.807  17.415  0.00  0.00    +0.000 A 
ATOM     21  C   UNL     1       6.079   6.976  16.896  0.00  0.00    +0.000 A 
ATOM     22  C   UNL     1       5.923   5.698  17.427  0.00  0.00    +0.000 A 
ATOM     23  C   UNL     1       6.741   5.242  18.467  0.00  0.00    +0.000 A 
ATOM     24  C   UNL     1       7.738   6.078  18.981  0.00  0.00    +0.000 A 
BRANCH  19  26
ATOM     25  C   UNL     1       8.689   9.599  18.455  0.00  0.00    +0.000 C 
ATOM     26  O   UNL     1       8.893   8.239  18.815  0.00  0.00    +0.000 OA
ENDBRANCH  19  26
ENDBRANCH  16  22
ENDBRANCH  15  16
ENDBRANCH   1  15
TORSDOF 4
ENDMDL
MODEL 5
REMARK VINA RESULT:      -7.4      4.085      7.815
REMARK  Name = 
REMARK  5 active torsions:
REMARK  status: ('A' for Active; 'I' for Inactive)
REMARK    1  A    between atoms: C_1  and  O_2
REMARK    2  A    between atoms: O_2  and  C_3
REMARK    3  A    between atoms: C_6  and  S_7
REMARK    4  A    between atoms: S_7  and  O_10
REMARK    5  A    between atoms: O_10  and  C_11
REMARK                            x       y       z     vdW  Elec       q    Type
REMARK                         _______ _______ _______ _____ _____    ______ ____
ROOT
ATOM      1  C   UNL     1       0.147  10.798  19.428  0.00  0.00    +0.000 A 
ATOM      2  C   UNL     1      -0.599  10.964  20.617  0.00  0.00    +0.000 A 
ATOM      3  C   UNL     1      -1.550  11.980  20.786  0.00  0.00    +0.000 A 
ATOM      4  C   UNL     1      -1.957  12.372  22.060  0.00  0.00    +0.000 A 
ATOM      5  C   UNL     1      -1.545  11.638  23.164  0.00  0.00    +0.000 A 
ATOM      6  C   UNL     1      -0.823  10.455  22.977  0.00  0.00    +0.000 A 
ATOM      7  C   UNL     1      -0.328  10.109  21.702  0.00  0.00    +0.000 A 
ATOM      8  C   UNL     1       0.479   8.974  21.487  0.00  0.00    +0.000 A 
ATOM      9  C   UNL     1       1.077   8.718  20.238  0.00  0.00    +0.000 A 
ATOM     10  C   UNL     1       1.954   7.632  20.040  0.00  0.00    +0.000 A 
ATOM     11  C   UNL     1       2.617   7.456  18.825  0.00  0.00    +0.000 A 
ATOM     12  C   UNL     1       2.355   8.301  17.758  0.00  0.00    +0.000 A 
ATOM     13  C   UNL     1       1.447   9.343  17.916  0.00  0.00    +0.000 A 
ATOM     14  C   UNL     1       0.873   9.620  19.173  0.00  0.00    +0.000 A 
ENDROOT
BRANCH   1  15
ATOM     15  O   UNL     1       0.394  11.958  18.674  0.00  0.00    +0.000 OA
BRANCH  15  16
ATOM     16  S   UNL     1       1.728  12.853  19.095  0.00  0.00    +0.000 S 
ATOM     17  O   UNL     1       2.765  12.649  18.094  0.00  0.00    +0.000 OA
ATOM     18  O   UNL     1       2.009  12.682  20.508  0.00  0.00    +0.000 OA
BRANCH  16  22
ATOM     19  C   UNL     1       0.607  17.168  18.181  0.00  0.00    +0.000 A 
ATOM     20  C   UNL     1      -0.378  16.255  18.530  0.00  0.00    +0.000 A 
ATOM     21  C   UNL     1      -0.034  14.945  18.892  0.00  0.00    +0.000 A 
ATOM     22  C   UNL     1       1.310  14.577  18.888  0.00  0.00    +0.000 A 
ATOM     23  C   UNL     1       2.309  15.492  18.539  0.00  0.00    +0.000 A 
ATOM     24  C   UNL     1       1.958  16.798  18.181  0.00  0.00    +0.000 A 
BRANCH  19  26
ATOM     25  C   UNL     1      -1.261  18.607  17.912  0.00  0.00    +0.000 C 
ATOM     26  O   UNL     1       0.139  18.396  17.773  0.00  0.00    +0.000 OA
ENDBRANCH  19  26
ENDBRANCH  16  22
ENDBRANCH  15  16
ENDBRANCH   1  15
TORSDOF 4
ENDMDL
MODEL 6
REMARK VINA RESULT:      -7.4      2.789      7.562
REMARK  Name = 
REMARK  5 active torsions:
REMARK  status: ('A' for Active; 'I' for Inactive)
REMARK    1  A    between atoms: C_1  and  O_2
REMARK    2  A    between atoms: O_2  and  C_3
REMARK    3  A    between atoms: C_6  and  S_7
REMARK    4  A    between atoms: S_7  and  O_10
REMARK    5  A    between atoms: O_10  and  C_11
REMARK                            x       y       z     vdW  Elec       q    Type
REMARK                         _______ _______ _______ _____ _____    ______ ____
ROOT
ATOM      1  C   UNL     1       3.521   5.845  18.494  0.00  0.00    +0.000 A 
ATOM      2  C   UNL     1       3.455   4.837  19.483  0.00  0.00    +0.000 A 
ATOM      3  C   UNL     1       4.291   3.711  19.484  0.00  0.00    +0.000 A 
ATOM      4  C   UNL     1       3.943   2.565  20.197  0.00  0.00    +0.000 A 
ATOM      5  C   UNL     1       2.848   2.598  21.049  0.00  0.00    +0.000 A 
ATOM      6  C   UNL     1       2.177   3.805  21.266  0.00  0.00    +0.000 A 
ATOM      7  C   UNL     1       2.462   4.938  20.476  0.00  0.00    +0.000 A 
ATOM      8  C   UNL     1       1.747   6.147  20.601  0.00  0.00    +0.000 A 
ATOM      9  C   UNL     1       1.951   7.221  19.714  0.00  0.00    +0.000 A 
ATOM     10  C   UNL     1       1.180   8.399  19.781  0.00  0.00    +0.000 A 
ATOM     11  C   UNL     1       1.326   9.409  18.829  0.00  0.00    +0.000 A 
ATOM     12  C   UNL     1       2.300   9.307  17.848  0.00  0.00    +0.000 A 
ATOM     13  C   UNL     1       3.111   8.179  17.802  0.00  0.00    +0.000 A 
ATOM     14  C   UNL     1       2.887   7.089  18.668  0.00  0.00    +0.000 A 
ENDROOT
BRANCH   1  15
ATOM     15  O   UNL     1       3.964   5.448  17.221  0.00  0.00    +0.000 OA
BRANCH  15  16
ATOM     16  S   UNL     1       5.564   5.721  16.868  0.00  0.00    +0.000 S 
ATOM     17  O   UNL     1       6.383   4.858  17.707  0.00  0.00    +0.000 OA
ATOM     18  O   UNL     1       5.814   7.148  16.795  0.00  0.00    +0.000 OA
BRANCH  16  22
ATOM     19  C   UNL     1       6.486   3.777  12.858  0.00  0.00    +0.000 A 
ATOM     20  C   UNL     1       5.243   3.593  13.449  0.00  0.00    +0.000 A 
ATOM     21  C   UNL     1       4.921   4.253  14.643  0.00  0.00    +0.000 A 
ATOM     22  C   UNL     1       5.871   5.088  15.227  0.00  0.00    +0.000 A 
ATOM     23  C   UNL     1       7.125   5.281  14.637  0.00  0.00    +0.000 A 
ATOM     24  C   UNL     1       7.438   4.620  13.443  0.00  0.00    +0.000 A 
BRANCH  19  26
ATOM     25  C   UNL     1       5.732   2.024  11.447  0.00  0.00    +0.000 C 
ATOM     26  O   UNL     1       6.708   3.018  11.732  0.00  0.00    +0.000 OA
ENDBRANCH  19  26
ENDBRANCH  16  22
ENDBRANCH  15  16
ENDBRANCH   1  15
TORSDOF 4
ENDMDL
MODEL 7
REMARK VINA RESULT:      -7.4      1.094      3.861
REMARK  Name = 
REMARK  5 active torsions:
REMARK  status: ('A' for Active; 'I' for Inactive)
REMARK    1  A    between atoms: C_1  and  O_2
REMARK    2  A    between atoms: O_2  and  C_3
REMARK    3  A    between atoms: C_6  and  S_7
REMARK    4  A    between atoms: S_7  and  O_10
REMARK    5  A    between atoms: O_10  and  C_11
REMARK                            x       y       z     vdW  Elec       q    Type
REMARK                         _______ _______ _______ _____ _____    ______ ____
ROOT
ATOM      1  C   UNL     1       2.987   4.976  17.940  0.00  0.00    +0.000 A 
ATOM      2  C   UNL     1       2.555   4.104  18.965  0.00  0.00    +0.000 A 
ATOM      3  C   UNL     1       1.207   3.951  19.320  0.00  0.00    +0.000 A 
ATOM      4  C   UNL     1       0.851   3.427  20.561  0.00  0.00    +0.000 A 
ATOM      5  C   UNL     1       1.834   2.895  21.384  0.00  0.00    +0.000 A 
ATOM      6  C   UNL     1       3.146   2.790  20.915  0.00  0.00    +0.000 A 
ATOM      7  C   UNL     1       3.528   3.405  19.704  0.00  0.00    +0.000 A 
ATOM      8  C   UNL     1       4.859   3.400  19.240  0.00  0.00    +0.000 A 
ATOM      9  C   UNL     1       5.248   4.134  18.103  0.00  0.00    +0.000 A 
ATOM     10  C   UNL     1       6.592   4.201  17.684  0.00  0.00    +0.000 A 
ATOM     11  C   UNL     1       6.972   5.017  16.616  0.00  0.00    +0.000 A 
ATOM     12  C   UNL     1       6.014   5.709  15.892  0.00  0.00    +0.000 A 
ATOM     13  C   UNL     1       4.675   5.607  16.254  0.00  0.00    +0.000 A 
ATOM     14  C   UNL     1       4.288   4.901  17.410  0.00  0.00    +0.000 A 
ENDROOT
BRANCH   1  15
ATOM     15  O   UNL     1       2.190   6.108  17.701  0.00  0.00    +0.000 OA
BRANCH  15  16
ATOM     16  S   UNL     1       2.794   7.568  18.215  0.00  0.00    +0.000 S 
ATOM     17  O   UNL     1       2.853   8.477  17.079  0.00  0.00    +0.000 OA
ATOM     18  O   UNL     1       3.953   7.351  19.058  0.00  0.00    +0.000 OA
BRANCH  16  22
ATOM     19  C   UNL     1      -0.058   9.739  21.019  0.00  0.00    +0.000 A 
ATOM     20  C   UNL     1       0.111  10.189  19.717  0.00  0.00    +0.000 A 
ATOM     21  C   UNL     1       0.924   9.480  18.822  0.00  0.00    +0.000 A 
ATOM     22  C   UNL     1       1.563   8.324  19.265  0.00  0.00    +0.000 A 
ATOM     23  C   UNL     1       1.396   7.862  20.575  0.00  0.00    +0.000 A 
ATOM     24  C   UNL     1       0.580   8.574  21.462  0.00  0.00    +0.000 A 
BRANCH  19  26
ATOM     25  C   UNL     1      -0.792  10.270  23.213  0.00  0.00    +0.000 C 
ATOM     26  O   UNL     1      -0.818  10.560  21.821  0.00  0.00    +0.000 OA
ENDBRANCH  19  26
ENDBRANCH  16  22
ENDBRANCH  15  16
ENDBRANCH   1  15
TORSDOF 4
ENDMDL
MODEL 8
REMARK VINA RESULT:      -7.3      0.881      3.654
REMARK  Name = 
REMARK  5 active torsions:
REMARK  status: ('A' for Active; 'I' for Inactive)
REMARK    1  A    between atoms: C_1  and  O_2
REMARK    2  A    between atoms: O_2  and  C_3
REMARK    3  A    between atoms: C_6  and  S_7
REMARK    4  A    between atoms: S_7  and  O_10
REMARK    5  A    between atoms: O_10  and  C_11
REMARK                            x       y       z     vdW  Elec       q    Type
REMARK                         _______ _______ _______ _____ _____    ______ ____
ROOT
ATOM      1  C   UNL     1       3.473   5.648  18.108  0.00  0.00    +0.000 A 
ATOM      2  C   UNL     1       2.713   4.458  18.139  0.00  0.00    +0.000 A 
ATOM      3  C   UNL     1       1.360   4.425  18.507  0.00  0.00    +0.000 A 
ATOM      4  C   UNL     1       0.762   3.237  18.923  0.00  0.00    +0.000 A 
ATOM      5  C   UNL     1       1.462   2.044  18.809  0.00  0.00    +0.000 A 
ATOM      6  C   UNL     1       2.711   2.033  18.180  0.00  0.00    +0.000 A 
ATOM      7  C   UNL     1       3.360   3.242  17.849  0.00  0.00    +0.000 A 
ATOM      8  C   UNL     1       4.656   3.278  17.297  0.00  0.00    +0.000 A 
ATOM      9  C   UNL     1       5.342   4.491  17.100  0.00  0.00    +0.000 A 
ATOM     10  C   UNL     1       6.670   4.528  16.628  0.00  0.00    +0.000 A 
ATOM     11  C   UNL     1       7.367   5.734  16.539  0.00  0.00    +0.000 A 
ATOM     12  C   UNL     1       6.732   6.930  16.830  0.00  0.00    +0.000 A 
ATOM     13  C   UNL     1       5.403   6.919  17.239  0.00  0.00    +0.000 A 
ATOM     14  C   UNL     1       4.726   5.705  17.468  0.00  0.00    +0.000 A 
ENDROOT
BRANCH   1  15
ATOM     15  O   UNL     1       3.088   6.664  18.999  0.00  0.00    +0.000 OA
BRANCH  15  16
ATOM     16  S   UNL     1       2.273   7.957  18.349  0.00  0.00    +0.000 S 
ATOM     17  O   UNL     1       1.191   7.458  17.513  0.00  0.00    +0.000 OA
ATOM     18  O   UNL     1       3.221   8.931  17.842  0.00  0.00    +0.000 OA
BRANCH  16  22
ATOM     19  C   UNL     1       0.402  10.209  21.834  0.00  0.00    +0.000 A 
ATOM     20  C   UNL     1       0.432  10.785  20.571  0.00  0.00    +0.000 A 
ATOM     21  C   UNL     1       0.933  10.068  19.476  0.00  0.00    +0.000 A 
ATOM     22  C   UNL     1       1.404   8.773  19.679  0.00  0.00    +0.000 A 
ATOM     23  C   UNL     1       1.375   8.183  20.948  0.00  0.00    +0.000 A 
ATOM     24  C   UNL     1       0.872   8.906  22.036  0.00  0.00    +0.000 A 
BRANCH  19  26
ATOM     25  C   UNL     1      -1.440  11.022  23.089  0.00  0.00    +0.000 C 
ATOM     26  O   UNL     1      -0.041  11.039  22.837  0.00  0.00    +0.000 OA
ENDBRANCH  19  26
ENDBRANCH  16  22
ENDBRANCH  15  16
ENDBRANCH   1  15
TORSDOF 4
ENDMDL
MODEL 9
REMARK VINA RESULT:      -7.2      3.457      8.806
REMARK  Name = 
REMARK  5 active torsions:
REMARK  status: ('A' for Active; 'I' for Inactive)
REMARK    1  A    between atoms: C_1  and  O_2
REMARK    2  A    between atoms: O_2  and  C_3
REMARK    3  A    between atoms: C_6  and  S_7
REMARK    4  A    between atoms: S_7  and  O_10
REMARK    5  A    between atoms: O_10  and  C_11
REMARK                            x       y       z     vdW  Elec       q    Type
REMARK                         _______ _______ _______ _____ _____    ______ ____
ROOT
ATOM      1  C   UNL     1      -1.860  11.217  19.547  0.00  0.00    +0.000 A 
ATOM      2  C   UNL     1      -2.421  12.180  20.417  0.00  0.00    +0.000 A 
ATOM      3  C   UNL     1      -1.777  12.626  21.580  0.00  0.00    +0.000 A 
ATOM      4  C   UNL     1      -2.497  13.236  22.605  0.00  0.00    +0.000 A 
ATOM      5  C   UNL     1      -3.832  13.559  22.403  0.00  0.00    +0.000 A 
ATOM      6  C   UNL     1      -4.405  13.371  21.141  0.00  0.00    +0.000 A 
ATOM      7  C   UNL     1      -3.711  12.666  20.135  0.00  0.00    +0.000 A 
ATOM      8  C   UNL     1      -4.287  12.376  18.882  0.00  0.00    +0.000 A 
ATOM      9  C   UNL     1      -3.635  11.556  17.941  0.00  0.00    +0.000 A 
ATOM     10  C   UNL     1      -4.242  11.193  16.722  0.00  0.00    +0.000 A 
ATOM     11  C   UNL     1      -3.623  10.296  15.850  0.00  0.00    +0.000 A 
ATOM     12  C   UNL     1      -2.355   9.813  16.130  0.00  0.00    +0.000 A 
ATOM     13  C   UNL     1      -1.715  10.207  17.300  0.00  0.00    +0.000 A 
ATOM     14  C   UNL     1      -2.378  11.001  18.257  0.00  0.00    +0.000 A 
ENDROOT
BRANCH   1  15
ATOM     15  O   UNL     1      -0.989  10.279  20.127  0.00  0.00    +0.000 OA
BRANCH  15  16
ATOM     16  S   UNL     1       0.634  10.627  20.059  0.00  0.00    +0.000 S 
ATOM     17  O   UNL     1       1.119  10.867  21.411  0.00  0.00    +0.000 OA
ATOM     18  O   UNL     1       0.890  11.577  18.994  0.00  0.00    +0.000 OA
BRANCH  16  22
ATOM     19  C   UNL     1       2.457   6.664  18.760  0.00  0.00    +0.000 A 
ATOM     20  C   UNL     1       2.323   7.700  17.845  0.00  0.00    +0.000 A 
ATOM     21  C   UNL     1       1.838   8.949  18.255  0.00  0.00    +0.000 A 
ATOM     22  C   UNL     1       1.488   9.129  19.591  0.00  0.00    +0.000 A 
ATOM     23  C   UNL     1       1.622   8.092  20.520  0.00  0.00    +0.000 A 
ATOM     24  C   UNL     1       2.109   6.848  20.103  0.00  0.00    +0.000 A 
BRANCH  19  26
ATOM     25  C   UNL     1       1.840   4.587  17.792  0.00  0.00    +0.000 C 
ATOM     26  O   UNL     1       2.871   5.467  18.222  0.00  0.00    +0.000 OA
ENDBRANCH  19  26
ENDBRANCH  16  22
ENDBRANCH  15  16
ENDBRANCH   1  15
TORSDOF 4
ENDMDL
