MODEL 1
REMARK VINA RESULT:      -9.4      0.000      0.000
REMARK  Name = 
REMARK  5 active torsions:
REMARK  status: ('A' for Active; 'I' for Inactive)
REMARK    1  A    between atoms: C_1  and  C_2
REMARK    2  A    between atoms: C_5  and  N_6
REMARK    3  A    between atoms: C_7  and  C_9
REMARK    4  A    between atoms: C_11  and  S_12
REMARK    5  A    between atoms: S_12  and  C_15
REMARK                            x       y       z     vdW  Elec       q    Type
REMARK                         _______ _______ _______ _____ _____    ______ ____
ROOT
ATOM      1  C   UNL     1       3.403   5.909  17.936  0.00  0.00    +0.000 A 
ATOM      2  C   UNL     1       4.754   6.047  17.537  0.00  0.00    +0.000 A 
ATOM      3  C   UNL     1       5.501   4.946  17.102  0.00  0.00    +0.000 A 
ATOM      4  C   UNL     1       4.930   3.676  17.099  0.00  0.00    +0.000 A 
ATOM      5  C   UNL     1       3.589   3.530  17.451  0.00  0.00    +0.000 A 
ATOM      6  C   UNL     1       2.813   4.641  17.829  0.00  0.00    +0.000 A 
ATOM      7 CL   UNL     1       1.127   4.329  18.048  0.00  0.00    +0.000 Cl
ENDROOT
BRANCH   1   9
ATOM      8  N   UNL     1       2.268   7.219  19.720  0.00  0.00    +0.000 N 
ATOM      9  C   UNL     1       2.744   7.170  18.421  0.00  0.00    +0.000 C 
ATOM     10  O   UNL     1       2.696   8.101  17.621  0.00  0.00    +0.000 OA
ATOM     11  H   UNL     1       2.347   6.385  20.284  0.00  0.00    +0.000 HD
BRANCH   8  16
ATOM     12  C   UNL     1      -0.811  11.316  22.299  0.00  0.00    +0.000 C 
ATOM     13  C   UNL     1       0.060  10.302  21.624  0.00  0.00    +0.000 A 
ATOM     14  C   UNL     1       0.199  10.303  20.235  0.00  0.00    +0.000 A 
ATOM     15  C   UNL     1       0.950   9.314  19.597  0.00  0.00    +0.000 A 
ATOM     16  C   UNL     1       1.570   8.298  20.322  0.00  0.00    +0.000 A 
ATOM     17  C   UNL     1       1.475   8.323  21.719  0.00  0.00    +0.000 A 
ATOM     18  C   UNL     1       0.718   9.313  22.365  0.00  0.00    +0.000 A 
ENDBRANCH   8  16
ENDBRANCH   1   9
BRANCH   3  19
ATOM     19  S   UNL     1       7.091   5.196  16.339  0.00  0.00    +0.000 S 
ATOM     20  O   UNL     1       7.387   6.614  16.458  0.00  0.00    +0.000 OA
ATOM     21  O   UNL     1       7.999   4.222  16.916  0.00  0.00    +0.000 OA
BRANCH  19  22
ATOM     22  C   UNL     1       6.946   4.835  14.609  0.00  0.00    +0.000 A 
ATOM     23  C   UNL     1       7.817   5.446  13.702  0.00  0.00    +0.000 A 
ATOM     24  C   UNL     1       7.776   5.080  12.357  0.00  0.00    +0.000 A 
ATOM     25  C   UNL     1       6.880   4.101  11.927  0.00  0.00    +0.000 A 
ATOM     26  C   UNL     1       6.018   3.487  12.838  0.00  0.00    +0.000 A 
ATOM     27  C   UNL     1       6.050   3.849  14.184  0.00  0.00    +0.000 A 
ENDBRANCH  19  22
ENDBRANCH   3  19
TORSDOF 4
ENDMDL
MODEL 2
REMARK VINA RESULT:      -9.2      1.733      1.868
REMARK  Name = 
REMARK  5 active torsions:
REMARK  status: ('A' for Active; 'I' for Inactive)
REMARK    1  A    between atoms: C_1  and  C_2
REMARK    2  A    between atoms: C_5  and  N_6
REMARK    3  A    between atoms: C_7  and  C_9
REMARK    4  A    between atoms: C_11  and  S_12
REMARK    5  A    between atoms: S_12  and  C_15
REMARK                            x       y       z     vdW  Elec       q    Type
REMARK                         _______ _______ _______ _____ _____    ______ ____
ROOT
ATOM      1  C   UNL     1       3.286   5.904  17.981  0.00  0.00    +0.000 A 
ATOM      2  C   UNL     1       4.633   6.079  17.585  0.00  0.00    +0.000 A 
ATOM      3  C   UNL     1       5.388   5.014  17.080  0.00  0.00    +0.000 A 
ATOM      4  C   UNL     1       4.827   3.741  16.999  0.00  0.00    +0.000 A 
ATOM      5  C   UNL     1       3.489   3.562  17.348  0.00  0.00    +0.000 A 
ATOM      6  C   UNL     1       2.706   4.640  17.797  0.00  0.00    +0.000 A 
ATOM      7 CL   UNL     1       1.023   4.302  18.003  0.00  0.00    +0.000 Cl
ENDROOT
BRANCH   1   9
ATOM      8  N   UNL     1       2.206   8.125  17.677  0.00  0.00    +0.000 N 
ATOM      9  C   UNL     1       2.619   7.128  18.546  0.00  0.00    +0.000 C 
ATOM     10  O   UNL     1       2.458   7.149  19.763  0.00  0.00    +0.000 OA
ATOM     11  H   UNL     1       2.407   8.008  16.694  0.00  0.00    +0.000 HD
BRANCH   8  16
ATOM     12  C   UNL     1      -0.372  13.128  18.787  0.00  0.00    +0.000 C 
ATOM     13  C   UNL     1       0.318  11.815  18.583  0.00  0.00    +0.000 A 
ATOM     14  C   UNL     1       1.706  11.759  18.449  0.00  0.00    +0.000 A 
ATOM     15  C   UNL     1       2.345  10.546  18.183  0.00  0.00    +0.000 A 
ATOM     16  C   UNL     1       1.619   9.365  18.035  0.00  0.00    +0.000 A 
ATOM     17  C   UNL     1       0.232   9.409  18.220  0.00  0.00    +0.000 A 
ATOM     18  C   UNL     1      -0.415  10.626  18.483  0.00  0.00    +0.000 A 
ENDBRANCH   8  16
ENDBRANCH   1   9
BRANCH   3  19
ATOM     19  S   UNL     1       6.972   5.324  16.328  0.00  0.00    +0.000 S 
ATOM     20  O   UNL     1       7.189   6.759  16.401  0.00  0.00    +0.000 OA
ATOM     21  O   UNL     1       7.924   4.421  16.948  0.00  0.00    +0.000 OA
BRANCH  19  22
ATOM     22  C   UNL     1       6.871   4.897  14.609  0.00  0.00    +0.000 A 
ATOM     23  C   UNL     1       7.768   5.470  13.703  0.00  0.00    +0.000 A 
ATOM     24  C   UNL     1       7.760   5.053  12.372  0.00  0.00    +0.000 A 
ATOM     25  C   UNL     1       6.871   4.061  11.956  0.00  0.00    +0.000 A 
ATOM     26  C   UNL     1       5.984   3.485  12.867  0.00  0.00    +0.000 A 
ATOM     27  C   UNL     1       5.982   3.899  14.199  0.00  0.00    +0.000 A 
ENDBRANCH  19  22
ENDBRANCH   3  19
TORSDOF 4
ENDMDL
MODEL 3
REMARK VINA RESULT:      -9.2      0.268      1.362
REMARK  Name = 
REMARK  5 active torsions:
REMARK  status: ('A' for Active; 'I' for Inactive)
REMARK    1  A    between atoms: C_1  and  C_2
REMARK    2  A    between atoms: C_5  and  N_6
REMARK    3  A    between atoms: C_7  and  C_9
REMARK    4  A    between atoms: C_11  and  S_12
REMARK    5  A    between atoms: S_12  and  C_15
REMARK                            x       y       z     vdW  Elec       q    Type
REMARK                         _______ _______ _______ _____ _____    ______ ____
ROOT
ATOM      1  C   UNL     1       3.427   5.891  17.894  0.00  0.00    +0.000 A 
ATOM      2  C   UNL     1       4.789   6.023  17.533  0.00  0.00    +0.000 A 
ATOM      3  C   UNL     1       5.549   4.916  17.137  0.00  0.00    +0.000 A 
ATOM      4  C   UNL     1       4.977   3.646  17.135  0.00  0.00    +0.000 A 
ATOM      5  C   UNL     1       3.626   3.505  17.450  0.00  0.00    +0.000 A 
ATOM      6  C   UNL     1       2.840   4.621  17.788  0.00  0.00    +0.000 A 
ATOM      7 CL   UNL     1       1.147   4.313  17.960  0.00  0.00    +0.000 Cl
ENDROOT
BRANCH   1   9
ATOM      8  N   UNL     1       2.227   7.223  19.619  0.00  0.00    +0.000 N 
ATOM      9  C   UNL     1       2.755   7.160  18.340  0.00  0.00    +0.000 C 
ATOM     10  O   UNL     1       2.742   8.083  17.530  0.00  0.00    +0.000 OA
ATOM     11  H   UNL     1       2.281   6.394  20.193  0.00  0.00    +0.000 HD
BRANCH   8  16
ATOM     12  C   UNL     1      -0.384  11.858  21.767  0.00  0.00    +0.000 C 
ATOM     13  C   UNL     1       0.221  10.607  21.209  0.00  0.00    +0.000 A 
ATOM     14  C   UNL     1       0.644   9.585  22.061  0.00  0.00    +0.000 A 
ATOM     15  C   UNL     1       1.277   8.450  21.549  0.00  0.00    +0.000 A 
ATOM     16  C   UNL     1       1.511   8.310  20.182  0.00  0.00    +0.000 A 
ATOM     17  C   UNL     1       1.042   9.308  19.320  0.00  0.00    +0.000 A 
ATOM     18  C   UNL     1       0.410  10.452  19.830  0.00  0.00    +0.000 A 
ENDBRANCH   8  16
ENDBRANCH   1   9
BRANCH   3  19
ATOM     19  S   UNL     1       7.161   5.154  16.420  0.00  0.00    +0.000 S 
ATOM     20  O   UNL     1       7.442   6.578  16.499  0.00  0.00    +0.000 OA
ATOM     21  O   UNL     1       8.057   4.208  17.058  0.00  0.00    +0.000 OA
BRANCH  19  22
ATOM     22  C   UNL     1       7.077   4.733  14.698  0.00  0.00    +0.000 A 
ATOM     23  C   UNL     1       6.148   3.781  14.267  0.00  0.00    +0.000 A 
ATOM     24  C   UNL     1       6.006   3.530  12.903  0.00  0.00    +0.000 A 
ATOM     25  C   UNL     1       6.777   4.235  11.979  0.00  0.00    +0.000 A 
ATOM     26  C   UNL     1       7.697   5.191  12.414  0.00  0.00    +0.000 A 
ATOM     27  C   UNL     1       7.848   5.447  13.777  0.00  0.00    +0.000 A 
ENDBRANCH  19  22
ENDBRANCH   3  19
TORSDOF 4
ENDMDL
MODEL 4
REMARK VINA RESULT:      -9.1      1.703      2.118
REMARK  Name = 
REMARK  5 active torsions:
REMARK  status: ('A' for Active; 'I' for Inactive)
REMARK    1  A    between atoms: C_1  and  C_2
REMARK    2  A    between atoms: C_5  and  N_6
REMARK    3  A    between atoms: C_7  and  C_9
REMARK    4  A    between atoms: C_11  and  S_12
REMARK    5  A    between atoms: S_12  and  C_15
REMARK                            x       y       z     vdW  Elec       q    Type
REMARK                         _______ _______ _______ _____ _____    ______ ____
ROOT
ATOM      1  C   UNL     1       3.287   5.916  17.924  0.00  0.00    +0.000 A 
ATOM      2  C   UNL     1       4.642   6.093  17.556  0.00  0.00    +0.000 A 
ATOM      3  C   UNL     1       5.414   5.025  17.084  0.00  0.00    +0.000 A 
ATOM      4  C   UNL     1       4.864   3.748  17.012  0.00  0.00    +0.000 A 
ATOM      5  C   UNL     1       3.520   3.565  17.334  0.00  0.00    +0.000 A 
ATOM      6  C   UNL     1       2.720   4.645  17.749  0.00  0.00    +0.000 A 
ATOM      7 CL   UNL     1       1.035   4.298  17.923  0.00  0.00    +0.000 Cl
ENDROOT
BRANCH   1   9
ATOM      8  N   UNL     1       2.297   8.171  17.576  0.00  0.00    +0.000 N 
ATOM      9  C   UNL     1       2.600   7.144  18.454  0.00  0.00    +0.000 C 
ATOM     10  O   UNL     1       2.325   7.141  19.651  0.00  0.00    +0.000 OA
ATOM     11  H   UNL     1       2.587   8.071  16.614  0.00  0.00    +0.000 HD
BRANCH   8  16
ATOM     12  C   UNL     1       0.156  13.227  19.238  0.00  0.00    +0.000 C 
ATOM     13  C   UNL     1       0.685  11.924  18.724  0.00  0.00    +0.000 A 
ATOM     14  C   UNL     1      -0.146  10.806  18.646  0.00  0.00    +0.000 A 
ATOM     15  C   UNL     1       0.363   9.571  18.238  0.00  0.00    +0.000 A 
ATOM     16  C   UNL     1       1.709   9.418  17.909  0.00  0.00    +0.000 A 
ATOM     17  C   UNL     1       2.534  10.549  17.936  0.00  0.00    +0.000 A 
ATOM     18  C   UNL     1       2.027  11.791  18.350  0.00  0.00    +0.000 A 
ENDBRANCH   8  16
ENDBRANCH   1   9
BRANCH   3  19
ATOM     19  S   UNL     1       7.013   5.334  16.362  0.00  0.00    +0.000 S 
ATOM     20  O   UNL     1       7.194   6.776  16.362  0.00  0.00    +0.000 OA
ATOM     21  O   UNL     1       7.966   4.490  17.058  0.00  0.00    +0.000 OA
BRANCH  19  22
ATOM     22  C   UNL     1       6.973   4.813  14.667  0.00  0.00    +0.000 A 
ATOM     23  C   UNL     1       6.044   3.848  14.265  0.00  0.00    +0.000 A 
ATOM     24  C   UNL     1       5.939   3.517  12.914  0.00  0.00    +0.000 A 
ATOM     25  C   UNL     1       6.746   4.157  11.974  0.00  0.00    +0.000 A 
ATOM     26  C   UNL     1       7.666   5.126  12.379  0.00  0.00    +0.000 A 
ATOM     27  C   UNL     1       7.781   5.461  13.728  0.00  0.00    +0.000 A 
ENDBRANCH  19  22
ENDBRANCH   3  19
TORSDOF 4
ENDMDL
MODEL 5
REMARK VINA RESULT:      -9.0      0.921      1.075
REMARK  Name = 
REMARK  5 active torsions:
REMARK  status: ('A' for Active; 'I' for Inactive)
REMARK    1  A    between atoms: C_1  and  C_2
REMARK    2  A    between atoms: C_5  and  N_6
REMARK    3  A    between atoms: C_7  and  C_9
REMARK    4  A    between atoms: C_11  and  S_12
REMARK    5  A    between atoms: S_12  and  C_15
REMARK                            x       y       z     vdW  Elec       q    Type
REMARK                         _______ _______ _______ _____ _____    ______ ____
ROOT
ATOM      1  C   UNL     1       3.522   6.297  18.067  0.00  0.00    +0.000 A 
ATOM      2  C   UNL     1       4.816   6.388  17.500  0.00  0.00    +0.000 A 
ATOM      3  C   UNL     1       5.661   5.275  17.432  0.00  0.00    +0.000 A 
ATOM      4  C   UNL     1       5.251   4.057  17.968  0.00  0.00    +0.000 A 
ATOM      5  C   UNL     1       3.965   3.941  18.494  0.00  0.00    +0.000 A 
ATOM      6  C   UNL     1       3.086   5.040  18.509  0.00  0.00    +0.000 A 
ATOM      7 CL   UNL     1       1.469   4.690  19.011  0.00  0.00    +0.000 Cl
ENDROOT
BRANCH   1   9
ATOM      8  N   UNL     1       2.046   7.905  19.260  0.00  0.00    +0.000 N 
ATOM      9  C   UNL     1       2.748   7.585  18.110  0.00  0.00    +0.000 C 
ATOM     10  O   UNL     1       2.814   8.295  17.110  0.00  0.00    +0.000 OA
ATOM     11  H   UNL     1       2.049   7.236  20.017  0.00  0.00    +0.000 HD
BRANCH   8  16
ATOM     12  C   UNL     1      -1.565  12.259  20.220  0.00  0.00    +0.000 C 
ATOM     13  C   UNL     1      -0.558  11.180  19.962  0.00  0.00    +0.000 A 
ATOM     14  C   UNL     1      -0.208  10.838  18.655  0.00  0.00    +0.000 A 
ATOM     15  C   UNL     1       0.673   9.784  18.409  0.00  0.00    +0.000 A 
ATOM     16  C   UNL     1       1.218   9.040  19.455  0.00  0.00    +0.000 A 
ATOM     17  C   UNL     1       0.910   9.413  20.769  0.00  0.00    +0.000 A 
ATOM     18  C   UNL     1       0.021  10.470  21.020  0.00  0.00    +0.000 A 
ENDBRANCH   8  16
ENDBRANCH   1   9
BRANCH   3  19
ATOM     19  S   UNL     1       7.153   5.349  16.463  0.00  0.00    +0.000 S 
ATOM     20  O   UNL     1       7.544   6.748  16.413  0.00  0.00    +0.000 OA
ATOM     21  O   UNL     1       8.069   4.366  17.012  0.00  0.00    +0.000 OA
BRANCH  19  22
ATOM     22  C   UNL     1       6.770   4.854  14.803  0.00  0.00    +0.000 A 
ATOM     23  C   UNL     1       7.676   5.130  13.775  0.00  0.00    +0.000 A 
ATOM     24  C   UNL     1       7.427   4.646  12.491  0.00  0.00    +0.000 A 
ATOM     25  C   UNL     1       6.287   3.880  12.243  0.00  0.00    +0.000 A 
ATOM     26  C   UNL     1       5.390   3.600  13.275  0.00  0.00    +0.000 A 
ATOM     27  C   UNL     1       5.629   4.083  14.561  0.00  0.00    +0.000 A 
ENDBRANCH  19  22
ENDBRANCH   3  19
TORSDOF 4
ENDMDL
MODEL 6
REMARK VINA RESULT:      -8.8      1.119      1.574
REMARK  Name = 
REMARK  5 active torsions:
REMARK  status: ('A' for Active; 'I' for Inactive)
REMARK    1  A    between atoms: C_1  and  C_2
REMARK    2  A    between atoms: C_5  and  N_6
REMARK    3  A    between atoms: C_7  and  C_9
REMARK    4  A    between atoms: C_11  and  S_12
REMARK    5  A    between atoms: S_12  and  C_15
REMARK                            x       y       z     vdW  Elec       q    Type
REMARK                         _______ _______ _______ _____ _____    ______ ____
ROOT
ATOM      1  C   UNL     1       3.276   5.443  18.208  0.00  0.00    +0.000 A 
ATOM      2  C   UNL     1       4.594   5.730  17.781  0.00  0.00    +0.000 A 
ATOM      3  C   UNL     1       5.376   4.766  17.132  0.00  0.00    +0.000 A 
ATOM      4  C   UNL     1       4.874   3.482  16.935  0.00  0.00    +0.000 A 
ATOM      5  C   UNL     1       3.563   3.196  17.314  0.00  0.00    +0.000 A 
ATOM      6  C   UNL     1       2.750   4.178  17.909  0.00  0.00    +0.000 A 
ATOM      7 CL   UNL     1       1.095   3.731  18.142  0.00  0.00    +0.000 Cl
ENDROOT
BRANCH   1   9
ATOM      8  N   UNL     1       2.354   7.753  18.257  0.00  0.00    +0.000 N 
ATOM      9  C   UNL     1       2.577   6.562  18.929  0.00  0.00    +0.000 C 
ATOM     10  O   UNL     1       2.220   6.330  20.081  0.00  0.00    +0.000 OA
ATOM     11  H   UNL     1       2.707   7.838  17.315  0.00  0.00    +0.000 HD
BRANCH   8  16
ATOM     12  C   UNL     1       0.346  12.660  20.449  0.00  0.00    +0.000 C 
ATOM     13  C   UNL     1       0.790  11.363  19.848  0.00  0.00    +0.000 A 
ATOM     14  C   UNL     1       0.635  10.168  20.553  0.00  0.00    +0.000 A 
ATOM     15  C   UNL     1       1.115   8.966  20.027  0.00  0.00    +0.000 A 
ATOM     16  C   UNL     1       1.768   8.927  18.796  0.00  0.00    +0.000 A 
ATOM     17  C   UNL     1       1.880  10.115  18.063  0.00  0.00    +0.000 A 
ATOM     18  C   UNL     1       1.402  11.326  18.590  0.00  0.00    +0.000 A 
ENDBRANCH   8  16
ENDBRANCH   1   9
BRANCH   3  19
ATOM     19  S   UNL     1       6.908   5.238  16.357  0.00  0.00    +0.000 S 
ATOM     20  O   UNL     1       6.993   6.686  16.459  0.00  0.00    +0.000 OA
ATOM     21  O   UNL     1       7.952   4.415  16.938  0.00  0.00    +0.000 OA
BRANCH  19  22
ATOM     22  C   UNL     1       6.810   4.840  14.632  0.00  0.00    +0.000 A 
ATOM     23  C   UNL     1       7.720   5.415  13.739  0.00  0.00    +0.000 A 
ATOM     24  C   UNL     1       7.713   5.019  12.402  0.00  0.00    +0.000 A 
ATOM     25  C   UNL     1       6.814   4.045  11.966  0.00  0.00    +0.000 A 
ATOM     26  C   UNL     1       5.913   3.468  12.863  0.00  0.00    +0.000 A 
ATOM     27  C   UNL     1       5.910   3.860  14.201  0.00  0.00    +0.000 A 
ENDBRANCH  19  22
ENDBRANCH   3  19
TORSDOF 4
ENDMDL
MODEL 7
REMARK VINA RESULT:      -8.7      1.428      1.668
REMARK  Name = 
REMARK  5 active torsions:
REMARK  status: ('A' for Active; 'I' for Inactive)
REMARK    1  A    between atoms: C_1  and  C_2
REMARK    2  A    between atoms: C_5  and  N_6
REMARK    3  A    between atoms: C_7  and  C_9
REMARK    4  A    between atoms: C_11  and  S_12
REMARK    5  A    between atoms: S_12  and  C_15
REMARK                            x       y       z     vdW  Elec       q    Type
REMARK                         _______ _______ _______ _____ _____    ______ ____
ROOT
ATOM      1  C   UNL     1       3.037   6.001  19.569  0.00  0.00    +0.000 A 
ATOM      2  C   UNL     1       4.332   6.175  19.027  0.00  0.00    +0.000 A 
ATOM      3  C   UNL     1       5.207   5.094  18.870  0.00  0.00    +0.000 A 
ATOM      4  C   UNL     1       4.825   3.823  19.292  0.00  0.00    +0.000 A 
ATOM      5  C   UNL     1       3.537   3.629  19.791  0.00  0.00    +0.000 A 
ATOM      6  C   UNL     1       2.630   4.699  19.893  0.00  0.00    +0.000 A 
ATOM      7 CL   UNL     1       1.018   4.266  20.344  0.00  0.00    +0.000 Cl
ENDROOT
BRANCH   1   9
ATOM      8  N   UNL     1       1.884   7.688  20.989  0.00  0.00    +0.000 N 
ATOM      9  C   UNL     1       2.228   7.261  19.717  0.00  0.00    +0.000 C 
ATOM     10  O   UNL     1       1.945   7.852  18.678  0.00  0.00    +0.000 OA
ATOM     11  H   UNL     1       2.158   7.111  21.771  0.00  0.00    +0.000 HD
BRANCH   8  16
ATOM     12  C   UNL     1      -1.680  11.991  22.288  0.00  0.00    +0.000 C 
ATOM     13  C   UNL     1      -0.685  10.916  21.982  0.00  0.00    +0.000 A 
ATOM     14  C   UNL     1       0.057  10.956  20.800  0.00  0.00    +0.000 A 
ATOM     15  C   UNL     1       0.932   9.917  20.475  0.00  0.00    +0.000 A 
ATOM     16  C   UNL     1       1.081   8.811  21.311  0.00  0.00    +0.000 A 
ATOM     17  C   UNL     1       0.377   8.792  22.522  0.00  0.00    +0.000 A 
ATOM     18  C   UNL     1      -0.506   9.833  22.850  0.00  0.00    +0.000 A 
ENDBRANCH   8  16
ENDBRANCH   1   9
BRANCH   3  19
ATOM     19  S   UNL     1       6.706   5.292  17.929  0.00  0.00    +0.000 S 
ATOM     20  O   UNL     1       7.045   6.704  17.985  0.00  0.00    +0.000 OA
ATOM     21  O   UNL     1       7.652   4.306  18.419  0.00  0.00    +0.000 OA
BRANCH  19  22
ATOM     22  C   UNL     1       6.358   4.903  16.233  0.00  0.00    +0.000 A 
ATOM     23  C   UNL     1       7.347   5.102  15.265  0.00  0.00    +0.000 A 
ATOM     24  C   UNL     1       7.113   4.696  13.951  0.00  0.00    +0.000 A 
ATOM     25  C   UNL     1       5.905   4.083  13.615  0.00  0.00    +0.000 A 
ATOM     26  C   UNL     1       4.925   3.879  14.587  0.00  0.00    +0.000 A 
ATOM     27  C   UNL     1       5.149   4.285  15.903  0.00  0.00    +0.000 A 
ENDBRANCH  19  22
ENDBRANCH   3  19
TORSDOF 4
ENDMDL
MODEL 8
REMARK VINA RESULT:      -8.6      1.773      2.199
REMARK  Name = 
REMARK  5 active torsions:
REMARK  status: ('A' for Active; 'I' for Inactive)
REMARK    1  A    between atoms: C_1  and  C_2
REMARK    2  A    between atoms: C_5  and  N_6
REMARK    3  A    between atoms: C_7  and  C_9
REMARK    4  A    between atoms: C_11  and  S_12
REMARK    5  A    between atoms: S_12  and  C_15
REMARK                            x       y       z     vdW  Elec       q    Type
REMARK                         _______ _______ _______ _____ _____    ______ ____
ROOT
ATOM      1  C   UNL     1       2.913   4.977  20.006  0.00  0.00    +0.000 A 
ATOM      2  C   UNL     1       4.118   5.468  19.450  0.00  0.00    +0.000 A 
ATOM      3  C   UNL     1       5.165   4.606  19.102  0.00  0.00    +0.000 A 
ATOM      4  C   UNL     1       5.049   3.239  19.344  0.00  0.00    +0.000 A 
ATOM      5  C   UNL     1       3.853   2.736  19.855  0.00  0.00    +0.000 A 
ATOM      6  C   UNL     1       2.773   3.589  20.148  0.00  0.00    +0.000 A 
ATOM      7 CL   UNL     1       1.300   2.798  20.587  0.00  0.00    +0.000 Cl
ENDROOT
BRANCH   1   9
ATOM      8  N   UNL     1       2.260   7.361  20.286  0.00  0.00    +0.000 N 
ATOM      9  C   UNL     1       1.899   6.026  20.369  0.00  0.00    +0.000 C 
ATOM     10  O   UNL     1       0.788   5.620  20.697  0.00  0.00    +0.000 OA
ATOM     11  H   UNL     1       3.210   7.578  20.021  0.00  0.00    +0.000 HD
BRANCH   8  16
ATOM     12  C   UNL     1      -1.249  11.610  21.882  0.00  0.00    +0.000 C 
ATOM     13  C   UNL     1      -0.268  10.559  21.464  0.00  0.00    +0.000 A 
ATOM     14  C   UNL     1       0.044  10.380  20.115  0.00  0.00    +0.000 A 
ATOM     15  C   UNL     1       0.900   9.352  19.715  0.00  0.00    +0.000 A 
ATOM     16  C   UNL     1       1.458   8.475  20.644  0.00  0.00    +0.000 A 
ATOM     17  C   UNL     1       1.188   8.683  22.002  0.00  0.00    +0.000 A 
ATOM     18  C   UNL     1       0.324   9.712  22.408  0.00  0.00    +0.000 A 
ENDBRANCH   8  16
ENDBRANCH   1   9
BRANCH   3  19
ATOM     19  S   UNL     1       6.539   5.215  18.147  0.00  0.00    +0.000 S 
ATOM     20  O   UNL     1       6.453   6.665  18.179  0.00  0.00    +0.000 OA
ATOM     21  O   UNL     1       7.731   4.553  18.645  0.00  0.00    +0.000 OA
BRANCH  19  22
ATOM     22  C   UNL     1       6.314   4.714  16.460  0.00  0.00    +0.000 A 
ATOM     23  C   UNL     1       5.080   4.198  16.053  0.00  0.00    +0.000 A 
ATOM     24  C   UNL     1       4.868   3.907  14.706  0.00  0.00    +0.000 A 
ATOM     25  C   UNL     1       5.878   4.145  13.773  0.00  0.00    +0.000 A 
ATOM     26  C   UNL     1       7.105   4.669  14.183  0.00  0.00    +0.000 A 
ATOM     27  C   UNL     1       7.328   4.960  15.529  0.00  0.00    +0.000 A 
ENDBRANCH  19  22
ENDBRANCH   3  19
TORSDOF 4
ENDMDL
MODEL 9
REMARK VINA RESULT:      -8.6      1.775      2.191
REMARK  Name = 
REMARK  5 active torsions:
REMARK  status: ('A' for Active; 'I' for Inactive)
REMARK    1  A    between atoms: C_1  and  C_2
REMARK    2  A    between atoms: C_5  and  N_6
REMARK    3  A    between atoms: C_7  and  C_9
REMARK    4  A    between atoms: C_11  and  S_12
REMARK    5  A    between atoms: S_12  and  C_15
REMARK                            x       y       z     vdW  Elec       q    Type
REMARK                         _______ _______ _______ _____ _____    ______ ____
ROOT
ATOM      1  C   UNL     1       2.987   4.902  19.970  0.00  0.00    +0.000 A 
ATOM      2  C   UNL     1       4.180   5.416  19.408  0.00  0.00    +0.000 A 
ATOM      3  C   UNL     1       5.244   4.575  19.062  0.00  0.00    +0.000 A 
ATOM      4  C   UNL     1       5.159   3.207  19.311  0.00  0.00    +0.000 A 
ATOM      5  C   UNL     1       3.975   2.681  19.827  0.00  0.00    +0.000 A 
ATOM      6  C   UNL     1       2.878   3.511  20.118  0.00  0.00    +0.000 A 
ATOM      7 CL   UNL     1       1.423   2.691  20.565  0.00  0.00    +0.000 Cl
ENDROOT
BRANCH   1   9
ATOM      8  N   UNL     1       2.296   7.271  20.282  0.00  0.00    +0.000 N 
ATOM      9  C   UNL     1       1.952   5.930  20.330  0.00  0.00    +0.000 C 
ATOM     10  O   UNL     1       0.838   5.503  20.622  0.00  0.00    +0.000 OA
ATOM     11  H   UNL     1       3.250   7.505  20.044  0.00  0.00    +0.000 HD
BRANCH   8  16
ATOM     12  C   UNL     1      -0.758  11.944  21.605  0.00  0.00    +0.000 C 
ATOM     13  C   UNL     1      -0.035  10.678  21.262  0.00  0.00    +0.000 A 
ATOM     14  C   UNL     1       0.377   9.805  22.270  0.00  0.00    +0.000 A 
ATOM     15  C   UNL     1       1.117   8.661  21.960  0.00  0.00    +0.000 A 
ATOM     16  C   UNL     1       1.472   8.367  20.644  0.00  0.00    +0.000 A 
ATOM     17  C   UNL     1       1.017   9.213  19.626  0.00  0.00    +0.000 A 
ATOM     18  C   UNL     1       0.276  10.366  19.934  0.00  0.00    +0.000 A 
ENDBRANCH   8  16
ENDBRANCH   1   9
BRANCH   3  19
ATOM     19  S   UNL     1       6.603   5.209  18.101  0.00  0.00    +0.000 S 
ATOM     20  O   UNL     1       6.575   6.654  18.251  0.00  0.00    +0.000 OA
ATOM     21  O   UNL     1       7.787   4.468  18.495  0.00  0.00    +0.000 OA
BRANCH  19  22
ATOM     22  C   UNL     1       6.294   4.854  16.391  0.00  0.00    +0.000 A 
ATOM     23  C   UNL     1       7.307   5.062  15.450  0.00  0.00    +0.000 A 
ATOM     24  C   UNL     1       7.101   4.681  14.124  0.00  0.00    +0.000 A 
ATOM     25  C   UNL     1       5.898   4.084  13.748  0.00  0.00    +0.000 A 
ATOM     26  C   UNL     1       4.892   3.871  14.693  0.00  0.00    +0.000 A 
ATOM     27  C   UNL     1       5.088   4.252  16.020  0.00  0.00    +0.000 A 
ENDBRANCH  19  22
ENDBRANCH   3  19
TORSDOF 4
ENDMDL
