MODEL 1
REMARK VINA RESULT:      -8.4      0.000      0.000
REMARK  Name = 
REMARK  7 active torsions:
REMARK  status: ('A' for Active; 'I' for Inactive)
REMARK    1  A    between atoms: C_1  and  O_2
REMARK    2  A    between atoms: O_2  and  C_3
REMARK    3  A    between atoms: C_3  and  C_5
REMARK    4  A    between atoms: C_5  and  C_6
REMARK    5  A    between atoms: C_5  and  C_7
REMARK    6  A    between atoms: C_5  and  S_20
REMARK    7  A    between atoms: S_20  and  C_23
REMARK                            x       y       z     vdW  Elec       q    Type
REMARK                         _______ _______ _______ _____ _____    ______ ____
ROOT
ATOM      1  C   UNL     1       2.949   4.892  19.019  0.00  0.00    +0.000 C 
ATOM      2  C   UNL     1       3.156   4.331  20.447  0.00  0.00    +0.000 C 
ENDROOT
BRANCH   1   3
ATOM      3  C   UNL     1       2.941   6.442  19.051  0.00  0.00    +0.000 C 
ATOM      4  C   UNL     1       2.550   7.196  17.709  0.00  0.00    +0.000 C 
ATOM      5  C   UNL     1       1.917   8.408  18.263  0.00  0.00    +0.000 A 
ATOM      6  N   UNL     1       1.541   9.604  17.753  0.00  0.00    +0.000 N 
ATOM      7  C   UNL     1       0.970  10.346  18.784  0.00  0.00    +0.000 A 
ATOM      8  C   UNL     1       0.426  11.636  18.767  0.00  0.00    +0.000 A 
ATOM      9  C   UNL     1      -0.105  12.131  19.965  0.00  0.00    +0.000 A 
ATOM     10  C   UNL     1      -0.084  11.366  21.129  0.00  0.00    +0.000 A 
ATOM     11 CL   UNL     1      -0.756  12.010  22.579  0.00  0.00    +0.000 Cl
ATOM     12  C   UNL     1       0.468  10.082  21.144  0.00  0.00    +0.000 A 
ATOM     13  C   UNL     1       1.004   9.561  19.952  0.00  0.00    +0.000 A 
ATOM     14  C   UNL     1       1.620   8.354  19.592  0.00  0.00    +0.000 A 
ATOM     15  C   UNL     1       2.015   7.064  20.185  0.00  0.00    +0.000 C 
ATOM     16  H   UNL     1       1.640   9.917  16.797  0.00  0.00    +0.000 HD
ENDBRANCH   1   3
BRANCH   1  17
ATOM     17  S   UNL     1       4.261   4.229  17.942  0.00  0.00    +0.000 S 
ATOM     18  O   UNL     1       4.679   2.939  18.462  0.00  0.00    +0.000 OA
ATOM     19  O   UNL     1       3.893   4.367  16.545  0.00  0.00    +0.000 OA
BRANCH  17  20
ATOM     20  C   UNL     1       5.677   5.308  18.164  0.00  0.00    +0.000 A 
ATOM     21  C   UNL     1       6.528   5.108  19.258  0.00  0.00    +0.000 A 
ATOM     22  C   UNL     1       7.661   5.907  19.406  0.00  0.00    +0.000 A 
ATOM     23  C   UNL     1       7.956   6.884  18.455  0.00  0.00    +0.000 A 
ATOM     24  C   UNL     1       7.125   7.058  17.347  0.00  0.00    +0.000 A 
ATOM     25  C   UNL     1       5.985   6.264  17.193  0.00  0.00    +0.000 A 
ENDBRANCH  17  20
ENDBRANCH   1  17
BRANCH   1  26
ATOM     26  C   UNL     1       1.650   4.349  18.422  0.00  0.00    +0.000 C 
ATOM     27  O   UNL     1       1.183   4.652  17.334  0.00  0.00    +0.000 OA
BRANCH  26  29
ATOM     28  C   UNL     1       0.760   2.203  18.834  0.00  0.00    +0.000 C 
ATOM     29  O   UNL     1       1.004   3.529  19.307  0.00  0.00    +0.000 OA
ENDBRANCH  26  29
ENDBRANCH   1  26
TORSDOF 5
ENDMDL
MODEL 2
REMARK VINA RESULT:      -8.1      2.874      4.534
REMARK  Name = 
REMARK  7 active torsions:
REMARK  status: ('A' for Active; 'I' for Inactive)
REMARK    1  A    between atoms: C_1  and  O_2
REMARK    2  A    between atoms: O_2  and  C_3
REMARK    3  A    between atoms: C_3  and  C_5
REMARK    4  A    between atoms: C_5  and  C_6
REMARK    5  A    between atoms: C_5  and  C_7
REMARK    6  A    between atoms: C_5  and  S_20
REMARK    7  A    between atoms: S_20  and  C_23
REMARK                            x       y       z     vdW  Elec       q    Type
REMARK                         _______ _______ _______ _____ _____    ______ ____
ROOT
ATOM      1  C   UNL     1       5.285   6.112  16.678  0.00  0.00    +0.000 C 
ATOM      2  C   UNL     1       5.184   6.877  15.336  0.00  0.00    +0.000 C 
ENDROOT
BRANCH   1   3
ATOM      3  C   UNL     1       3.943   6.207  17.448  0.00  0.00    +0.000 C 
ATOM      4  C   UNL     1       3.925   5.686  18.949  0.00  0.00    +0.000 C 
ATOM      5  C   UNL     1       2.904   6.581  19.526  0.00  0.00    +0.000 A 
ATOM      6  N   UNL     1       2.195   6.598  20.679  0.00  0.00    +0.000 N 
ATOM      7  C   UNL     1       1.382   7.728  20.661  0.00  0.00    +0.000 A 
ATOM      8  C   UNL     1       0.471   8.194  21.618  0.00  0.00    +0.000 A 
ATOM      9  C   UNL     1      -0.206   9.388  21.342  0.00  0.00    +0.000 A 
ATOM     10  C   UNL     1       0.017  10.080  20.153  0.00  0.00    +0.000 A 
ATOM     11 CL   UNL     1      -0.830  11.550  19.856  0.00  0.00    +0.000 Cl
ATOM     12  C   UNL     1       0.921   9.607  19.196  0.00  0.00    +0.000 A 
ATOM     13  C   UNL     1       1.616   8.412  19.453  0.00  0.00    +0.000 A 
ATOM     14  C   UNL     1       2.568   7.655  18.757  0.00  0.00    +0.000 A 
ATOM     15  C   UNL     1       3.320   7.671  17.490  0.00  0.00    +0.000 C 
ATOM     16  H   UNL     1       2.242   5.926  21.433  0.00  0.00    +0.000 HD
ENDBRANCH   1   3
BRANCH   1  17
ATOM     17  S   UNL     1       5.759   4.388  16.326  0.00  0.00    +0.000 S 
ATOM     18  O   UNL     1       6.978   4.085  17.054  0.00  0.00    +0.000 OA
ATOM     19  O   UNL     1       4.608   3.510  16.436  0.00  0.00    +0.000 OA
BRANCH  17  20
ATOM     20  C   UNL     1       6.221   4.344  14.594  0.00  0.00    +0.000 A 
ATOM     21  C   UNL     1       7.376   5.014  14.173  0.00  0.00    +0.000 A 
ATOM     22  C   UNL     1       7.772   4.938  12.838  0.00  0.00    +0.000 A 
ATOM     23  C   UNL     1       7.031   4.179  11.933  0.00  0.00    +0.000 A 
ATOM     24  C   UNL     1       5.899   3.484  12.361  0.00  0.00    +0.000 A 
ATOM     25  C   UNL     1       5.493   3.557  13.696  0.00  0.00    +0.000 A 
ENDBRANCH  17  20
ENDBRANCH   1  17
BRANCH   1  26
ATOM     26  C   UNL     1       6.439   6.665  17.515  0.00  0.00    +0.000 C 
ATOM     27  O   UNL     1       6.745   6.297  18.641  0.00  0.00    +0.000 OA
BRANCH  26  29
ATOM     28  C   UNL     1       7.923   8.489  17.705  0.00  0.00    +0.000 C 
ATOM     29  O   UNL     1       7.053   7.710  16.882  0.00  0.00    +0.000 OA
ENDBRANCH  26  29
ENDBRANCH   1  26
TORSDOF 5
ENDMDL
MODEL 3
REMARK VINA RESULT:      -8.0      2.133      4.286
REMARK  Name = 
REMARK  7 active torsions:
REMARK  status: ('A' for Active; 'I' for Inactive)
REMARK    1  A    between atoms: C_1  and  O_2
REMARK    2  A    between atoms: O_2  and  C_3
REMARK    3  A    between atoms: C_3  and  C_5
REMARK    4  A    between atoms: C_5  and  C_6
REMARK    5  A    between atoms: C_5  and  C_7
REMARK    6  A    between atoms: C_5  and  S_20
REMARK    7  A    between atoms: S_20  and  C_23
REMARK                            x       y       z     vdW  Elec       q    Type
REMARK                         _______ _______ _______ _____ _____    ______ ____
ROOT
ATOM      1  C   UNL     1       4.990   6.090  16.885  0.00  0.00    +0.000 C 
ATOM      2  C   UNL     1       5.001   6.816  15.517  0.00  0.00    +0.000 C 
ENDROOT
BRANCH   1   3
ATOM      3  C   UNL     1       3.658   6.372  17.627  0.00  0.00    +0.000 C 
ATOM      4  C   UNL     1       3.672   6.274  19.212  0.00  0.00    +0.000 C 
ATOM      5  C   UNL     1       2.644   7.277  19.547  0.00  0.00    +0.000 A 
ATOM      6  N   UNL     1       1.953   7.595  20.667  0.00  0.00    +0.000 N 
ATOM      7  C   UNL     1       1.120   8.668  20.362  0.00  0.00    +0.000 A 
ATOM      8  C   UNL     1       0.216   9.363  21.177  0.00  0.00    +0.000 A 
ATOM      9  C   UNL     1      -0.486  10.430  20.602  0.00  0.00    +0.000 A 
ATOM     10  C   UNL     1      -0.293  10.779  19.268  0.00  0.00    +0.000 A 
ATOM     11 CL   UNL     1      -1.170  12.105  18.603  0.00  0.00    +0.000 Cl
ATOM     12  C   UNL     1       0.604  10.079  18.456  0.00  0.00    +0.000 A 
ATOM     13  C   UNL     1       1.324   9.005  19.011  0.00  0.00    +0.000 A 
ATOM     14  C   UNL     1       2.278   8.100  18.525  0.00  0.00    +0.000 A 
ATOM     15  C   UNL     1       3.010   7.785  17.286  0.00  0.00    +0.000 C 
ATOM     16  H   UNL     1       2.023   7.151  21.572  0.00  0.00    +0.000 HD
ENDBRANCH   1   3
BRANCH   1  17
ATOM     17  S   UNL     1       5.257   4.311  16.597  0.00  0.00    +0.000 S 
ATOM     18  O   UNL     1       4.838   3.993  15.244  0.00  0.00    +0.000 OA
ATOM     19  O   UNL     1       6.570   3.910  17.066  0.00  0.00    +0.000 OA
BRANCH  17  20
ATOM     20  C   UNL     1       4.095   3.456  17.663  0.00  0.00    +0.000 A 
ATOM     21  C   UNL     1       4.492   3.081  18.952  0.00  0.00    +0.000 A 
ATOM     22  C   UNL     1       3.577   2.467  19.806  0.00  0.00    +0.000 A 
ATOM     23  C   UNL     1       2.266   2.250  19.385  0.00  0.00    +0.000 A 
ATOM     24  C   UNL     1       1.862   2.656  18.111  0.00  0.00    +0.000 A 
ATOM     25  C   UNL     1       2.773   3.269  17.248  0.00  0.00    +0.000 A 
ENDBRANCH  17  20
ENDBRANCH   1  17
BRANCH   1  26
ATOM     26  C   UNL     1       6.189   6.529  17.725  0.00  0.00    +0.000 C 
ATOM     27  O   UNL     1       6.554   6.015  18.772  0.00  0.00    +0.000 OA
BRANCH  26  29
ATOM     28  C   UNL     1       7.976   8.064  17.857  0.00  0.00    +0.000 C 
ATOM     29  O   UNL     1       6.773   7.651  17.205  0.00  0.00    +0.000 OA
ENDBRANCH  26  29
ENDBRANCH   1  26
TORSDOF 5
ENDMDL
MODEL 4
REMARK VINA RESULT:      -7.7      0.903      1.327
REMARK  Name = 
REMARK  7 active torsions:
REMARK  status: ('A' for Active; 'I' for Inactive)
REMARK    1  A    between atoms: C_1  and  O_2
REMARK    2  A    between atoms: O_2  and  C_3
REMARK    3  A    between atoms: C_3  and  C_5
REMARK    4  A    between atoms: C_5  and  C_6
REMARK    5  A    between atoms: C_5  and  C_7
REMARK    6  A    between atoms: C_5  and  S_20
REMARK    7  A    between atoms: S_20  and  C_23
REMARK                            x       y       z     vdW  Elec       q    Type
REMARK                         _______ _______ _______ _____ _____    ______ ____
ROOT
ATOM      1  C   UNL     1       2.795   4.188  19.450  0.00  0.00    +0.000 C 
ATOM      2  C   UNL     1       2.447   3.729  20.886  0.00  0.00    +0.000 C 
ENDROOT
BRANCH   1   3
ATOM      3  C   UNL     1       2.968   5.728  19.409  0.00  0.00    +0.000 C 
ATOM      4  C   UNL     1       2.800   6.443  18.000  0.00  0.00    +0.000 C 
ATOM      5  C   UNL     1       2.264   7.748  18.430  0.00  0.00    +0.000 A 
ATOM      6  N   UNL     1       2.083   8.948  17.829  0.00  0.00    +0.000 N 
ATOM      7  C   UNL     1       1.506   9.808  18.760  0.00  0.00    +0.000 A 
ATOM      8  C   UNL     1       1.121  11.148  18.628  0.00  0.00    +0.000 A 
ATOM      9  C   UNL     1       0.539  11.768  19.740  0.00  0.00    +0.000 A 
ATOM     10  C   UNL     1       0.356  11.074  20.934  0.00  0.00    +0.000 A 
ATOM     11 CL   UNL     1      -0.373  11.872  22.276  0.00  0.00    +0.000 Cl
ATOM     12  C   UNL     1       0.749   9.739  21.066  0.00  0.00    +0.000 A 
ATOM     13  C   UNL     1       1.333   9.092  19.961  0.00  0.00    +0.000 A 
ATOM     14  C   UNL     1       1.834   7.806  19.722  0.00  0.00    +0.000 A 
ATOM     15  C   UNL     1       2.015   6.516  20.411  0.00  0.00    +0.000 C 
ATOM     16  H   UNL     1       2.311   9.192  16.875  0.00  0.00    +0.000 HD
ENDBRANCH   1   3
BRANCH   1  17
ATOM     17  S   UNL     1       4.299   3.310  18.912  0.00  0.00    +0.000 S 
ATOM     18  O   UNL     1       4.995   2.821  20.088  0.00  0.00    +0.000 OA
ATOM     19  O   UNL     1       3.998   2.408  17.815  0.00  0.00    +0.000 OA
BRANCH  17  20
ATOM     20  C   UNL     1       5.378   4.559  18.211  0.00  0.00    +0.000 A 
ATOM     21  C   UNL     1       5.259   4.889  16.855  0.00  0.00    +0.000 A 
ATOM     22  C   UNL     1       6.056   5.899  16.317  0.00  0.00    +0.000 A 
ATOM     23  C   UNL     1       6.950   6.592  17.133  0.00  0.00    +0.000 A 
ATOM     24  C   UNL     1       7.043   6.285  18.492  0.00  0.00    +0.000 A 
ATOM     25  C   UNL     1       6.251   5.273  19.038  0.00  0.00    +0.000 A 
ENDBRANCH  17  20
ENDBRANCH   1  17
BRANCH   1  26
ATOM     26  C   UNL     1       1.712   3.731  18.472  0.00  0.00    +0.000 C 
ATOM     27  O   UNL     1       1.672   3.991  17.278  0.00  0.00    +0.000 OA
BRANCH  26  29
ATOM     28  C   UNL     1       0.678   1.648  18.869  0.00  0.00    +0.000 C 
ATOM     29  O   UNL     1       0.716   3.054  19.120  0.00  0.00    +0.000 OA
ENDBRANCH  26  29
ENDBRANCH   1  26
TORSDOF 5
ENDMDL
MODEL 5
REMARK VINA RESULT:      -7.7      1.365      1.975
REMARK  Name = 
REMARK  7 active torsions:
REMARK  status: ('A' for Active; 'I' for Inactive)
REMARK    1  A    between atoms: C_1  and  O_2
REMARK    2  A    between atoms: O_2  and  C_3
REMARK    3  A    between atoms: C_3  and  C_5
REMARK    4  A    between atoms: C_5  and  C_6
REMARK    5  A    between atoms: C_5  and  C_7
REMARK    6  A    between atoms: C_5  and  S_20
REMARK    7  A    between atoms: S_20  and  C_23
REMARK                            x       y       z     vdW  Elec       q    Type
REMARK                         _______ _______ _______ _____ _____    ______ ____
ROOT
ATOM      1  C   UNL     1       3.097   5.123  19.494  0.00  0.00    +0.000 C 
ATOM      2  C   UNL     1       2.675   4.579  20.880  0.00  0.00    +0.000 C 
ENDROOT
BRANCH   1   3
ATOM      3  C   UNL     1       2.930   6.664  19.453  0.00  0.00    +0.000 C 
ATOM      4  C   UNL     1       2.560   7.320  18.054  0.00  0.00    +0.000 C 
ATOM      5  C   UNL     1       1.770   8.480  18.509  0.00  0.00    +0.000 A 
ATOM      6  N   UNL     1       1.311   9.610  17.920  0.00  0.00    +0.000 N 
ATOM      7  C   UNL     1       0.596  10.327  18.875  0.00  0.00    +0.000 A 
ATOM      8  C   UNL     1      -0.074  11.552  18.763  0.00  0.00    +0.000 A 
ATOM      9  C   UNL     1      -0.736  12.035  19.898  0.00  0.00    +0.000 A 
ATOM     10  C   UNL     1      -0.720  11.323  21.095  0.00  0.00    +0.000 A 
ATOM     11 CL   UNL     1      -1.555  11.949  22.466  0.00  0.00    +0.000 Cl
ATOM     12  C   UNL     1      -0.043  10.105  21.207  0.00  0.00    +0.000 A 
ATOM     13  C   UNL     1       0.627   9.596  20.079  0.00  0.00    +0.000 A 
ATOM     14  C   UNL     1       1.386   8.448  19.816  0.00  0.00    +0.000 A 
ATOM     15  C   UNL     1       1.867   7.230  20.493  0.00  0.00    +0.000 C 
ATOM     16  H   UNL     1       1.446   9.893  16.959  0.00  0.00    +0.000 HD
ENDBRANCH   1   3
BRANCH   1  17
ATOM     17  S   UNL     1       4.814   4.606  19.169  0.00  0.00    +0.000 S 
ATOM     18  O   UNL     1       5.711   5.576  19.770  0.00  0.00    +0.000 OA
ATOM     19  O   UNL     1       4.981   3.191  19.444  0.00  0.00    +0.000 OA
BRANCH  17  20
ATOM     20  C   UNL     1       5.055   4.773  17.399  0.00  0.00    +0.000 A 
ATOM     21  C   UNL     1       5.216   6.048  16.845  0.00  0.00    +0.000 A 
ATOM     22  C   UNL     1       5.460   6.182  15.478  0.00  0.00    +0.000 A 
ATOM     23  C   UNL     1       5.566   5.048  14.674  0.00  0.00    +0.000 A 
ATOM     24  C   UNL     1       5.440   3.776  15.235  0.00  0.00    +0.000 A 
ATOM     25  C   UNL     1       5.192   3.632  16.602  0.00  0.00    +0.000 A 
ENDBRANCH  17  20
ENDBRANCH   1  17
BRANCH   1  26
ATOM     26  C   UNL     1       2.277   4.453  18.391  0.00  0.00    +0.000 C 
ATOM     27  O   UNL     1       1.649   5.032  17.516  0.00  0.00    +0.000 OA
BRANCH  26  29
ATOM     28  C   UNL     1       0.945   2.523  18.647  0.00  0.00    +0.000 C 
ATOM     29  O   UNL     1       2.251   3.095  18.551  0.00  0.00    +0.000 OA
ENDBRANCH  26  29
ENDBRANCH   1  26
TORSDOF 5
ENDMDL
MODEL 6
REMARK VINA RESULT:      -7.7      1.822      4.295
REMARK  Name = 
REMARK  7 active torsions:
REMARK  status: ('A' for Active; 'I' for Inactive)
REMARK    1  A    between atoms: C_1  and  O_2
REMARK    2  A    between atoms: O_2  and  C_3
REMARK    3  A    between atoms: C_3  and  C_5
REMARK    4  A    between atoms: C_5  and  C_6
REMARK    5  A    between atoms: C_5  and  C_7
REMARK    6  A    between atoms: C_5  and  S_20
REMARK    7  A    between atoms: S_20  and  C_23
REMARK                            x       y       z     vdW  Elec       q    Type
REMARK                         _______ _______ _______ _____ _____    ______ ____
ROOT
ATOM      1  C   UNL     1       4.659   5.931  17.401  0.00  0.00    +0.000 C 
ATOM      2  C   UNL     1       4.959   6.698  16.089  0.00  0.00    +0.000 C 
ENDROOT
BRANCH   1   3
ATOM      3  C   UNL     1       3.311   6.407  18.000  0.00  0.00    +0.000 C 
ATOM      4  C   UNL     1       3.147   6.331  19.578  0.00  0.00    +0.000 C 
ATOM      5  C   UNL     1       2.241   7.472  19.804  0.00  0.00    +0.000 A 
ATOM      6  N   UNL     1       1.489   7.900  20.845  0.00  0.00    +0.000 N 
ATOM      7  C   UNL     1       0.850   9.074  20.455  0.00  0.00    +0.000 A 
ATOM      8  C   UNL     1      -0.027   9.899  21.170  0.00  0.00    +0.000 A 
ATOM      9  C   UNL     1      -0.510  11.045  20.526  0.00  0.00    +0.000 A 
ATOM     10  C   UNL     1      -0.133  11.344  19.218  0.00  0.00    +0.000 A 
ATOM     11 CL   UNL     1      -0.743  12.769  18.465  0.00  0.00    +0.000 Cl
ATOM     12  C   UNL     1       0.736  10.514  18.504  0.00  0.00    +0.000 A 
ATOM     13  C   UNL     1       1.238   9.359  19.132  0.00  0.00    +0.000 A 
ATOM     14  C   UNL     1       2.101   8.323  18.749  0.00  0.00    +0.000 A 
ATOM     15  C   UNL     1       2.906   7.891  17.592  0.00  0.00    +0.000 C 
ATOM     16  H   UNL     1       1.403   7.464  21.753  0.00  0.00    +0.000 HD
ENDBRANCH   1   3
BRANCH   1  17
ATOM     17  S   UNL     1       4.664   4.145  17.040  0.00  0.00    +0.000 S 
ATOM     18  O   UNL     1       4.145   3.943  15.698  0.00  0.00    +0.000 OA
ATOM     19  O   UNL     1       5.928   3.549  17.430  0.00  0.00    +0.000 OA
BRANCH  17  20
ATOM     20  C   UNL     1       3.442   3.416  18.132  0.00  0.00    +0.000 A 
ATOM     21  C   UNL     1       2.123   3.266  17.687  0.00  0.00    +0.000 A 
ATOM     22  C   UNL     1       1.182   2.649  18.509  0.00  0.00    +0.000 A 
ATOM     23  C   UNL     1       1.560   2.163  19.760  0.00  0.00    +0.000 A 
ATOM     24  C   UNL     1       2.884   2.282  20.189  0.00  0.00    +0.000 A 
ATOM     25  C   UNL     1       3.833   2.902  19.372  0.00  0.00    +0.000 A 
ENDBRANCH  17  20
ENDBRANCH   1  17
BRANCH   1  26
ATOM     26  C   UNL     1       5.802   6.125  18.398  0.00  0.00    +0.000 C 
ATOM     27  O   UNL     1       5.854   5.653  19.525  0.00  0.00    +0.000 OA
BRANCH  26  29
ATOM     28  C   UNL     1       8.036   6.874  18.510  0.00  0.00    +0.000 C 
ATOM     29  O   UNL     1       6.745   6.986  17.908  0.00  0.00    +0.000 OA
ENDBRANCH  26  29
ENDBRANCH   1  26
TORSDOF 5
ENDMDL
MODEL 7
REMARK VINA RESULT:      -7.6      1.793      4.141
REMARK  Name = 
REMARK  7 active torsions:
REMARK  status: ('A' for Active; 'I' for Inactive)
REMARK    1  A    between atoms: C_1  and  O_2
REMARK    2  A    between atoms: O_2  and  C_3
REMARK    3  A    between atoms: C_3  and  C_5
REMARK    4  A    between atoms: C_5  and  C_6
REMARK    5  A    between atoms: C_5  and  C_7
REMARK    6  A    between atoms: C_5  and  S_20
REMARK    7  A    between atoms: S_20  and  C_23
REMARK                            x       y       z     vdW  Elec       q    Type
REMARK                         _______ _______ _______ _____ _____    ______ ____
ROOT
ATOM      1  C   UNL     1       3.906   5.595  17.789  0.00  0.00    +0.000 C 
ATOM      2  C   UNL     1       4.258   6.179  16.399  0.00  0.00    +0.000 C 
ENDROOT
BRANCH   1   3
ATOM      3  C   UNL     1       2.688   6.343  18.389  0.00  0.00    +0.000 C 
ATOM      4  C   UNL     1       2.629   6.487  19.970  0.00  0.00    +0.000 C 
ATOM      5  C   UNL     1       1.919   7.775  20.090  0.00  0.00    +0.000 A 
ATOM      6  N   UNL     1       1.314   8.438  21.103  0.00  0.00    +0.000 N 
ATOM      7  C   UNL     1       0.828   9.640  20.595  0.00  0.00    +0.000 A 
ATOM      8  C   UNL     1       0.135  10.672  21.240  0.00  0.00    +0.000 A 
ATOM      9  C   UNL     1      -0.219  11.791  20.476  0.00  0.00    +0.000 A 
ATOM     10  C   UNL     1       0.102  11.865  19.122  0.00  0.00    +0.000 A 
ATOM     11 CL   UNL     1      -0.344  13.264  18.220  0.00  0.00    +0.000 Cl
ATOM     12  C   UNL     1       0.787  10.829  18.480  0.00  0.00    +0.000 A 
ATOM     13  C   UNL     1       1.157   9.696  19.228  0.00  0.00    +0.000 A 
ATOM     14  C   UNL     1       1.829   8.501  18.940  0.00  0.00    +0.000 A 
ATOM     15  C   UNL     1       2.477   7.810  17.811  0.00  0.00    +0.000 C 
ATOM     16  H   UNL     1       1.230   8.136  22.064  0.00  0.00    +0.000 HD
ENDBRANCH   1   3
BRANCH   1  17
ATOM     17  S   UNL     1       3.597   3.808  17.602  0.00  0.00    +0.000 S 
ATOM     18  O   UNL     1       2.666   3.613  16.505  0.00  0.00    +0.000 OA
ATOM     19  O   UNL     1       4.844   3.068  17.641  0.00  0.00    +0.000 OA
BRANCH  17  20
ATOM     20  C   UNL     1       2.704   3.304  19.074  0.00  0.00    +0.000 A 
ATOM     21  C   UNL     1       3.419   2.896  20.206  0.00  0.00    +0.000 A 
ATOM     22  C   UNL     1       2.733   2.556  21.372  0.00  0.00    +0.000 A 
ATOM     23  C   UNL     1       1.342   2.647  21.414  0.00  0.00    +0.000 A 
ATOM     24  C   UNL     1       0.633   3.087  20.296  0.00  0.00    +0.000 A 
ATOM     25  C   UNL     1       1.312   3.426  19.122  0.00  0.00    +0.000 A 
ENDBRANCH  17  20
ENDBRANCH   1  17
BRANCH   1  26
ATOM     26  C   UNL     1       5.116   5.681  18.719  0.00  0.00    +0.000 C 
ATOM     27  O   UNL     1       5.132   5.368  19.901  0.00  0.00    +0.000 OA
BRANCH  26  29
ATOM     28  C   UNL     1       7.464   5.751  18.494  0.00  0.00    +0.000 C 
ATOM     29  O   UNL     1       6.188   6.248  18.085  0.00  0.00    +0.000 OA
ENDBRANCH  26  29
ENDBRANCH   1  26
TORSDOF 5
ENDMDL
MODEL 8
REMARK VINA RESULT:      -7.6      1.556      1.872
REMARK  Name = 
REMARK  7 active torsions:
REMARK  status: ('A' for Active; 'I' for Inactive)
REMARK    1  A    between atoms: C_1  and  O_2
REMARK    2  A    between atoms: O_2  and  C_3
REMARK    3  A    between atoms: C_3  and  C_5
REMARK    4  A    between atoms: C_5  and  C_6
REMARK    5  A    between atoms: C_5  and  C_7
REMARK    6  A    between atoms: C_5  and  S_20
REMARK    7  A    between atoms: S_20  and  C_23
REMARK                            x       y       z     vdW  Elec       q    Type
REMARK                         _______ _______ _______ _____ _____    ______ ____
ROOT
ATOM      1  C   UNL     1       3.284   3.707  19.248  0.00  0.00    +0.000 C 
ATOM      2  C   UNL     1       4.408   3.117  20.134  0.00  0.00    +0.000 C 
ENDROOT
BRANCH   1   3
ATOM      3  C   UNL     1       3.302   5.256  19.325  0.00  0.00    +0.000 C 
ATOM      4  C   UNL     1       2.990   6.055  17.988  0.00  0.00    +0.000 C 
ATOM      5  C   UNL     1       2.352   7.262  18.547  0.00  0.00    +0.000 A 
ATOM      6  N   UNL     1       2.022   8.480  18.055  0.00  0.00    +0.000 N 
ATOM      7  C   UNL     1       1.414   9.202  19.079  0.00  0.00    +0.000 A 
ATOM      8  C   UNL     1       0.894  10.502  19.073  0.00  0.00    +0.000 A 
ATOM      9  C   UNL     1       0.313  10.973  20.258  0.00  0.00    +0.000 A 
ATOM     10  C   UNL     1       0.265  10.175  21.398  0.00  0.00    +0.000 A 
ATOM     11 CL   UNL     1      -0.467  10.789  22.833  0.00  0.00    +0.000 Cl
ATOM     12  C   UNL     1       0.793   8.880  21.403  0.00  0.00    +0.000 A 
ATOM     13  C   UNL     1       1.377   8.383  20.223  0.00  0.00    +0.000 A 
ATOM     14  C   UNL     1       1.989   7.177  19.858  0.00  0.00    +0.000 A 
ATOM     15  C   UNL     1       2.332   5.863  20.431  0.00  0.00    +0.000 C 
ATOM     16  H   UNL     1       2.173   8.817  17.114  0.00  0.00    +0.000 HD
ENDBRANCH   1   3
BRANCH   1  17
ATOM     17  S   UNL     1       3.510   3.097  17.545  0.00  0.00    +0.000 S 
ATOM     18  O   UNL     1       3.897   1.699  17.603  0.00  0.00    +0.000 OA
ATOM     19  O   UNL     1       2.404   3.513  16.704  0.00  0.00    +0.000 OA
BRANCH  17  20
ATOM     20  C   UNL     1       4.944   3.958  16.898  0.00  0.00    +0.000 A 
ATOM     21  C   UNL     1       6.073   4.122  17.710  0.00  0.00    +0.000 A 
ATOM     22  C   UNL     1       7.211   4.741  17.195  0.00  0.00    +0.000 A 
ATOM     23  C   UNL     1       7.232   5.170  15.868  0.00  0.00    +0.000 A 
ATOM     24  C   UNL     1       6.119   4.973  15.049  0.00  0.00    +0.000 A 
ATOM     25  C   UNL     1       4.973   4.358  15.558  0.00  0.00    +0.000 A 
ENDBRANCH  17  20
ENDBRANCH   1  17
BRANCH   1  26
ATOM     26  C   UNL     1       1.926   3.152  19.678  0.00  0.00    +0.000 C 
ATOM     27  O   UNL     1       0.842   3.479  19.218  0.00  0.00    +0.000 OA
BRANCH  26  29
ATOM     28  C   UNL     1       1.305   2.635  21.895  0.00  0.00    +0.000 C 
ATOM     29  O   UNL     1       2.057   2.287  20.730  0.00  0.00    +0.000 OA
ENDBRANCH  26  29
ENDBRANCH   1  26
TORSDOF 5
ENDMDL
MODEL 9
REMARK VINA RESULT:      -7.6      2.011      3.741
REMARK  Name = 
REMARK  7 active torsions:
REMARK  status: ('A' for Active; 'I' for Inactive)
REMARK    1  A    between atoms: C_1  and  O_2
REMARK    2  A    between atoms: O_2  and  C_3
REMARK    3  A    between atoms: C_3  and  C_5
REMARK    4  A    between atoms: C_5  and  C_6
REMARK    5  A    between atoms: C_5  and  C_7
REMARK    6  A    between atoms: C_5  and  S_20
REMARK    7  A    between atoms: S_20  and  C_23
REMARK                            x       y       z     vdW  Elec       q    Type
REMARK                         _______ _______ _______ _____ _____    ______ ____
ROOT
ATOM      1  C   UNL     1       4.036   5.571  17.627  0.00  0.00    +0.000 C 
ATOM      2  C   UNL     1       2.770   4.807  17.169  0.00  0.00    +0.000 C 
ENDROOT
BRANCH   1   3
ATOM      3  C   UNL     1       3.654   6.992  18.114  0.00  0.00    +0.000 C 
ATOM      4  C   UNL     1       2.979   7.967  17.057  0.00  0.00    +0.000 C 
ATOM      5  C   UNL     1       2.119   8.768  17.949  0.00  0.00    +0.000 A 
ATOM      6  N   UNL     1       1.422   9.920  17.818  0.00  0.00    +0.000 N 
ATOM      7  C   UNL     1       0.777  10.168  19.027  0.00  0.00    +0.000 A 
ATOM      8  C   UNL     1      -0.065  11.225  19.395  0.00  0.00    +0.000 A 
ATOM      9  C   UNL     1      -0.598  11.208  20.690  0.00  0.00    +0.000 A 
ATOM     10  C   UNL     1      -0.292  10.178  21.577  0.00  0.00    +0.000 A 
ATOM     11 CL   UNL     1      -0.976  10.190  23.159  0.00  0.00    +0.000 Cl
ATOM     12  C   UNL     1       0.555   9.129  21.209  0.00  0.00    +0.000 A 
ATOM     13  C   UNL     1       1.099   9.121  19.912  0.00  0.00    +0.000 A 
ATOM     14  C   UNL     1       1.957   8.267  19.206  0.00  0.00    +0.000 A 
ATOM     15  C   UNL     1       2.703   7.009  19.389  0.00  0.00    +0.000 C 
ATOM     16  H   UNL     1       1.361  10.505  16.995  0.00  0.00    +0.000 HD
ENDBRANCH   1   3
BRANCH   1  17
ATOM     17  S   UNL     1       4.862   4.594  18.925  0.00  0.00    +0.000 S 
ATOM     18  O   UNL     1       5.654   3.557  18.290  0.00  0.00    +0.000 OA
ATOM     19  O   UNL     1       5.465   5.468  19.915  0.00  0.00    +0.000 OA
BRANCH  17  20
ATOM     20  C   UNL     1       3.558   3.725  19.797  0.00  0.00    +0.000 A 
ATOM     21  C   UNL     1       2.941   4.334  20.896  0.00  0.00    +0.000 A 
ATOM     22  C   UNL     1       1.889   3.688  21.544  0.00  0.00    +0.000 A 
ATOM     23  C   UNL     1       1.438   2.452  21.081  0.00  0.00    +0.000 A 
ATOM     24  C   UNL     1       2.031   1.862  19.963  0.00  0.00    +0.000 A 
ATOM     25  C   UNL     1       3.089   2.500  19.311  0.00  0.00    +0.000 A 
ENDBRANCH  17  20
ENDBRANCH   1  17
BRANCH   1  26
ATOM     26  C   UNL     1       5.054   5.636  16.488  0.00  0.00    +0.000 C 
ATOM     27  O   UNL     1       5.937   6.472  16.366  0.00  0.00    +0.000 OA
BRANCH  26  29
ATOM     28  C   UNL     1       5.940   4.258  14.790  0.00  0.00    +0.000 C 
ATOM     29  O   UNL     1       4.801   4.678  15.544  0.00  0.00    +0.000 OA
ENDBRANCH  26  29
ENDBRANCH   1  26
TORSDOF 5
ENDMDL
