MODEL 1
REMARK VINA RESULT:      -8.8      0.000      0.000
REMARK  Name = 
REMARK  7 active torsions:
REMARK  status: ('A' for Active; 'I' for Inactive)
REMARK    1  A    between atoms: C_1  and  O_2
REMARK    2  A    between atoms: O_2  and  C_3
REMARK    3  A    between atoms: C_6  and  C_7
REMARK    4  A    between atoms: N_9  and  C_10
REMARK    5  A    between atoms: C_15  and  C_16
REMARK    6  A    between atoms: C_26  and  C_27
REMARK    7  A    between atoms: C_27  and  N_28
REMARK                            x       y       z     vdW  Elec       q    Type
REMARK                         _______ _______ _______ _____ _____    ______ ____
ROOT
ATOM      1  C   UNL     1       1.856   6.603  19.678  0.00  0.00    +0.000 C 
ATOM      2  O   UNL     1       1.854   6.253  20.853  0.00  0.00    +0.000 OA
ATOM      3  N   UNL     1       2.023   5.761  18.594  0.00  0.00    +0.000 N 
ATOM      4  H   UNL     1       2.453   6.169  17.763  0.00  0.00    +0.000 HD
ENDROOT
BRANCH   1   8
ATOM      5  C   UNL     1       1.389  10.808  18.776  0.00  0.00    +0.000 A 
ATOM      6  C   UNL     1       1.921   9.955  17.804  0.00  0.00    +0.000 A 
ATOM      7  C   UNL     1       2.118   8.584  18.095  0.00  0.00    +0.000 A 
ATOM      8  C   UNL     1       1.786   8.065  19.358  0.00  0.00    +0.000 A 
ATOM      9  C   UNL     1       1.296   8.927  20.332  0.00  0.00    +0.000 A 
ATOM     10  C   UNL     1       1.106  10.304  20.067  0.00  0.00    +0.000 A 
BRANCH   5  12
ATOM     11  C   UNL     1       1.852  13.185  18.306  0.00  0.00    +0.000 C 
ATOM     12  O   UNL     1       1.009  12.107  18.638  0.00  0.00    +0.000 OA
ENDBRANCH   5  12
BRANCH  10  13
ATOM     13  C   UNL     1       0.558  11.215  21.146  0.00  0.00    +0.000 C 
BRANCH  13  14
ATOM     14  N   UNL     1      -0.869  11.030  21.416  0.00  0.00    +0.000 NA
ATOM     15  C   UNL     1      -1.718  11.811  20.501  0.00  0.00    +0.000 C 
ATOM     16  C   UNL     1      -2.016  13.259  20.931  0.00  0.00    +0.000 C 
ATOM     17  O   UNL     1      -2.453  13.348  22.289  0.00  0.00    +0.000 OA
ATOM     18  C   UNL     1      -1.517  12.733  23.179  0.00  0.00    +0.000 C 
ATOM     19  C   UNL     1      -1.272  11.264  22.812  0.00  0.00    +0.000 C 
ENDBRANCH  13  14
ENDBRANCH  10  13
ENDBRANCH   1   8
BRANCH   3  20
ATOM     20  C   UNL     1       2.148   4.345  18.690  0.00  0.00    +0.000 A 
ATOM     21  C   UNL     1       1.016   3.531  18.841  0.00  0.00    +0.000 A 
ATOM     22  C   UNL     1       1.133   2.137  18.814  0.00  0.00    +0.000 A 
ATOM     23  C   UNL     1       2.382   1.542  18.676  0.00  0.00    +0.000 A 
ATOM     24  C   UNL     1       3.521   2.339  18.562  0.00  0.00    +0.000 A 
ATOM     25  C   UNL     1       3.420   3.744  18.557  0.00  0.00    +0.000 A 
BRANCH  25  26
ATOM     26  C   UNL     1       4.636   4.553  18.427  0.00  0.00    +0.000 A 
ATOM     27  N   UNL     1       5.713   4.466  19.190  0.00  0.00    +0.000 NA
ATOM     28  C   UNL     1       6.537   5.488  18.790  0.00  0.00    +0.000 A 
ATOM     29  C   UNL     1       7.760   5.910  19.326  0.00  0.00    +0.000 A 
ATOM     30  C   UNL     1       8.387   7.027  18.763  0.00  0.00    +0.000 A 
ATOM     31  C   UNL     1       7.822   7.691  17.670  0.00  0.00    +0.000 A 
ATOM     32  C   UNL     1       6.615   7.266  17.104  0.00  0.00    +0.000 A 
ATOM     33  C   UNL     1       5.998   6.168  17.706  0.00  0.00    +0.000 A 
ATOM     34  N   UNL     1       4.819   5.516  17.458  0.00  0.00    +0.000 N 
ATOM     35  H   UNL     1       4.173   5.729  16.712  0.00  0.00    +0.000 HD
ENDBRANCH  25  26
ENDBRANCH   3  20
TORSDOF 6
ENDMDL
MODEL 2
REMARK VINA RESULT:      -8.8      2.774      9.165
REMARK  Name = 
REMARK  7 active torsions:
REMARK  status: ('A' for Active; 'I' for Inactive)
REMARK    1  A    between atoms: C_1  and  O_2
REMARK    2  A    between atoms: O_2  and  C_3
REMARK    3  A    between atoms: C_6  and  C_7
REMARK    4  A    between atoms: N_9  and  C_10
REMARK    5  A    between atoms: C_15  and  C_16
REMARK    6  A    between atoms: C_26  and  C_27
REMARK    7  A    between atoms: C_27  and  N_28
REMARK                            x       y       z     vdW  Elec       q    Type
REMARK                         _______ _______ _______ _____ _____    ______ ____
ROOT
ATOM      1  C   UNL     1       0.338   9.310  20.689  0.00  0.00    +0.000 C 
ATOM      2  O   UNL     1      -0.245   8.702  21.580  0.00  0.00    +0.000 OA
ATOM      3  N   UNL     1       0.147  10.644  20.375  0.00  0.00    +0.000 N 
ATOM      4  H   UNL     1       0.305  10.909  19.402  0.00  0.00    +0.000 HD
ENDROOT
BRANCH   1   8
ATOM      5  C   UNL     1       3.173   7.154  18.235  0.00  0.00    +0.000 A 
ATOM      6  C   UNL     1       2.665   8.375  17.780  0.00  0.00    +0.000 A 
ATOM      7  C   UNL     1       1.707   9.075  18.552  0.00  0.00    +0.000 A 
ATOM      8  C   UNL     1       1.254   8.555  19.775  0.00  0.00    +0.000 A 
ATOM      9  C   UNL     1       1.732   7.320  20.201  0.00  0.00    +0.000 A 
ATOM     10  C   UNL     1       2.679   6.597  19.438  0.00  0.00    +0.000 A 
BRANCH   5  12
ATOM     11  C   UNL     1       4.869   6.686  16.505  0.00  0.00    +0.000 C 
ATOM     12  O   UNL     1       4.184   6.413  17.705  0.00  0.00    +0.000 OA
ENDBRANCH   5  12
BRANCH  10  13
ATOM     13  C   UNL     1       3.191   5.261  19.936  0.00  0.00    +0.000 C 
BRANCH  13  14
ATOM     14  N   UNL     1       2.239   4.160  19.777  0.00  0.00    +0.000 NA
ATOM     15  C   UNL     1       2.801   2.867  20.204  0.00  0.00    +0.000 C 
ATOM     16  C   UNL     1       3.589   2.090  19.134  0.00  0.00    +0.000 C 
ATOM     17  O   UNL     1       2.883   1.995  17.894  0.00  0.00    +0.000 OA
ATOM     18  C   UNL     1       2.501   3.286  17.411  0.00  0.00    +0.000 C 
ATOM     19  C   UNL     1       1.644   4.041  18.436  0.00  0.00    +0.000 C 
ENDBRANCH  13  14
ENDBRANCH  10  13
ENDBRANCH   1   8
BRANCH   3  20
ATOM     20  C   UNL     1      -0.711  11.522  21.096  0.00  0.00    +0.000 A 
ATOM     21  C   UNL     1      -0.346  12.007  22.360  0.00  0.00    +0.000 A 
ATOM     22  C   UNL     1      -1.136  12.963  23.011  0.00  0.00    +0.000 A 
ATOM     23  C   UNL     1      -2.313  13.414  22.425  0.00  0.00    +0.000 A 
ATOM     24  C   UNL     1      -2.707  12.913  21.185  0.00  0.00    +0.000 A 
ATOM     25  C   UNL     1      -1.911  11.973  20.501  0.00  0.00    +0.000 A 
BRANCH  25  26
ATOM     26  C   UNL     1      -2.350  11.473  19.194  0.00  0.00    +0.000 A 
ATOM     27  N   UNL     1      -1.770  10.512  18.496  0.00  0.00    +0.000 NA
ATOM     28  C   UNL     1      -2.436  10.468  17.297  0.00  0.00    +0.000 A 
ATOM     29  C   UNL     1      -2.172   9.699  16.157  0.00  0.00    +0.000 A 
ATOM     30  C   UNL     1      -2.978   9.879  15.026  0.00  0.00    +0.000 A 
ATOM     31  C   UNL     1      -4.043  10.785  15.044  0.00  0.00    +0.000 A 
ATOM     32  C   UNL     1      -4.339  11.541  16.183  0.00  0.00    +0.000 A 
ATOM     33  C   UNL     1      -3.499  11.361  17.284  0.00  0.00    +0.000 A 
ATOM     34  N   UNL     1      -3.458  11.944  18.523  0.00  0.00    +0.000 N 
ATOM     35  H   UNL     1      -4.109  12.631  18.874  0.00  0.00    +0.000 HD
ENDBRANCH  25  26
ENDBRANCH   3  20
TORSDOF 6
ENDMDL
MODEL 3
REMARK VINA RESULT:      -8.4      2.780      8.923
REMARK  Name = 
REMARK  7 active torsions:
REMARK  status: ('A' for Active; 'I' for Inactive)
REMARK    1  A    between atoms: C_1  and  O_2
REMARK    2  A    between atoms: O_2  and  C_3
REMARK    3  A    between atoms: C_6  and  C_7
REMARK    4  A    between atoms: N_9  and  C_10
REMARK    5  A    between atoms: C_15  and  C_16
REMARK    6  A    between atoms: C_26  and  C_27
REMARK    7  A    between atoms: C_27  and  N_28
REMARK                            x       y       z     vdW  Elec       q    Type
REMARK                         _______ _______ _______ _____ _____    ______ ____
ROOT
ATOM      1  C   UNL     1       0.595   9.318  20.613  0.00  0.00    +0.000 C 
ATOM      2  O   UNL     1       0.174   8.754  21.617  0.00  0.00    +0.000 OA
ATOM      3  N   UNL     1       0.254  10.597  20.213  0.00  0.00    +0.000 N 
ATOM      4  H   UNL     1       0.276  10.780  19.209  0.00  0.00    +0.000 HD
ENDROOT
BRANCH   1   8
ATOM      5  C   UNL     1       3.307   7.156  18.028  0.00  0.00    +0.000 A 
ATOM      6  C   UNL     1       2.667   8.301  17.543  0.00  0.00    +0.000 A 
ATOM      7  C   UNL     1       1.746   8.999  18.361  0.00  0.00    +0.000 A 
ATOM      8  C   UNL     1       1.463   8.551  19.662  0.00  0.00    +0.000 A 
ATOM      9  C   UNL     1       2.072   7.389  20.123  0.00  0.00    +0.000 A 
ATOM     10  C   UNL     1       2.983   6.668  19.315  0.00  0.00    +0.000 A 
BRANCH   5  12
ATOM     11  C   UNL     1       4.899   6.712  16.196  0.00  0.00    +0.000 C 
ATOM     12  O   UNL     1       4.308   6.441  17.445  0.00  0.00    +0.000 OA
ENDBRANCH   5  12
BRANCH  10  13
ATOM     13  C   UNL     1       3.640   5.412  19.850  0.00  0.00    +0.000 C 
BRANCH  13  14
ATOM     14  N   UNL     1       3.081   4.170  19.313  0.00  0.00    +0.000 NA
ATOM     15  C   UNL     1       1.612   4.213  19.214  0.00  0.00    +0.000 C 
ATOM     16  C   UNL     1       0.841   3.792  20.477  0.00  0.00    +0.000 C 
ATOM     17  O   UNL     1       1.314   2.559  21.024  0.00  0.00    +0.000 OA
ATOM     18  C   UNL     1       2.721   2.607  21.277  0.00  0.00    +0.000 C 
ATOM     19  C   UNL     1       3.512   2.946  20.006  0.00  0.00    +0.000 C 
ENDBRANCH  13  14
ENDBRANCH  10  13
ENDBRANCH   1   8
BRANCH   3  20
ATOM     20  C   UNL     1      -0.589  11.472  20.955  0.00  0.00    +0.000 A 
ATOM     21  C   UNL     1      -0.195  11.957  22.211  0.00  0.00    +0.000 A 
ATOM     22  C   UNL     1      -0.972  12.909  22.881  0.00  0.00    +0.000 A 
ATOM     23  C   UNL     1      -2.165  13.357  22.326  0.00  0.00    +0.000 A 
ATOM     24  C   UNL     1      -2.588  12.855  21.095  0.00  0.00    +0.000 A 
ATOM     25  C   UNL     1      -1.806  11.918  20.391  0.00  0.00    +0.000 A 
BRANCH  25  26
ATOM     26  C   UNL     1      -2.275  11.418  19.095  0.00  0.00    +0.000 A 
ATOM     27  N   UNL     1      -1.714  10.453  18.386  0.00  0.00    +0.000 NA
ATOM     28  C   UNL     1      -2.406  10.409  17.202  0.00  0.00    +0.000 A 
ATOM     29  C   UNL     1      -2.170   9.637  16.058  0.00  0.00    +0.000 A 
ATOM     30  C   UNL     1      -3.000   9.818  14.945  0.00  0.00    +0.000 A 
ATOM     31  C   UNL     1      -4.061  10.728  14.984  0.00  0.00    +0.000 A 
ATOM     32  C   UNL     1      -4.330  11.487  16.129  0.00  0.00    +0.000 A 
ATOM     33  C   UNL     1      -3.466  11.306  17.211  0.00  0.00    +0.000 A 
ATOM     34  N   UNL     1      -3.396  11.891  18.448  0.00  0.00    +0.000 N 
ATOM     35  H   UNL     1      -4.037  12.581  18.811  0.00  0.00    +0.000 HD
ENDBRANCH  25  26
ENDBRANCH   3  20
TORSDOF 6
ENDMDL
MODEL 4
REMARK VINA RESULT:      -8.2      2.429      8.649
REMARK  Name = 
REMARK  7 active torsions:
REMARK  status: ('A' for Active; 'I' for Inactive)
REMARK    1  A    between atoms: C_1  and  O_2
REMARK    2  A    between atoms: O_2  and  C_3
REMARK    3  A    between atoms: C_6  and  C_7
REMARK    4  A    between atoms: N_9  and  C_10
REMARK    5  A    between atoms: C_15  and  C_16
REMARK    6  A    between atoms: C_26  and  C_27
REMARK    7  A    between atoms: C_27  and  N_28
REMARK                            x       y       z     vdW  Elec       q    Type
REMARK                         _______ _______ _______ _____ _____    ______ ____
ROOT
ATOM      1  C   UNL     1       0.690  10.177  21.282  0.00  0.00    +0.000 C 
ATOM      2  O   UNL     1       0.826   9.836  22.452  0.00  0.00    +0.000 OA
ATOM      3  N   UNL     1      -0.011  11.287  20.849  0.00  0.00    +0.000 N 
ATOM      4  H   UNL     1      -0.434  11.225  19.922  0.00  0.00    +0.000 HD
ENDROOT
BRANCH   1   8
ATOM      5  C   UNL     1       2.452   7.605  18.282  0.00  0.00    +0.000 A 
ATOM      6  C   UNL     1       1.961   8.859  17.905  0.00  0.00    +0.000 A 
ATOM      7  C   UNL     1       1.345   9.697  18.865  0.00  0.00    +0.000 A 
ATOM      8  C   UNL     1       1.218   9.283  20.201  0.00  0.00    +0.000 A 
ATOM      9  C   UNL     1       1.673   8.018  20.560  0.00  0.00    +0.000 A 
ATOM     10  C   UNL     1       2.277   7.159  19.612  0.00  0.00    +0.000 A 
BRANCH   5  12
ATOM     11  C   UNL     1       4.463   6.969  17.003  0.00  0.00    +0.000 C 
ATOM     12  O   UNL     1       3.184   6.730  17.540  0.00  0.00    +0.000 OA
ENDBRANCH   5  12
BRANCH  10  13
ATOM     13  C   UNL     1       2.773   5.792  20.038  0.00  0.00    +0.000 C 
BRANCH  13  14
ATOM     14  N   UNL     1       1.713   4.794  20.197  0.00  0.00    +0.000 NA
ATOM     15  C   UNL     1       1.971   3.876  21.319  0.00  0.00    +0.000 C 
ATOM     16  C   UNL     1       2.827   2.640  20.993  0.00  0.00    +0.000 C 
ATOM     17  O   UNL     1       2.378   1.955  19.821  0.00  0.00    +0.000 OA
ATOM     18  C   UNL     1       2.305   2.837  18.697  0.00  0.00    +0.000 C 
ATOM     19  C   UNL     1       1.388   4.035  18.979  0.00  0.00    +0.000 C 
ENDBRANCH  13  14
ENDBRANCH  10  13
ENDBRANCH   1   8
BRANCH   3  20
ATOM     20  C   UNL     1      -0.621  12.238  21.716  0.00  0.00    +0.000 A 
ATOM     21  C   UNL     1      -1.741  11.894  22.487  0.00  0.00    +0.000 A 
ATOM     22  C   UNL     1      -2.263  12.792  23.425  0.00  0.00    +0.000 A 
ATOM     23  C   UNL     1      -1.698  14.055  23.574  0.00  0.00    +0.000 A 
ATOM     24  C   UNL     1      -0.608  14.424  22.787  0.00  0.00    +0.000 A 
ATOM     25  C   UNL     1      -0.050  13.523  21.859  0.00  0.00    +0.000 A 
BRANCH  25  26
ATOM     26  C   UNL     1       1.102  13.940  21.054  0.00  0.00    +0.000 A 
ATOM     27  N   UNL     1       1.202  13.853  19.738  0.00  0.00    +0.000 NA
ATOM     28  C   UNL     1       2.485  14.235  19.436  0.00  0.00    +0.000 A 
ATOM     29  C   UNL     1       3.149  14.237  18.203  0.00  0.00    +0.000 A 
ATOM     30  C   UNL     1       4.493  14.628  18.166  0.00  0.00    +0.000 A 
ATOM     31  C   UNL     1       5.151  15.037  19.330  0.00  0.00    +0.000 A 
ATOM     32  C   UNL     1       4.495  15.069  20.566  0.00  0.00    +0.000 A 
ATOM     33  C   UNL     1       3.165  14.645  20.575  0.00  0.00    +0.000 A 
ATOM     34  N   UNL     1       2.245  14.504  21.580  0.00  0.00    +0.000 N 
ATOM     35  H   UNL     1       2.390  14.738  22.551  0.00  0.00    +0.000 HD
ENDBRANCH  25  26
ENDBRANCH   3  20
TORSDOF 6
ENDMDL
MODEL 5
REMARK VINA RESULT:      -8.2      0.677      1.393
REMARK  Name = 
REMARK  7 active torsions:
REMARK  status: ('A' for Active; 'I' for Inactive)
REMARK    1  A    between atoms: C_1  and  O_2
REMARK    2  A    between atoms: O_2  and  C_3
REMARK    3  A    between atoms: C_6  and  C_7
REMARK    4  A    between atoms: N_9  and  C_10
REMARK    5  A    between atoms: C_15  and  C_16
REMARK    6  A    between atoms: C_26  and  C_27
REMARK    7  A    between atoms: C_27  and  N_28
REMARK                            x       y       z     vdW  Elec       q    Type
REMARK                         _______ _______ _______ _____ _____    ______ ____
ROOT
ATOM      1  C   UNL     1       1.839   6.649  19.684  0.00  0.00    +0.000 C 
ATOM      2  O   UNL     1       2.169   6.330  20.820  0.00  0.00    +0.000 OA
ATOM      3  N   UNL     1       1.775   5.792  18.600  0.00  0.00    +0.000 N 
ATOM      4  H   UNL     1       1.942   6.205  17.683  0.00  0.00    +0.000 HD
ENDROOT
BRANCH   1   8
ATOM      5  C   UNL     1       0.863  10.756  18.738  0.00  0.00    +0.000 A 
ATOM      6  C   UNL     1       1.862  10.105  18.007  0.00  0.00    +0.000 A 
ATOM      7  C   UNL     1       2.223   8.774  18.329  0.00  0.00    +0.000 A 
ATOM      8  C   UNL     1       1.587   8.095  19.381  0.00  0.00    +0.000 A 
ATOM      9  C   UNL     1       0.623   8.762  20.129  0.00  0.00    +0.000 A 
ATOM     10  C   UNL     1       0.259  10.098  19.834  0.00  0.00    +0.000 A 
BRANCH   5  12
ATOM     11  C   UNL     1       0.978  13.198  18.410  0.00  0.00    +0.000 C 
ATOM     12  O   UNL     1       0.296  11.969  18.493  0.00  0.00    +0.000 OA
ENDBRANCH   5  12
BRANCH  10  13
ATOM     13  C   UNL     1      -0.803  10.793  20.660  0.00  0.00    +0.000 C 
BRANCH  13  14
ATOM     14  N   UNL     1      -0.312  11.345  21.923  0.00  0.00    +0.000 NA
ATOM     15  C   UNL     1      -1.157  10.965  23.069  0.00  0.00    +0.000 C 
ATOM     16  C   UNL     1      -2.359  11.884  23.351  0.00  0.00    +0.000 C 
ATOM     17  O   UNL     1      -1.998  13.267  23.377  0.00  0.00    +0.000 OA
ATOM     18  C   UNL     1      -1.332  13.654  22.171  0.00  0.00    +0.000 C 
ATOM     19  C   UNL     1      -0.083  12.799  21.918  0.00  0.00    +0.000 C 
ENDBRANCH  13  14
ENDBRANCH  10  13
ENDBRANCH   1   8
BRANCH   3  20
ATOM     20  C   UNL     1       2.018   4.390  18.671  0.00  0.00    +0.000 A 
ATOM     21  C   UNL     1       0.955   3.478  18.751  0.00  0.00    +0.000 A 
ATOM     22  C   UNL     1       1.194   2.101  18.700  0.00  0.00    +0.000 A 
ATOM     23  C   UNL     1       2.496   1.619  18.607  0.00  0.00    +0.000 A 
ATOM     24  C   UNL     1       3.564   2.513  18.564  0.00  0.00    +0.000 A 
ATOM     25  C   UNL     1       3.342   3.904  18.585  0.00  0.00    +0.000 A 
BRANCH  25  26
ATOM     26  C   UNL     1       4.488   4.818  18.529  0.00  0.00    +0.000 A 
ATOM     27  N   UNL     1       4.620   5.849  17.713  0.00  0.00    +0.000 NA
ATOM     28  C   UNL     1       5.887   6.332  17.923  0.00  0.00    +0.000 A 
ATOM     29  C   UNL     1       6.575   7.353  17.257  0.00  0.00    +0.000 A 
ATOM     30  C   UNL     1       7.898   7.623  17.629  0.00  0.00    +0.000 A 
ATOM     31  C   UNL     1       8.510   6.909  18.664  0.00  0.00    +0.000 A 
ATOM     32  C   UNL     1       7.828   5.905  19.360  0.00  0.00    +0.000 A 
ATOM     33  C   UNL     1       6.522   5.638  18.945  0.00  0.00    +0.000 A 
ATOM     34  N   UNL     1       5.589   4.721  19.353  0.00  0.00    +0.000 N 
ATOM     35  H   UNL     1       5.702   4.060  20.107  0.00  0.00    +0.000 HD
ENDBRANCH  25  26
ENDBRANCH   3  20
TORSDOF 6
ENDMDL
MODEL 6
REMARK VINA RESULT:      -8.1      2.357      8.785
REMARK  Name = 
REMARK  7 active torsions:
REMARK  status: ('A' for Active; 'I' for Inactive)
REMARK    1  A    between atoms: C_1  and  O_2
REMARK    2  A    between atoms: O_2  and  C_3
REMARK    3  A    between atoms: C_6  and  C_7
REMARK    4  A    between atoms: N_9  and  C_10
REMARK    5  A    between atoms: C_15  and  C_16
REMARK    6  A    between atoms: C_26  and  C_27
REMARK    7  A    between atoms: C_27  and  N_28
REMARK                            x       y       z     vdW  Elec       q    Type
REMARK                         _______ _______ _______ _____ _____    ______ ____
ROOT
ATOM      1  C   UNL     1       0.811  10.158  21.151  0.00  0.00    +0.000 C 
ATOM      2  O   UNL     1       0.999   9.843  22.320  0.00  0.00    +0.000 OA
ATOM      3  N   UNL     1       0.050  11.233  20.726  0.00  0.00    +0.000 N 
ATOM      4  H   UNL     1      -0.402  11.138  19.815  0.00  0.00    +0.000 HD
ENDROOT
BRANCH   1   8
ATOM      5  C   UNL     1       2.565   7.586  18.148  0.00  0.00    +0.000 A 
ATOM      6  C   UNL     1       2.151   8.872  17.788  0.00  0.00    +0.000 A 
ATOM      7  C   UNL     1       1.539   9.714  18.748  0.00  0.00    +0.000 A 
ATOM      8  C   UNL     1       1.338   9.269  20.066  0.00  0.00    +0.000 A 
ATOM      9  C   UNL     1       1.714   7.974  20.405  0.00  0.00    +0.000 A 
ATOM     10  C   UNL     1       2.314   7.112  19.456  0.00  0.00    +0.000 A 
BRANCH   5  12
ATOM     11  C   UNL     1       4.608   6.867  16.965  0.00  0.00    +0.000 C 
ATOM     12  O   UNL     1       3.282   6.695  17.410  0.00  0.00    +0.000 OA
ENDBRANCH   5  12
BRANCH  10  13
ATOM     13  C   UNL     1       2.724   5.711  19.861  0.00  0.00    +0.000 C 
BRANCH  13  14
ATOM     14  N   UNL     1       1.822   4.662  19.383  0.00  0.00    +0.000 NA
ATOM     15  C   UNL     1       0.939   4.153  20.446  0.00  0.00    +0.000 C 
ATOM     16  C   UNL     1       1.509   3.010  21.304  0.00  0.00    +0.000 C 
ATOM     17  O   UNL     1       2.071   1.959  20.513  0.00  0.00    +0.000 OA
ATOM     18  C   UNL     1       3.058   2.459  19.607  0.00  0.00    +0.000 C 
ATOM     19  C   UNL     1       2.481   3.545  18.688  0.00  0.00    +0.000 C 
ENDBRANCH  13  14
ENDBRANCH  10  13
ENDBRANCH   1   8
BRANCH   3  20
ATOM     20  C   UNL     1      -0.569  12.172  21.599  0.00  0.00    +0.000 A 
ATOM     21  C   UNL     1      -1.470  11.750  22.588  0.00  0.00    +0.000 A 
ATOM     22  C   UNL     1      -1.982  12.660  23.519  0.00  0.00    +0.000 A 
ATOM     23  C   UNL     1      -1.632  14.005  23.449  0.00  0.00    +0.000 A 
ATOM     24  C   UNL     1      -0.767  14.445  22.448  0.00  0.00    +0.000 A 
ATOM     25  C   UNL     1      -0.218  13.539  21.520  0.00  0.00    +0.000 A 
BRANCH  25  26
ATOM     26  C   UNL     1       0.696  14.033  20.485  0.00  0.00    +0.000 A 
ATOM     27  N   UNL     1       1.811  13.444  20.088  0.00  0.00    +0.000 NA
ATOM     28  C   UNL     1       2.399  14.315  19.206  0.00  0.00    +0.000 A 
ATOM     29  C   UNL     1       3.641  14.232  18.563  0.00  0.00    +0.000 A 
ATOM     30  C   UNL     1       4.040  15.292  17.740  0.00  0.00    +0.000 A 
ATOM     31  C   UNL     1       3.207  16.396  17.539  0.00  0.00    +0.000 A 
ATOM     32  C   UNL     1       1.951  16.483  18.151  0.00  0.00    +0.000 A 
ATOM     33  C   UNL     1       1.594  15.426  18.990  0.00  0.00    +0.000 A 
ATOM     34  N   UNL     1       0.491  15.192  19.768  0.00  0.00    +0.000 N 
ATOM     35  H   UNL     1      -0.321  15.789  19.835  0.00  0.00    +0.000 HD
ENDBRANCH  25  26
ENDBRANCH   3  20
TORSDOF 6
ENDMDL
MODEL 7
REMARK VINA RESULT:      -8.1      2.743      9.167
REMARK  Name = 
REMARK  7 active torsions:
REMARK  status: ('A' for Active; 'I' for Inactive)
REMARK    1  A    between atoms: C_1  and  O_2
REMARK    2  A    between atoms: O_2  and  C_3
REMARK    3  A    between atoms: C_6  and  C_7
REMARK    4  A    between atoms: N_9  and  C_10
REMARK    5  A    between atoms: C_15  and  C_16
REMARK    6  A    between atoms: C_26  and  C_27
REMARK    7  A    between atoms: C_27  and  N_28
REMARK                            x       y       z     vdW  Elec       q    Type
REMARK                         _______ _______ _______ _____ _____    ______ ____
ROOT
ATOM      1  C   UNL     1       0.287   9.224  20.760  0.00  0.00    +0.000 C 
ATOM      2  O   UNL     1      -0.267   8.596  21.655  0.00  0.00    +0.000 OA
ATOM      3  N   UNL     1       0.056  10.553  20.456  0.00  0.00    +0.000 N 
ATOM      4  H   UNL     1       0.194  10.827  19.482  0.00  0.00    +0.000 HD
ENDROOT
BRANCH   1   8
ATOM      5  C   UNL     1       3.147   7.153  18.261  0.00  0.00    +0.000 A 
ATOM      6  C   UNL     1       2.621   8.375  17.830  0.00  0.00    +0.000 A 
ATOM      7  C   UNL     1       1.654   9.048  18.616  0.00  0.00    +0.000 A 
ATOM      8  C   UNL     1       1.212   8.498  19.831  0.00  0.00    +0.000 A 
ATOM      9  C   UNL     1       1.709   7.263  20.233  0.00  0.00    +0.000 A 
ATOM     10  C   UNL     1       2.664   6.568  19.454  0.00  0.00    +0.000 A 
BRANCH   5  12
ATOM     11  C   UNL     1       4.803   6.706  16.488  0.00  0.00    +0.000 C 
ATOM     12  O   UNL     1       4.168   6.437  17.715  0.00  0.00    +0.000 OA
ENDBRANCH   5  12
BRANCH  10  13
ATOM     13  C   UNL     1       3.195   5.230  19.926  0.00  0.00    +0.000 C 
BRANCH  13  14
ATOM     14  N   UNL     1       2.249   4.123  19.773  0.00  0.00    +0.000 NA
ATOM     15  C   UNL     1       2.828   2.831  20.178  0.00  0.00    +0.000 C 
ATOM     16  C   UNL     1       3.604   2.070  19.088  0.00  0.00    +0.000 C 
ATOM     17  O   UNL     1       2.878   1.981  17.859  0.00  0.00    +0.000 OA
ATOM     18  C   UNL     1       2.478   3.274  17.395  0.00  0.00    +0.000 C 
ATOM     19  C   UNL     1       1.633   4.013  18.441  0.00  0.00    +0.000 C 
ENDBRANCH  13  14
ENDBRANCH  10  13
ENDBRANCH   1   8
BRANCH   3  20
ATOM     20  C   UNL     1      -0.817  11.404  21.192  0.00  0.00    +0.000 A 
ATOM     21  C   UNL     1      -0.530  11.753  22.520  0.00  0.00    +0.000 A 
ATOM     22  C   UNL     1      -1.326  12.683  23.199  0.00  0.00    +0.000 A 
ATOM     23  C   UNL     1      -2.434  13.245  22.575  0.00  0.00    +0.000 A 
ATOM     24  C   UNL     1      -2.752  12.879  21.267  0.00  0.00    +0.000 A 
ATOM     25  C   UNL     1      -1.947  11.967  20.557  0.00  0.00    +0.000 A 
BRANCH  25  26
ATOM     26  C   UNL     1      -2.304  11.611  19.180  0.00  0.00    +0.000 A 
ATOM     27  N   UNL     1      -3.358  12.050  18.513  0.00  0.00    +0.000 NA
ATOM     28  C   UNL     1      -3.360  11.363  17.325  0.00  0.00    +0.000 A 
ATOM     29  C   UNL     1      -4.303  11.372  16.290  0.00  0.00    +0.000 A 
ATOM     30  C   UNL     1      -4.098  10.530  15.190  0.00  0.00    +0.000 A 
ATOM     31  C   UNL     1      -2.962   9.720  15.111  0.00  0.00    +0.000 A 
ATOM     32  C   UNL     1      -1.995   9.719  16.122  0.00  0.00    +0.000 A 
ATOM     33  C   UNL     1      -2.242  10.546  17.220  0.00  0.00    +0.000 A 
ATOM     34  N   UNL     1      -1.558  10.768  18.385  0.00  0.00    +0.000 N 
ATOM     35  H   UNL     1      -0.672  10.354  18.638  0.00  0.00    +0.000 HD
ENDBRANCH  25  26
ENDBRANCH   3  20
TORSDOF 6
ENDMDL
MODEL 8
REMARK VINA RESULT:      -8.0      2.749      9.349
REMARK  Name = 
REMARK  7 active torsions:
REMARK  status: ('A' for Active; 'I' for Inactive)
REMARK    1  A    between atoms: C_1  and  O_2
REMARK    2  A    between atoms: O_2  and  C_3
REMARK    3  A    between atoms: C_6  and  C_7
REMARK    4  A    between atoms: N_9  and  C_10
REMARK    5  A    between atoms: C_15  and  C_16
REMARK    6  A    between atoms: C_26  and  C_27
REMARK    7  A    between atoms: C_27  and  N_28
REMARK                            x       y       z     vdW  Elec       q    Type
REMARK                         _______ _______ _______ _____ _____    ______ ____
ROOT
ATOM      1  C   UNL     1       0.724  10.280  20.433  0.00  0.00    +0.000 C 
ATOM      2  O   UNL     1       0.046   9.929  21.392  0.00  0.00    +0.000 OA
ATOM      3  N   UNL     1       0.860  11.581  19.983  0.00  0.00    +0.000 N 
ATOM      4  H   UNL     1       1.039  11.701  18.986  0.00  0.00    +0.000 HD
ENDROOT
BRANCH   1   8
ATOM      5  C   UNL     1       2.843   7.276  18.153  0.00  0.00    +0.000 A 
ATOM      6  C   UNL     1       2.465   8.468  17.527  0.00  0.00    +0.000 A 
ATOM      7  C   UNL     1       1.737   9.446  18.247  0.00  0.00    +0.000 A 
ATOM      8  C   UNL     1       1.383   9.231  19.590  0.00  0.00    +0.000 A 
ATOM      9  C   UNL     1       1.726   8.026  20.192  0.00  0.00    +0.000 A 
ATOM     10  C   UNL     1       2.441   7.029  19.486  0.00  0.00    +0.000 A 
BRANCH   5  12
ATOM     11  C   UNL     1       4.718   6.465  16.770  0.00  0.00    +0.000 C 
ATOM     12  O   UNL     1       3.650   6.291  17.671  0.00  0.00    +0.000 OA
ENDBRANCH   5  12
BRANCH  10  13
ATOM     13  C   UNL     1       2.811   5.732  20.175  0.00  0.00    +0.000 C 
BRANCH  13  14
ATOM     14  N   UNL     1       1.697   4.792  20.318  0.00  0.00    +0.000 NA
ATOM     15  C   UNL     1       1.907   3.837  21.419  0.00  0.00    +0.000 C 
ATOM     16  C   UNL     1       2.690   2.562  21.063  0.00  0.00    +0.000 C 
ATOM     17  O   UNL     1       2.198   1.928  19.879  0.00  0.00    +0.000 OA
ATOM     18  C   UNL     1       2.171   2.837  18.775  0.00  0.00    +0.000 C 
ATOM     19  C   UNL     1       1.324   4.079  19.086  0.00  0.00    +0.000 C 
ENDBRANCH  13  14
ENDBRANCH  10  13
ENDBRANCH   1   8
BRANCH   3  20
ATOM     20  C   UNL     1       0.280  12.714  20.621  0.00  0.00    +0.000 A 
ATOM     21  C   UNL     1       0.976  13.414  21.618  0.00  0.00    +0.000 A 
ATOM     22  C   UNL     1       0.452  14.595  22.155  0.00  0.00    +0.000 A 
ATOM     23  C   UNL     1      -0.785  15.069  21.733  0.00  0.00    +0.000 A 
ATOM     24  C   UNL     1      -1.505  14.363  20.769  0.00  0.00    +0.000 A 
ATOM     25  C   UNL     1      -0.982  13.188  20.195  0.00  0.00    +0.000 A 
BRANCH  25  26
ATOM     26  C   UNL     1      -1.760  12.476  19.177  0.00  0.00    +0.000 A 
ATOM     27  N   UNL     1      -1.272  11.874  18.106  0.00  0.00    +0.000 NA
ATOM     28  C   UNL     1      -2.361  11.458  17.382  0.00  0.00    +0.000 A 
ATOM     29  C   UNL     1      -2.417  10.853  16.120  0.00  0.00    +0.000 A 
ATOM     30  C   UNL     1      -3.672  10.570  15.569  0.00  0.00    +0.000 A 
ATOM     31  C   UNL     1      -4.845  10.857  16.273  0.00  0.00    +0.000 A 
ATOM     32  C   UNL     1      -4.808  11.435  17.547  0.00  0.00    +0.000 A 
ATOM     33  C   UNL     1      -3.543  11.733  18.058  0.00  0.00    +0.000 A 
ATOM     34  N   UNL     1      -3.130  12.326  19.222  0.00  0.00    +0.000 N 
ATOM     35  H   UNL     1      -3.730  12.635  19.972  0.00  0.00    +0.000 HD
ENDBRANCH  25  26
ENDBRANCH   3  20
TORSDOF 6
ENDMDL
MODEL 9
REMARK VINA RESULT:      -8.0      2.326      8.442
REMARK  Name = 
REMARK  7 active torsions:
REMARK  status: ('A' for Active; 'I' for Inactive)
REMARK    1  A    between atoms: C_1  and  O_2
REMARK    2  A    between atoms: O_2  and  C_3
REMARK    3  A    between atoms: C_6  and  C_7
REMARK    4  A    between atoms: N_9  and  C_10
REMARK    5  A    between atoms: C_15  and  C_16
REMARK    6  A    between atoms: C_26  and  C_27
REMARK    7  A    between atoms: C_27  and  N_28
REMARK                            x       y       z     vdW  Elec       q    Type
REMARK                         _______ _______ _______ _____ _____    ______ ____
ROOT
ATOM      1  C   UNL     1       0.201  10.059  19.814  0.00  0.00    +0.000 C 
ATOM      2  O   UNL     1      -0.885  10.248  19.279  0.00  0.00    +0.000 OA
ATOM      3  N   UNL     1       0.666  10.722  20.936  0.00  0.00    +0.000 N 
ATOM      4  H   UNL     1       1.678  10.830  21.012  0.00  0.00    +0.000 HD
ENDROOT
BRANCH   1   8
ATOM      5  C   UNL     1       3.178   7.401  18.146  0.00  0.00    +0.000 A 
ATOM      6  C   UNL     1       2.811   8.547  17.435  0.00  0.00    +0.000 A 
ATOM      7  C   UNL     1       1.810   9.408  17.947  0.00  0.00    +0.000 A 
ATOM      8  C   UNL     1       1.174   9.122  19.167  0.00  0.00    +0.000 A 
ATOM      9  C   UNL     1       1.516   7.958  19.847  0.00  0.00    +0.000 A 
ATOM     10  C   UNL     1       2.503   7.077  19.345  0.00  0.00    +0.000 A 
BRANCH   5  12
ATOM     11  C   UNL     1       4.897   6.431  16.666  0.00  0.00    +0.000 C 
ATOM     12  O   UNL     1       4.198   6.539  17.883  0.00  0.00    +0.000 OA
ENDBRANCH   5  12
BRANCH  10  13
ATOM     13  C   UNL     1       2.861   5.823  20.117  0.00  0.00    +0.000 C 
BRANCH  13  14
ATOM     14  N   UNL     1       1.775   4.847  20.210  0.00  0.00    +0.000 NA
ATOM     15  C   UNL     1       1.977   3.884  21.305  0.00  0.00    +0.000 C 
ATOM     16  C   UNL     1       2.814   2.639  20.960  0.00  0.00    +0.000 C 
ATOM     17  O   UNL     1       2.384   2.007  19.752  0.00  0.00    +0.000 OA
ATOM     18  C   UNL     1       2.365   2.929  18.659  0.00  0.00    +0.000 C 
ATOM     19  C   UNL     1       1.468   4.139  18.957  0.00  0.00    +0.000 C 
ENDBRANCH  13  14
ENDBRANCH  10  13
ENDBRANCH   1   8
BRANCH   3  20
ATOM     20  C   UNL     1      -0.089  11.679  21.672  0.00  0.00    +0.000 A 
ATOM     21  C   UNL     1      -1.188  11.284  22.450  0.00  0.00    +0.000 A 
ATOM     22  C   UNL     1      -1.851  12.208  23.264  0.00  0.00    +0.000 A 
ATOM     23  C   UNL     1      -1.451  13.540  23.283  0.00  0.00    +0.000 A 
ATOM     24  C   UNL     1      -0.384  13.954  22.487  0.00  0.00    +0.000 A 
ATOM     25  C   UNL     1       0.316  13.033  21.682  0.00  0.00    +0.000 A 
BRANCH  25  26
ATOM     26  C   UNL     1       1.439  13.499  20.864  0.00  0.00    +0.000 A 
ATOM     27  N   UNL     1       2.665  13.745  21.295  0.00  0.00    +0.000 NA
ATOM     28  C   UNL     1       3.338  14.276  20.223  0.00  0.00    +0.000 A 
ATOM     29  C   UNL     1       4.636  14.798  20.153  0.00  0.00    +0.000 A 
ATOM     30  C   UNL     1       5.076  15.336  18.938  0.00  0.00    +0.000 A 
ATOM     31  C   UNL     1       4.251  15.326  17.810  0.00  0.00    +0.000 A 
ATOM     32  C   UNL     1       2.962  14.784  17.854  0.00  0.00    +0.000 A 
ATOM     33  C   UNL     1       2.540  14.282  19.087  0.00  0.00    +0.000 A 
ATOM     34  N   UNL     1       1.359  13.729  19.507  0.00  0.00    +0.000 N 
ATOM     35  H   UNL     1       0.552  13.552  18.928  0.00  0.00    +0.000 HD
ENDBRANCH  25  26
ENDBRANCH   3  20
TORSDOF 6
ENDMDL
