MODEL 1
REMARK VINA RESULT:      -6.5      0.000      0.000
REMARK  Name = 
REMARK  17 active torsions:
REMARK  status: ('A' for Active; 'I' for Inactive)
REMARK    1  A    between atoms: C_4  and  C_5
REMARK    2  A    between atoms: C_5  and  N_6
REMARK    3  A    between atoms: N_6  and  C_7
REMARK    4  A    between atoms: C_7  and  C_8
REMARK    5  A    between atoms: C_8  and  N_9
REMARK    6  A    between atoms: N_9  and  C_10
REMARK    7  A    between atoms: C_10  and  C_11
REMARK    8  A    between atoms: C_11  and  C_12
REMARK    9  A    between atoms: C_12  and  C_13
REMARK   10  A    between atoms: C_13  and  C_14
REMARK   11  A    between atoms: C_14  and  C_15
REMARK   12  A    between atoms: C_15  and  N_16
REMARK   13  A    between atoms: N_16  and  C_17
REMARK   14  A    between atoms: C_17  and  C_18
REMARK   15  A    between atoms: C_18  and  N_19
REMARK   16  A    between atoms: N_19  and  C_20
REMARK   17  A    between atoms: C_20  and  C_21
REMARK                            x       y       z     vdW  Elec       q    Type
REMARK                         _______ _______ _______ _____ _____    ______ ____
ROOT
ATOM      1  C   UNL     1       1.017   4.130  20.186  0.00  0.00    +0.000 C 
ENDROOT
BRANCH   1   2
ATOM      2  C   UNL     1       2.068   4.872  20.991  0.00  0.00    +0.000 C 
BRANCH   2   3
ATOM      3  C   UNL     1       3.033   5.577  20.046  0.00  0.00    +0.000 C 
BRANCH   3   4
ATOM      4  C   UNL     1       2.413   6.867  19.538  0.00  0.00    +0.000 C 
BRANCH   4   5
ATOM      5  N   UNL     1       1.932   7.638  20.678  0.00  0.00    +0.000 NA
ATOM      6  H   UNL     1       2.723   7.915  21.260  0.00  0.00    +0.000 HD
BRANCH   5   7
ATOM      7  C   UNL     1       1.238   8.835  20.205  0.00  0.00    +0.000 C 
BRANCH   7   8
ATOM      8  C   UNL     1       0.120   9.227  21.179  0.00  0.00    +0.000 C 
BRANCH   8   9
ATOM      9  N   UNL     1      -0.624  10.353  20.626  0.00  0.00    +0.000 NA
ATOM     10  H   UNL     1      -0.437  11.194  21.171  0.00  0.00    +0.000 HD
BRANCH   9  11
ATOM     11  C   UNL     1      -0.255  10.606  19.238  0.00  0.00    +0.000 C 
BRANCH  11  12
ATOM     12  C   UNL     1      -1.493  10.640  18.375  0.00  0.00    +0.000 A 
ATOM     13  C   UNL     1      -1.603   9.821  17.245  0.00  0.00    +0.000 A 
ATOM     14  C   UNL     1      -2.743   9.881  16.441  0.00  0.00    +0.000 A 
ATOM     15  C   UNL     1      -3.780  10.758  16.762  0.00  0.00    +0.000 A 
ATOM     16  C   UNL     1      -3.682  11.573  17.887  0.00  0.00    +0.000 A 
ATOM     17  C   UNL     1      -2.546  11.513  18.692  0.00  0.00    +0.000 A 
ENDBRANCH  11  12
ENDBRANCH   9  11
ENDBRANCH   8   9
ENDBRANCH   7   8
ENDBRANCH   5   7
ENDBRANCH   4   5
ENDBRANCH   3   4
ENDBRANCH   2   3
ENDBRANCH   1   2
BRANCH   1  18
ATOM     18  C   UNL     1       1.276   2.626  20.189  0.00  0.00    +0.000 C 
BRANCH  18  19
ATOM     19  C   UNL     1       2.018   2.168  18.935  0.00  0.00    +0.000 C 
BRANCH  19  20
ATOM     20  N   UNL     1       1.727   3.066  17.817  0.00  0.00    +0.000 NA
ATOM     21  H   UNL     1       0.905   2.733  17.317  0.00  0.00    +0.000 HD
BRANCH  20  22
ATOM     22  C   UNL     1       2.842   3.107  16.874  0.00  0.00    +0.000 C 
BRANCH  22  23
ATOM     23  C   UNL     1       4.162   3.360  17.617  0.00  0.00    +0.000 C 
BRANCH  23  24
ATOM     24  N   UNL     1       5.258   3.398  16.651  0.00  0.00    +0.000 NA
ATOM     25  H   UNL     1       6.142   3.310  17.151  0.00  0.00    +0.000 HD
BRANCH  24  26
ATOM     26  C   UNL     1       5.263   4.652  15.900  0.00  0.00    +0.000 C 
BRANCH  26  30
ATOM     27  C   UNL     1       7.110   4.139  12.033  0.00  0.00    +0.000 A 
ATOM     28  C   UNL     1       7.717   4.938  13.000  0.00  0.00    +0.000 A 
ATOM     29  C   UNL     1       7.124   5.088  14.252  0.00  0.00    +0.000 A 
ATOM     30  C   UNL     1       5.909   4.453  14.549  0.00  0.00    +0.000 A 
ATOM     31  C   UNL     1       5.308   3.651  13.571  0.00  0.00    +0.000 A 
ATOM     32  C   UNL     1       5.909   3.492  12.318  0.00  0.00    +0.000 A 
ENDBRANCH  26  30
ENDBRANCH  24  26
ENDBRANCH  23  24
ENDBRANCH  22  23
ENDBRANCH  20  22
ENDBRANCH  19  20
ENDBRANCH  18  19
ENDBRANCH   1  18
TORSDOF 17
ENDMDL
MODEL 2
REMARK VINA RESULT:      -6.5      2.753      3.435
REMARK  Name = 
REMARK  17 active torsions:
REMARK  status: ('A' for Active; 'I' for Inactive)
REMARK    1  A    between atoms: C_4  and  C_5
REMARK    2  A    between atoms: C_5  and  N_6
REMARK    3  A    between atoms: N_6  and  C_7
REMARK    4  A    between atoms: C_7  and  C_8
REMARK    5  A    between atoms: C_8  and  N_9
REMARK    6  A    between atoms: N_9  and  C_10
REMARK    7  A    between atoms: C_10  and  C_11
REMARK    8  A    between atoms: C_11  and  C_12
REMARK    9  A    between atoms: C_12  and  C_13
REMARK   10  A    between atoms: C_13  and  C_14
REMARK   11  A    between atoms: C_14  and  C_15
REMARK   12  A    between atoms: C_15  and  N_16
REMARK   13  A    between atoms: N_16  and  C_17
REMARK   14  A    between atoms: C_17  and  C_18
REMARK   15  A    between atoms: C_18  and  N_19
REMARK   16  A    between atoms: N_19  and  C_20
REMARK   17  A    between atoms: C_20  and  C_21
REMARK                            x       y       z     vdW  Elec       q    Type
REMARK                         _______ _______ _______ _____ _____    ______ ____
ROOT
ATOM      1  C   UNL     1       2.227   5.959  18.113  0.00  0.00    +0.000 C 
ENDROOT
BRANCH   1   2
ATOM      2  C   UNL     1       2.255   6.643  19.468  0.00  0.00    +0.000 C 
BRANCH   2   3
ATOM      3  C   UNL     1       2.092   8.147  19.286  0.00  0.00    +0.000 C 
BRANCH   3   4
ATOM      4  C   UNL     1       2.426   8.536  17.856  0.00  0.00    +0.000 C 
BRANCH   4   5
ATOM      5  N   UNL     1       1.857   9.850  17.580  0.00  0.00    +0.000 NA
ATOM      6  H   UNL     1       1.279   9.800  16.742  0.00  0.00    +0.000 HD
BRANCH   5   7
ATOM      7  C   UNL     1       1.034  10.277  18.710  0.00  0.00    +0.000 C 
BRANCH   7   8
ATOM      8  C   UNL     1       0.938  11.807  18.756  0.00  0.00    +0.000 C 
BRANCH   8   9
ATOM      9  N   UNL     1      -0.465  12.195  18.863  0.00  0.00    +0.000 NA
ATOM     10  H   UNL     1      -0.745  12.717  18.033  0.00  0.00    +0.000 HD
BRANCH   9  11
ATOM     11  C   UNL     1      -1.332  11.031  18.995  0.00  0.00    +0.000 C 
BRANCH  11  12
ATOM     12  C   UNL     1      -2.626  11.268  18.254  0.00  0.00    +0.000 A 
ATOM     13  C   UNL     1      -3.731  11.833  18.901  0.00  0.00    +0.000 A 
ATOM     14  C   UNL     1      -4.929  12.023  18.211  0.00  0.00    +0.000 A 
ATOM     15  C   UNL     1      -5.031  11.651  16.870  0.00  0.00    +0.000 A 
ATOM     16  C   UNL     1      -3.935  11.092  16.216  0.00  0.00    +0.000 A 
ATOM     17  C   UNL     1      -2.737  10.904  16.902  0.00  0.00    +0.000 A 
ENDBRANCH  11  12
ENDBRANCH   9  11
ENDBRANCH   8   9
ENDBRANCH   7   8
ENDBRANCH   5   7
ENDBRANCH   4   5
ENDBRANCH   3   4
ENDBRANCH   2   3
ENDBRANCH   1   2
BRANCH   1  18
ATOM     18  C   UNL     1       1.641   4.554  18.214  0.00  0.00    +0.000 C 
BRANCH  18  19
ATOM     19  C   UNL     1       2.354   3.567  17.291  0.00  0.00    +0.000 C 
BRANCH  19  20
ATOM     20  N   UNL     1       2.684   2.341  18.018  0.00  0.00    +0.000 NA
ATOM     21  H   UNL     1       1.902   1.690  17.963  0.00  0.00    +0.000 HD
BRANCH  20  22
ATOM     22  C   UNL     1       2.938   2.621  19.429  0.00  0.00    +0.000 C 
BRANCH  22  23
ATOM     23  C   UNL     1       4.359   2.186  19.814  0.00  0.00    +0.000 C 
BRANCH  23  24
ATOM     24  N   UNL     1       5.323   3.112  19.223  0.00  0.00    +0.000 NA
ATOM     25  H   UNL     1       6.264   2.824  19.492  0.00  0.00    +0.000 HD
BRANCH  24  26
ATOM     26  C   UNL     1       5.098   4.480  19.682  0.00  0.00    +0.000 C 
BRANCH  26  30
ATOM     27  C   UNL     1       7.578   7.266  17.510  0.00  0.00    +0.000 A 
ATOM     28  C   UNL     1       8.064   6.638  18.655  0.00  0.00    +0.000 A 
ATOM     29  C   UNL     1       7.265   5.729  19.344  0.00  0.00    +0.000 A 
ATOM     30  C   UNL     1       5.963   5.445  18.906  0.00  0.00    +0.000 A 
ATOM     31  C   UNL     1       5.483   6.080  17.753  0.00  0.00    +0.000 A 
ATOM     32  C   UNL     1       6.290   6.985  17.056  0.00  0.00    +0.000 A 
ENDBRANCH  26  30
ENDBRANCH  24  26
ENDBRANCH  23  24
ENDBRANCH  22  23
ENDBRANCH  20  22
ENDBRANCH  19  20
ENDBRANCH  18  19
ENDBRANCH   1  18
TORSDOF 17
ENDMDL
MODEL 3
REMARK VINA RESULT:      -6.4      2.564      9.531
REMARK  Name = 
REMARK  17 active torsions:
REMARK  status: ('A' for Active; 'I' for Inactive)
REMARK    1  A    between atoms: C_4  and  C_5
REMARK    2  A    between atoms: C_5  and  N_6
REMARK    3  A    between atoms: N_6  and  C_7
REMARK    4  A    between atoms: C_7  and  C_8
REMARK    5  A    between atoms: C_8  and  N_9
REMARK    6  A    between atoms: N_9  and  C_10
REMARK    7  A    between atoms: C_10  and  C_11
REMARK    8  A    between atoms: C_11  and  C_12
REMARK    9  A    between atoms: C_12  and  C_13
REMARK   10  A    between atoms: C_13  and  C_14
REMARK   11  A    between atoms: C_14  and  C_15
REMARK   12  A    between atoms: C_15  and  N_16
REMARK   13  A    between atoms: N_16  and  C_17
REMARK   14  A    between atoms: C_17  and  C_18
REMARK   15  A    between atoms: C_18  and  N_19
REMARK   16  A    between atoms: N_19  and  C_20
REMARK   17  A    between atoms: C_20  and  C_21
REMARK                            x       y       z     vdW  Elec       q    Type
REMARK                         _______ _______ _______ _____ _____    ______ ____
ROOT
ATOM      1  C   UNL     1       2.032   8.031  18.962  0.00  0.00    +0.000 C 
ENDROOT
BRANCH   1   2
ATOM      2  C   UNL     1       2.912   6.922  18.414  0.00  0.00    +0.000 C 
BRANCH   2   3
ATOM      3  C   UNL     1       3.424   6.061  19.563  0.00  0.00    +0.000 C 
BRANCH   3   4
ATOM      4  C   UNL     1       4.827   5.568  19.256  0.00  0.00    +0.000 C 
BRANCH   4   5
ATOM      5  N   UNL     1       5.129   5.846  17.856  0.00  0.00    +0.000 NA
ATOM      6  H   UNL     1       5.769   6.637  17.798  0.00  0.00    +0.000 HD
BRANCH   5   7
ATOM      7  C   UNL     1       5.750   4.674  17.243  0.00  0.00    +0.000 C 
BRANCH   7   8
ATOM      8  C   UNL     1       4.680   3.741  16.663  0.00  0.00    +0.000 C 
BRANCH   8   9
ATOM      9  N   UNL     1       4.506   2.599  17.554  0.00  0.00    +0.000 NA
ATOM     10  H   UNL     1       4.796   2.849  18.500  0.00  0.00    +0.000 HD
BRANCH   9  11
ATOM     11  C   UNL     1       3.116   2.161  17.595  0.00  0.00    +0.000 C 
BRANCH  11  12
ATOM     12  C   UNL     1       2.492   2.554  18.913  0.00  0.00    +0.000 A 
ATOM     13  C   UNL     1       1.220   3.137  18.961  0.00  0.00    +0.000 A 
ATOM     14  C   UNL     1       0.667   3.518  20.184  0.00  0.00    +0.000 A 
ATOM     15  C   UNL     1       1.379   3.318  21.367  0.00  0.00    +0.000 A 
ATOM     16  C   UNL     1       2.643   2.734  21.331  0.00  0.00    +0.000 A 
ATOM     17  C   UNL     1       3.196   2.350  20.111  0.00  0.00    +0.000 A 
ENDBRANCH  11  12
ENDBRANCH   9  11
ENDBRANCH   8   9
ENDBRANCH   7   8
ENDBRANCH   5   7
ENDBRANCH   4   5
ENDBRANCH   3   4
ENDBRANCH   2   3
ENDBRANCH   1   2
BRANCH   1  18
ATOM     18  C   UNL     1       1.656   9.030  17.871  0.00  0.00    +0.000 C 
BRANCH  18  19
ATOM     19  C   UNL     1       0.210   9.506  18.002  0.00  0.00    +0.000 C 
BRANCH  19  20
ATOM     20  N   UNL     1       0.150  10.967  17.945  0.00  0.00    +0.000 NA
ATOM     21  H   UNL     1       0.658  11.360  18.736  0.00  0.00    +0.000 HD
BRANCH  20  22
ATOM     22  C   UNL     1      -1.230  11.437  18.017  0.00  0.00    +0.000 C 
BRANCH  22  23
ATOM     23  C   UNL     1      -1.384  12.475  19.138  0.00  0.00    +0.000 C 
BRANCH  23  24
ATOM     24  N   UNL     1      -0.060  12.942  19.547  0.00  0.00    +0.000 NA
ATOM     25  H   UNL     1       0.635  12.251  19.263  0.00  0.00    +0.000 HD
BRANCH  24  26
ATOM     26  C   UNL     1       0.017  13.125  20.994  0.00  0.00    +0.000 C 
BRANCH  26  30
ATOM     27  C   UNL     1      -0.053   9.279  22.951  0.00  0.00    +0.000 A 
ATOM     28  C   UNL     1       0.915   9.559  21.988  0.00  0.00    +0.000 A 
ATOM     29  C   UNL     1       0.942  10.807  21.370  0.00  0.00    +0.000 A 
ATOM     30  C   UNL     1      -0.007  11.788  21.696  0.00  0.00    +0.000 A 
ATOM     31  C   UNL     1      -0.974  11.498  22.666  0.00  0.00    +0.000 A 
ATOM     32  C   UNL     1      -0.994  10.247  23.294  0.00  0.00    +0.000 A 
ENDBRANCH  26  30
ENDBRANCH  24  26
ENDBRANCH  23  24
ENDBRANCH  22  23
ENDBRANCH  20  22
ENDBRANCH  19  20
ENDBRANCH  18  19
ENDBRANCH   1  18
TORSDOF 17
ENDMDL
MODEL 4
REMARK VINA RESULT:      -6.2      2.464      5.225
REMARK  Name = 
REMARK  17 active torsions:
REMARK  status: ('A' for Active; 'I' for Inactive)
REMARK    1  A    between atoms: C_4  and  C_5
REMARK    2  A    between atoms: C_5  and  N_6
REMARK    3  A    between atoms: N_6  and  C_7
REMARK    4  A    between atoms: C_7  and  C_8
REMARK    5  A    between atoms: C_8  and  N_9
REMARK    6  A    between atoms: N_9  and  C_10
REMARK    7  A    between atoms: C_10  and  C_11
REMARK    8  A    between atoms: C_11  and  C_12
REMARK    9  A    between atoms: C_12  and  C_13
REMARK   10  A    between atoms: C_13  and  C_14
REMARK   11  A    between atoms: C_14  and  C_15
REMARK   12  A    between atoms: C_15  and  N_16
REMARK   13  A    between atoms: N_16  and  C_17
REMARK   14  A    between atoms: C_17  and  C_18
REMARK   15  A    between atoms: C_18  and  N_19
REMARK   16  A    between atoms: N_19  and  C_20
REMARK   17  A    between atoms: C_20  and  C_21
REMARK                            x       y       z     vdW  Elec       q    Type
REMARK                         _______ _______ _______ _____ _____    ______ ____
ROOT
ATOM      1  C   UNL     1       1.755   9.334  17.831  0.00  0.00    +0.000 C 
ENDROOT
BRANCH   1   2
ATOM      2  C   UNL     1       1.113  10.365  18.743  0.00  0.00    +0.000 C 
BRANCH   2   3
ATOM      3  C   UNL     1       1.156   9.870  20.183  0.00  0.00    +0.000 C 
BRANCH   3   4
ATOM      4  C   UNL     1      -0.200  10.064  20.839  0.00  0.00    +0.000 C 
BRANCH   4   5
ATOM      5  N   UNL     1      -0.165  11.280  21.643  0.00  0.00    +0.000 NA
ATOM      6  H   UNL     1       0.523  11.924  21.254  0.00  0.00    +0.000 HD
BRANCH   5   7
ATOM      7  C   UNL     1      -1.481  11.914  21.634  0.00  0.00    +0.000 C 
BRANCH   7   8
ATOM      8  C   UNL     1      -1.445  13.215  20.824  0.00  0.00    +0.000 C 
BRANCH   8   9
ATOM      9  N   UNL     1      -1.756  12.919  19.429  0.00  0.00    +0.000 NA
ATOM     10  H   UNL     1      -1.009  12.359  19.019  0.00  0.00    +0.000 HD
BRANCH   9  11
ATOM     11  C   UNL     1      -3.010  12.185  19.307  0.00  0.00    +0.000 C 
BRANCH  11  12
ATOM     12  C   UNL     1      -3.023  11.403  18.016  0.00  0.00    +0.000 A 
ATOM     13  C   UNL     1      -4.066  11.553  17.095  0.00  0.00    +0.000 A 
ATOM     14  C   UNL     1      -4.078  10.804  15.917  0.00  0.00    +0.000 A 
ATOM     15  C   UNL     1      -3.047   9.902  15.651  0.00  0.00    +0.000 A 
ATOM     16  C   UNL     1      -2.002   9.749  16.558  0.00  0.00    +0.000 A 
ATOM     17  C   UNL     1      -1.986  10.497  17.733  0.00  0.00    +0.000 A 
ENDBRANCH  11  12
ENDBRANCH   9  11
ENDBRANCH   8   9
ENDBRANCH   7   8
ENDBRANCH   5   7
ENDBRANCH   4   5
ENDBRANCH   3   4
ENDBRANCH   2   3
ENDBRANCH   1   2
BRANCH   1  18
ATOM     18  C   UNL     1       2.299   8.151  18.627  0.00  0.00    +0.000 C 
BRANCH  18  19
ATOM     19  C   UNL     1       3.323   7.344  17.830  0.00  0.00    +0.000 C 
BRANCH  19  20
ATOM     20  N   UNL     1       3.679   6.123  18.552  0.00  0.00    +0.000 NA
ATOM     21  H   UNL     1       3.596   6.283  19.555  0.00  0.00    +0.000 HD
BRANCH  20  22
ATOM     22  C   UNL     1       5.058   5.732  18.271  0.00  0.00    +0.000 C 
BRANCH  22  23
ATOM     23  C   UNL     1       5.093   4.623  17.210  0.00  0.00    +0.000 C 
BRANCH  23  24
ATOM     24  N   UNL     1       5.029   3.321  17.871  0.00  0.00    +0.000 NA
ATOM     25  H   UNL     1       5.766   2.724  17.496  0.00  0.00    +0.000 HD
BRANCH  24  26
ATOM     26  C   UNL     1       3.738   2.675  17.650  0.00  0.00    +0.000 C 
BRANCH  26  30
ATOM     27  C   UNL     1       1.265   3.014  21.171  0.00  0.00    +0.000 A 
ATOM     28  C   UNL     1       0.695   3.101  19.902  0.00  0.00    +0.000 A 
ATOM     29  C   UNL     1       1.496   2.976  18.769  0.00  0.00    +0.000 A 
ATOM     30  C   UNL     1       2.879   2.777  18.889  0.00  0.00    +0.000 A 
ATOM     31  C   UNL     1       3.442   2.689  20.168  0.00  0.00    +0.000 A 
ATOM     32  C   UNL     1       2.636   2.805  21.306  0.00  0.00    +0.000 A 
ENDBRANCH  26  30
ENDBRANCH  24  26
ENDBRANCH  23  24
ENDBRANCH  22  23
ENDBRANCH  20  22
ENDBRANCH  19  20
ENDBRANCH  18  19
ENDBRANCH   1  18
TORSDOF 17
ENDMDL
MODEL 5
REMARK VINA RESULT:      -6.1      2.287      8.939
REMARK  Name = 
REMARK  17 active torsions:
REMARK  status: ('A' for Active; 'I' for Inactive)
REMARK    1  A    between atoms: C_4  and  C_5
REMARK    2  A    between atoms: C_5  and  N_6
REMARK    3  A    between atoms: N_6  and  C_7
REMARK    4  A    between atoms: C_7  and  C_8
REMARK    5  A    between atoms: C_8  and  N_9
REMARK    6  A    between atoms: N_9  and  C_10
REMARK    7  A    between atoms: C_10  and  C_11
REMARK    8  A    between atoms: C_11  and  C_12
REMARK    9  A    between atoms: C_12  and  C_13
REMARK   10  A    between atoms: C_13  and  C_14
REMARK   11  A    between atoms: C_14  and  C_15
REMARK   12  A    between atoms: C_15  and  N_16
REMARK   13  A    between atoms: N_16  and  C_17
REMARK   14  A    between atoms: C_17  and  C_18
REMARK   15  A    between atoms: C_18  and  N_19
REMARK   16  A    between atoms: N_19  and  C_20
REMARK   17  A    between atoms: C_20  and  C_21
REMARK                            x       y       z     vdW  Elec       q    Type
REMARK                         _______ _______ _______ _____ _____    ______ ____
ROOT
ATOM      1  C   UNL     1       2.402   6.791  18.374  0.00  0.00    +0.000 C 
ENDROOT
BRANCH   1   2
ATOM      2  C   UNL     1       3.553   7.616  17.826  0.00  0.00    +0.000 C 
BRANCH   2   3
ATOM      3  C   UNL     1       4.287   6.821  16.754  0.00  0.00    +0.000 C 
BRANCH   3   4
ATOM      4  C   UNL     1       5.779   6.824  17.037  0.00  0.00    +0.000 C 
BRANCH   4   5
ATOM      5  N   UNL     1       6.451   6.016  16.026  0.00  0.00    +0.000 NA
ATOM      6  H   UNL     1       7.307   6.486  15.729  0.00  0.00    +0.000 HD
BRANCH   5   7
ATOM      7  C   UNL     1       6.787   4.707  16.584  0.00  0.00    +0.000 C 
BRANCH   7   8
ATOM      8  C   UNL     1       5.771   3.653  16.130  0.00  0.00    +0.000 C 
BRANCH   8   9
ATOM      9  N   UNL     1       5.015   3.185  17.287  0.00  0.00    +0.000 NA
ATOM     10  H   UNL     1       5.245   3.753  18.104  0.00  0.00    +0.000 HD
BRANCH   9  11
ATOM     11  C   UNL     1       3.578   3.266  17.054  0.00  0.00    +0.000 C 
BRANCH  11  12
ATOM     12  C   UNL     1       2.837   3.106  18.360  0.00  0.00    +0.000 A 
ATOM     13  C   UNL     1       1.440   3.186  18.407  0.00  0.00    +0.000 A 
ATOM     14  C   UNL     1       0.769   3.062  19.625  0.00  0.00    +0.000 A 
ATOM     15  C   UNL     1       1.489   2.856  20.803  0.00  0.00    +0.000 A 
ATOM     16  C   UNL     1       2.879   2.769  20.765  0.00  0.00    +0.000 A 
ATOM     17  C   UNL     1       3.550   2.890  19.550  0.00  0.00    +0.000 A 
ENDBRANCH  11  12
ENDBRANCH   9  11
ENDBRANCH   8   9
ENDBRANCH   7   8
ENDBRANCH   5   7
ENDBRANCH   4   5
ENDBRANCH   3   4
ENDBRANCH   2   3
ENDBRANCH   1   2
BRANCH   1  18
ATOM     18  C   UNL     1       2.640   6.403  19.830  0.00  0.00    +0.000 C 
BRANCH  18  19
ATOM     19  C   UNL     1       1.507   6.870  20.742  0.00  0.00    +0.000 C 
BRANCH  19  20
ATOM     20  N   UNL     1       1.684   8.281  21.088  0.00  0.00    +0.000 NA
ATOM     21  H   UNL     1       2.462   8.378  21.739  0.00  0.00    +0.000 HD
BRANCH  20  22
ATOM     22  C   UNL     1       0.488   8.815  21.734  0.00  0.00    +0.000 C 
BRANCH  22  23
ATOM     23  C   UNL     1      -0.239   9.786  20.794  0.00  0.00    +0.000 C 
BRANCH  23  24
ATOM     24  N   UNL     1       0.467   9.838  19.515  0.00  0.00    +0.000 NA
ATOM     25  H   UNL     1       1.413  10.186  19.675  0.00  0.00    +0.000 HD
BRANCH  24  26
ATOM     26  C   UNL     1      -0.207  10.723  18.569  0.00  0.00    +0.000 C 
BRANCH  26  30
ATOM     27  C   UNL     1       1.309  14.754  18.855  0.00  0.00    +0.000 A 
ATOM     28  C   UNL     1      -0.064  14.517  18.879  0.00  0.00    +0.000 A 
ATOM     29  C   UNL     1      -0.548  13.212  18.801  0.00  0.00    +0.000 A 
ATOM     30  C   UNL     1       0.334  12.128  18.683  0.00  0.00    +0.000 A 
ATOM     31  C   UNL     1       1.712  12.376  18.662  0.00  0.00    +0.000 A 
ATOM     32  C   UNL     1       2.198  13.685  18.750  0.00  0.00    +0.000 A 
ENDBRANCH  26  30
ENDBRANCH  24  26
ENDBRANCH  23  24
ENDBRANCH  22  23
ENDBRANCH  20  22
ENDBRANCH  19  20
ENDBRANCH  18  19
ENDBRANCH   1  18
TORSDOF 17
ENDMDL
MODEL 6
REMARK VINA RESULT:      -6.1      2.168      5.148
REMARK  Name = 
REMARK  17 active torsions:
REMARK  status: ('A' for Active; 'I' for Inactive)
REMARK    1  A    between atoms: C_4  and  C_5
REMARK    2  A    between atoms: C_5  and  N_6
REMARK    3  A    between atoms: N_6  and  C_7
REMARK    4  A    between atoms: C_7  and  C_8
REMARK    5  A    between atoms: C_8  and  N_9
REMARK    6  A    between atoms: N_9  and  C_10
REMARK    7  A    between atoms: C_10  and  C_11
REMARK    8  A    between atoms: C_11  and  C_12
REMARK    9  A    between atoms: C_12  and  C_13
REMARK   10  A    between atoms: C_13  and  C_14
REMARK   11  A    between atoms: C_14  and  C_15
REMARK   12  A    between atoms: C_15  and  N_16
REMARK   13  A    between atoms: N_16  and  C_17
REMARK   14  A    between atoms: C_17  and  C_18
REMARK   15  A    between atoms: C_18  and  N_19
REMARK   16  A    between atoms: N_19  and  C_20
REMARK   17  A    between atoms: C_20  and  C_21
REMARK                            x       y       z     vdW  Elec       q    Type
REMARK                         _______ _______ _______ _____ _____    ______ ____
ROOT
ATOM      1  C   UNL     1       2.495   7.142  18.430  0.00  0.00    +0.000 C 
ENDROOT
BRANCH   1   2
ATOM      2  C   UNL     1       2.458   8.510  17.772  0.00  0.00    +0.000 C 
BRANCH   2   3
ATOM      3  C   UNL     1       1.239   9.281  18.263  0.00  0.00    +0.000 C 
BRANCH   3   4
ATOM      4  C   UNL     1       1.603  10.737  18.493  0.00  0.00    +0.000 C 
BRANCH   4   5
ATOM      5  N   UNL     1       1.135  11.136  19.815  0.00  0.00    +0.000 NA
ATOM      6  H   UNL     1       1.803  11.786  20.230  0.00  0.00    +0.000 HD
BRANCH   5   7
ATOM      7  C   UNL     1      -0.168  11.788  19.701  0.00  0.00    +0.000 C 
BRANCH   7   8
ATOM      8  C   UNL     1      -0.186  12.745  18.503  0.00  0.00    +0.000 C 
BRANCH   8   9
ATOM      9  N   UNL     1      -1.527  12.770  17.929  0.00  0.00    +0.000 NA
ATOM     10  H   UNL     1      -1.483  13.068  16.955  0.00  0.00    +0.000 HD
BRANCH   9  11
ATOM     11  C   UNL     1      -2.156  11.455  17.985  0.00  0.00    +0.000 C 
BRANCH  11  12
ATOM     12  C   UNL     1      -3.593  11.591  18.426  0.00  0.00    +0.000 A 
ATOM     13  C   UNL     1      -3.931  12.358  19.547  0.00  0.00    +0.000 A 
ATOM     14  C   UNL     1      -5.262  12.455  19.959  0.00  0.00    +0.000 A 
ATOM     15  C   UNL     1      -6.263  11.787  19.252  0.00  0.00    +0.000 A 
ATOM     16  C   UNL     1      -5.937  11.026  18.131  0.00  0.00    +0.000 A 
ATOM     17  C   UNL     1      -4.610  10.931  17.718  0.00  0.00    +0.000 A 
ENDBRANCH  11  12
ENDBRANCH   9  11
ENDBRANCH   8   9
ENDBRANCH   7   8
ENDBRANCH   5   7
ENDBRANCH   4   5
ENDBRANCH   3   4
ENDBRANCH   2   3
ENDBRANCH   1   2
BRANCH   1  18
ATOM     18  C   UNL     1       3.912   6.575  18.449  0.00  0.00    +0.000 C 
BRANCH  18  19
ATOM     19  C   UNL     1       4.719   7.004  17.224  0.00  0.00    +0.000 C 
BRANCH  19  20
ATOM     20  N   UNL     1       5.721   5.990  16.898  0.00  0.00    +0.000 NA
ATOM     21  H   UNL     1       6.585   6.446  16.607  0.00  0.00    +0.000 HD
BRANCH  20  22
ATOM     22  C   UNL     1       5.268   5.141  15.799  0.00  0.00    +0.000 C 
BRANCH  22  23
ATOM     23  C   UNL     1       5.532   3.663  16.121  0.00  0.00    +0.000 C 
BRANCH  23  24
ATOM     24  N   UNL     1       4.875   3.321  17.382  0.00  0.00    +0.000 NA
ATOM     25  H   UNL     1       5.179   2.391  17.671  0.00  0.00    +0.000 HD
BRANCH  24  26
ATOM     26  C   UNL     1       3.421   3.322  17.244  0.00  0.00    +0.000 C 
BRANCH  26  30
ATOM     27  C   UNL     1       1.526   3.083  21.114  0.00  0.00    +0.000 A 
ATOM     28  C   UNL     1       0.801   3.511  20.003  0.00  0.00    +0.000 A 
ATOM     29  C   UNL     1       1.414   3.572  18.753  0.00  0.00    +0.000 A 
ATOM     30  C   UNL     1       2.763   3.220  18.599  0.00  0.00    +0.000 A 
ATOM     31  C   UNL     1       3.482   2.790  19.722  0.00  0.00    +0.000 A 
ATOM     32  C   UNL     1       2.864   2.719  20.975  0.00  0.00    +0.000 A 
ENDBRANCH  26  30
ENDBRANCH  24  26
ENDBRANCH  23  24
ENDBRANCH  22  23
ENDBRANCH  20  22
ENDBRANCH  19  20
ENDBRANCH  18  19
ENDBRANCH   1  18
TORSDOF 17
ENDMDL
MODEL 7
REMARK VINA RESULT:      -6.1      1.721      9.238
REMARK  Name = 
REMARK  17 active torsions:
REMARK  status: ('A' for Active; 'I' for Inactive)
REMARK    1  A    between atoms: C_4  and  C_5
REMARK    2  A    between atoms: C_5  and  N_6
REMARK    3  A    between atoms: N_6  and  C_7
REMARK    4  A    between atoms: C_7  and  C_8
REMARK    5  A    between atoms: C_8  and  N_9
REMARK    6  A    between atoms: N_9  and  C_10
REMARK    7  A    between atoms: C_10  and  C_11
REMARK    8  A    between atoms: C_11  and  C_12
REMARK    9  A    between atoms: C_12  and  C_13
REMARK   10  A    between atoms: C_13  and  C_14
REMARK   11  A    between atoms: C_14  and  C_15
REMARK   12  A    between atoms: C_15  and  N_16
REMARK   13  A    between atoms: N_16  and  C_17
REMARK   14  A    between atoms: C_17  and  C_18
REMARK   15  A    between atoms: C_18  and  N_19
REMARK   16  A    between atoms: N_19  and  C_20
REMARK   17  A    between atoms: C_20  and  C_21
REMARK                            x       y       z     vdW  Elec       q    Type
REMARK                         _______ _______ _______ _____ _____    ______ ____
ROOT
ATOM      1  C   UNL     1       1.996   6.652  20.052  0.00  0.00    +0.000 C 
ENDROOT
BRANCH   1   2
ATOM      2  C   UNL     1       2.396   5.254  20.490  0.00  0.00    +0.000 C 
BRANCH   2   3
ATOM      3  C   UNL     1       1.190   4.327  20.408  0.00  0.00    +0.000 C 
BRANCH   3   4
ATOM      4  C   UNL     1       1.649   2.882  20.337  0.00  0.00    +0.000 C 
BRANCH   4   5
ATOM      5  N   UNL     1       2.948   2.768  20.990  0.00  0.00    +0.000 NA
ATOM      6  H   UNL     1       2.880   2.115  21.771  0.00  0.00    +0.000 HD
BRANCH   5   7
ATOM      7  C   UNL     1       3.939   2.277  20.034  0.00  0.00    +0.000 C 
BRANCH   7   8
ATOM      8  C   UNL     1       3.250   1.746  18.772  0.00  0.00    +0.000 C 
BRANCH   8   9
ATOM      9  N   UNL     1       3.971   2.223  17.596  0.00  0.00    +0.000 NA
ATOM     10  H   UNL     1       3.829   1.579  16.817  0.00  0.00    +0.000 HD
BRANCH   9  11
ATOM     11  C   UNL     1       3.514   3.548  17.192  0.00  0.00    +0.000 C 
BRANCH  11  12
ATOM     12  C   UNL     1       4.701   4.453  16.966  0.00  0.00    +0.000 A 
ATOM     13  C   UNL     1       5.784   4.036  16.183  0.00  0.00    +0.000 A 
ATOM     14  C   UNL     1       6.886   4.874  16.004  0.00  0.00    +0.000 A 
ATOM     15  C   UNL     1       6.914   6.133  16.604  0.00  0.00    +0.000 A 
ATOM     16  C   UNL     1       5.839   6.559  17.382  0.00  0.00    +0.000 A 
ATOM     17  C   UNL     1       4.737   5.726  17.559  0.00  0.00    +0.000 A 
ENDBRANCH  11  12
ENDBRANCH   9  11
ENDBRANCH   8   9
ENDBRANCH   7   8
ENDBRANCH   5   7
ENDBRANCH   4   5
ENDBRANCH   3   4
ENDBRANCH   2   3
ENDBRANCH   1   2
BRANCH   1  18
ATOM     18  C   UNL     1       1.183   7.360  21.131  0.00  0.00    +0.000 C 
BRANCH  18  19
ATOM     19  C   UNL     1       1.299   8.880  21.034  0.00  0.00    +0.000 C 
BRANCH  19  20
ATOM     20  N   UNL     1       1.063   9.319  19.659  0.00  0.00    +0.000 NA
ATOM     21  H   UNL     1       1.832   9.011  19.066  0.00  0.00    +0.000 HD
BRANCH  20  22
ATOM     22  C   UNL     1       0.989  10.776  19.580  0.00  0.00    +0.000 C 
BRANCH  22  23
ATOM     23  C   UNL     1       0.041  11.322  20.657  0.00  0.00    +0.000 C 
BRANCH  23  24
ATOM     24  N   UNL     1      -1.342  11.110  20.234  0.00  0.00    +0.000 NA
ATOM     25  H   UNL     1      -1.419  10.185  19.811  0.00  0.00    +0.000 HD
BRANCH  24  26
ATOM     26  C   UNL     1      -1.760  12.113  19.258  0.00  0.00    +0.000 C 
BRANCH  26  30
ATOM     27  C   UNL     1      -3.793  10.254  15.935  0.00  0.00    +0.000 A 
ATOM     28  C   UNL     1      -2.473   9.918  16.228  0.00  0.00    +0.000 A 
ATOM     29  C   UNL     1      -1.826  10.510  17.311  0.00  0.00    +0.000 A 
ATOM     30  C   UNL     1      -2.486  11.457  18.107  0.00  0.00    +0.000 A 
ATOM     31  C   UNL     1      -3.813  11.788  17.807  0.00  0.00    +0.000 A 
ATOM     32  C   UNL     1      -4.465  11.185  16.725  0.00  0.00    +0.000 A 
ENDBRANCH  26  30
ENDBRANCH  24  26
ENDBRANCH  23  24
ENDBRANCH  22  23
ENDBRANCH  20  22
ENDBRANCH  19  20
ENDBRANCH  18  19
ENDBRANCH   1  18
TORSDOF 17
ENDMDL
MODEL 8
REMARK VINA RESULT:      -6.1      1.254      1.972
REMARK  Name = 
REMARK  17 active torsions:
REMARK  status: ('A' for Active; 'I' for Inactive)
REMARK    1  A    between atoms: C_4  and  C_5
REMARK    2  A    between atoms: C_5  and  N_6
REMARK    3  A    between atoms: N_6  and  C_7
REMARK    4  A    between atoms: C_7  and  C_8
REMARK    5  A    between atoms: C_8  and  N_9
REMARK    6  A    between atoms: N_9  and  C_10
REMARK    7  A    between atoms: C_10  and  C_11
REMARK    8  A    between atoms: C_11  and  C_12
REMARK    9  A    between atoms: C_12  and  C_13
REMARK   10  A    between atoms: C_13  and  C_14
REMARK   11  A    between atoms: C_14  and  C_15
REMARK   12  A    between atoms: C_15  and  N_16
REMARK   13  A    between atoms: N_16  and  C_17
REMARK   14  A    between atoms: C_17  and  C_18
REMARK   15  A    between atoms: C_18  and  N_19
REMARK   16  A    between atoms: N_19  and  C_20
REMARK   17  A    between atoms: C_20  and  C_21
REMARK                            x       y       z     vdW  Elec       q    Type
REMARK                         _______ _______ _______ _____ _____    ______ ____
ROOT
ATOM      1  C   UNL     1       2.306   4.129  21.072  0.00  0.00    +0.000 C 
ENDROOT
BRANCH   1   2
ATOM      2  C   UNL     1       1.551   5.351  20.581  0.00  0.00    +0.000 C 
BRANCH   2   3
ATOM      3  C   UNL     1       2.532   6.355  19.988  0.00  0.00    +0.000 C 
BRANCH   3   4
ATOM      4  C   UNL     1       1.915   7.742  19.984  0.00  0.00    +0.000 C 
BRANCH   4   5
ATOM      5  N   UNL     1       1.575   8.111  21.353  0.00  0.00    +0.000 NA
ATOM      6  H   UNL     1       2.335   8.659  21.756  0.00  0.00    +0.000 HD
BRANCH   5   7
ATOM      7  C   UNL     1       0.349   8.906  21.359  0.00  0.00    +0.000 C 
BRANCH   7   8
ATOM      8  C   UNL     1       0.680  10.402  21.406  0.00  0.00    +0.000 C 
BRANCH   8   9
ATOM      9  N   UNL     1       0.712  10.928  20.045  0.00  0.00    +0.000 NA
ATOM     10  H   UNL     1       0.565  10.171  19.377  0.00  0.00    +0.000 HD
BRANCH   9  11
ATOM     11  C   UNL     1      -0.320  11.937  19.839  0.00  0.00    +0.000 C 
BRANCH  11  12
ATOM     12  C   UNL     1      -1.394  11.395  18.927  0.00  0.00    +0.000 A 
ATOM     13  C   UNL     1      -2.703  11.887  18.987  0.00  0.00    +0.000 A 
ATOM     14  C   UNL     1      -3.692  11.358  18.156  0.00  0.00    +0.000 A 
ATOM     15  C   UNL     1      -3.380  10.336  17.259  0.00  0.00    +0.000 A 
ATOM     16  C   UNL     1      -2.079   9.843  17.188  0.00  0.00    +0.000 A 
ATOM     17  C   UNL     1      -1.089  10.372  18.014  0.00  0.00    +0.000 A 
ENDBRANCH  11  12
ENDBRANCH   9  11
ENDBRANCH   8   9
ENDBRANCH   7   8
ENDBRANCH   5   7
ENDBRANCH   4   5
ENDBRANCH   3   4
ENDBRANCH   2   3
ENDBRANCH   1   2
BRANCH   1  18
ATOM     18  C   UNL     1       1.526   2.847  20.795  0.00  0.00    +0.000 C 
BRANCH  18  19
ATOM     19  C   UNL     1       0.462   3.043  19.716  0.00  0.00    +0.000 C 
BRANCH  19  20
ATOM     20  N   UNL     1       0.930   2.507  18.439  0.00  0.00    +0.000 NA
ATOM     21  H   UNL     1       0.162   2.034  17.964  0.00  0.00    +0.000 HD
BRANCH  20  22
ATOM     22  C   UNL     1       2.002   1.535  18.640  0.00  0.00    +0.000 C 
BRANCH  22  23
ATOM     23  C   UNL     1       3.270   1.975  17.895  0.00  0.00    +0.000 C 
BRANCH  23  24
ATOM     24  N   UNL     1       3.065   3.313  17.345  0.00  0.00    +0.000 NA
ATOM     25  H   UNL     1       3.112   3.263  16.327  0.00  0.00    +0.000 HD
BRANCH  24  26
ATOM     26  C   UNL     1       4.084   4.246  17.820  0.00  0.00    +0.000 C 
BRANCH  26  30
ATOM     27  C   UNL     1       7.198   4.771  14.876  0.00  0.00    +0.000 A 
ATOM     28  C   UNL     1       7.487   4.894  16.234  0.00  0.00    +0.000 A 
ATOM     29  C   UNL     1       6.481   4.709  17.181  0.00  0.00    +0.000 A 
ATOM     30  C   UNL     1       5.170   4.413  16.782  0.00  0.00    +0.000 A 
ATOM     31  C   UNL     1       4.889   4.289  15.416  0.00  0.00    +0.000 A 
ATOM     32  C   UNL     1       5.901   4.464  14.466  0.00  0.00    +0.000 A 
ENDBRANCH  26  30
ENDBRANCH  24  26
ENDBRANCH  23  24
ENDBRANCH  22  23
ENDBRANCH  20  22
ENDBRANCH  19  20
ENDBRANCH  18  19
ENDBRANCH   1  18
TORSDOF 17
ENDMDL
MODEL 9
REMARK VINA RESULT:      -6.1      2.775      4.994
REMARK  Name = 
REMARK  17 active torsions:
REMARK  status: ('A' for Active; 'I' for Inactive)
REMARK    1  A    between atoms: C_4  and  C_5
REMARK    2  A    between atoms: C_5  and  N_6
REMARK    3  A    between atoms: N_6  and  C_7
REMARK    4  A    between atoms: C_7  and  C_8
REMARK    5  A    between atoms: C_8  and  N_9
REMARK    6  A    between atoms: N_9  and  C_10
REMARK    7  A    between atoms: C_10  and  C_11
REMARK    8  A    between atoms: C_11  and  C_12
REMARK    9  A    between atoms: C_12  and  C_13
REMARK   10  A    between atoms: C_13  and  C_14
REMARK   11  A    between atoms: C_14  and  C_15
REMARK   12  A    between atoms: C_15  and  N_16
REMARK   13  A    between atoms: N_16  and  C_17
REMARK   14  A    between atoms: C_17  and  C_18
REMARK   15  A    between atoms: C_18  and  N_19
REMARK   16  A    between atoms: N_19  and  C_20
REMARK   17  A    between atoms: C_20  and  C_21
REMARK                            x       y       z     vdW  Elec       q    Type
REMARK                         _______ _______ _______ _____ _____    ______ ____
ROOT
ATOM      1  C   UNL     1       3.420   6.113  17.582  0.00  0.00    +0.000 C 
ENDROOT
BRANCH   1   2
ATOM      2  C   UNL     1       2.799   7.191  18.452  0.00  0.00    +0.000 C 
BRANCH   2   3
ATOM      3  C   UNL     1       2.644   8.474  17.645  0.00  0.00    +0.000 C 
BRANCH   3   4
ATOM      4  C   UNL     1       1.575   9.354  18.269  0.00  0.00    +0.000 C 
BRANCH   4   5
ATOM      5  N   UNL     1       2.057  10.729  18.303  0.00  0.00    +0.000 NA
ATOM      6  H   UNL     1       2.693  10.886  17.520  0.00  0.00    +0.000 HD
BRANCH   5   7
ATOM      7  C   UNL     1       0.927  11.650  18.200  0.00  0.00    +0.000 C 
BRANCH   7   8
ATOM      8  C   UNL     1       0.424  12.039  19.595  0.00  0.00    +0.000 C 
BRANCH   8   9
ATOM      9  N   UNL     1      -1.035  12.011  19.603  0.00  0.00    +0.000 NA
ATOM     10  H   UNL     1      -1.399  12.651  18.896  0.00  0.00    +0.000 HD
BRANCH   9  11
ATOM     11  C   UNL     1      -1.544  10.673  19.325  0.00  0.00    +0.000 C 
BRANCH  11  12
ATOM     12  C   UNL     1      -2.354  10.687  18.051  0.00  0.00    +0.000 A 
ATOM     13  C   UNL     1      -3.512  11.465  17.944  0.00  0.00    +0.000 A 
ATOM     14  C   UNL     1      -4.266  11.449  16.769  0.00  0.00    +0.000 A 
ATOM     15  C   UNL     1      -3.866  10.655  15.693  0.00  0.00    +0.000 A 
ATOM     16  C   UNL     1      -2.712   9.881  15.787  0.00  0.00    +0.000 A 
ATOM     17  C   UNL     1      -1.957   9.898  16.958  0.00  0.00    +0.000 A 
ENDBRANCH  11  12
ENDBRANCH   9  11
ENDBRANCH   8   9
ENDBRANCH   7   8
ENDBRANCH   5   7
ENDBRANCH   4   5
ENDBRANCH   3   4
ENDBRANCH   2   3
ENDBRANCH   1   2
BRANCH   1  18
ATOM     18  C   UNL     1       4.451   6.701  16.623  0.00  0.00    +0.000 C 
BRANCH  18  19
ATOM     19  C   UNL     1       5.835   6.807  17.261  0.00  0.00    +0.000 C 
BRANCH  19  20
ATOM     20  N   UNL     1       6.526   5.519  17.190  0.00  0.00    +0.000 NA
ATOM     21  H   UNL     1       5.857   4.785  16.961  0.00  0.00    +0.000 HD
BRANCH  20  22
ATOM     22  C   UNL     1       7.141   5.184  18.472  0.00  0.00    +0.000 C 
BRANCH  22  23
ATOM     23  C   UNL     1       6.082   4.663  19.454  0.00  0.00    +0.000 C 
BRANCH  23  24
ATOM     24  N   UNL     1       5.378   3.534  18.849  0.00  0.00    +0.000 NA
ATOM     25  H   UNL     1       4.690   3.891  18.185  0.00  0.00    +0.000 HD
BRANCH  24  26
ATOM     26  C   UNL     1       4.690   2.732  19.857  0.00  0.00    +0.000 C 
BRANCH  26  30
ATOM     27  C   UNL     1       0.419   3.323  19.656  0.00  0.00    +0.000 A 
ATOM     28  C   UNL     1       1.193   4.081  20.533  0.00  0.00    +0.000 A 
ATOM     29  C   UNL     1       2.573   3.897  20.584  0.00  0.00    +0.000 A 
ATOM     30  C   UNL     1       3.197   2.942  19.768  0.00  0.00    +0.000 A 
ATOM     31  C   UNL     1       2.412   2.186  18.888  0.00  0.00    +0.000 A 
ATOM     32  C   UNL     1       1.027   2.379  18.830  0.00  0.00    +0.000 A 
ENDBRANCH  26  30
ENDBRANCH  24  26
ENDBRANCH  23  24
ENDBRANCH  22  23
ENDBRANCH  20  22
ENDBRANCH  19  20
ENDBRANCH  18  19
ENDBRANCH   1  18
TORSDOF 17
ENDMDL
