MODEL 1
REMARK VINA RESULT:      -7.3      0.000      0.000
REMARK  Name = 
REMARK  9 active torsions:
REMARK  status: ('A' for Active; 'I' for Inactive)
REMARK    1  A    between atoms: C_1  and  C_2
REMARK    2  A    between atoms: C_5  and  C_6
REMARK    3  A    between atoms: C_7  and  N_8
REMARK    4  A    between atoms: C_14  and  N_15
REMARK    5  A    between atoms: N_18  and  C_19
REMARK    6  A    between atoms: C_22  and  C_23
REMARK    7  A    between atoms: C_23  and  C_24
REMARK    8  A    between atoms: C_24  and  C_25
REMARK    9  A    between atoms: C_25  and  O_27
REMARK                            x       y       z     vdW  Elec       q    Type
REMARK                         _______ _______ _______ _____ _____    ______ ____
ROOT
ATOM      1  N   UNL     1       1.083   9.573  20.513  0.00  0.00    +0.000 N 
ATOM      2  C   UNL     1       0.076   9.637  21.448  0.00  0.00    +0.000 C 
ATOM      3  O   UNL     1      -0.494   8.659  21.923  0.00  0.00    +0.000 OA
ATOM      4  N   UNL     1      -0.163  10.938  21.887  0.00  0.00    +0.000 N 
ATOM      5  C   UNL     1      -0.920  11.141  23.106  0.00  0.00    +0.000 C 
ATOM      6  C   UNL     1      -2.282  11.745  22.806  0.00  0.00    +0.000 C 
ATOM      7  C   UNL     1      -2.235  12.979  21.876  0.00  0.00    +0.000 C 
ATOM      8  C   UNL     1      -1.273  12.763  20.635  0.00  0.00    +0.000 C 
ATOM      9  C   UNL     1       0.063  12.160  21.119  0.00  0.00    +0.000 C 
ATOM     10  H   UNL     1       1.756  10.306  20.656  0.00  0.00    +0.000 HD
ENDROOT
BRANCH   1  17
ATOM     11  C   UNL     1       2.190   4.744  20.926  0.00  0.00    +0.000 C 
ATOM     12  C   UNL     1       2.134   6.013  20.128  0.00  0.00    +0.000 A 
ATOM     13  C   UNL     1       2.481   6.010  18.773  0.00  0.00    +0.000 A 
ATOM     14  C   UNL     1       2.393   7.178  18.018  0.00  0.00    +0.000 A 
ATOM     15  C   UNL     1       1.940   8.370  18.597  0.00  0.00    +0.000 A 
ATOM     16  C   UNL     1       1.906   9.621  17.764  0.00  0.00    +0.000 C 
ATOM     17  C   UNL     1       1.599   8.381  19.963  0.00  0.00    +0.000 A 
ATOM     18  C   UNL     1       1.711   7.212  20.724  0.00  0.00    +0.000 A 
ENDBRANCH   1  17
BRANCH   7  19
ATOM     19  N   UNL     1      -3.541  13.637  21.583  0.00  0.00    +0.000 NA
ATOM     20  C   UNL     1      -3.437  15.092  21.309  0.00  0.00    +0.000 C 
ATOM     21  C   UNL     1      -3.526  16.045  22.541  0.00  0.00    +0.000 C 
ATOM     22  N   UNL     1      -4.599  15.738  23.505  0.00  0.00    +0.000 NA
ATOM     23  C   UNL     1      -4.397  16.450  24.766  0.00  0.00    +0.000 C 
ATOM     24  C   UNL     1      -4.707  14.301  23.767  0.00  0.00    +0.000 C 
ATOM     25  C   UNL     1      -4.698  13.470  22.479  0.00  0.00    +0.000 C 
ENDBRANCH   7  19
BRANCH   8  26
ATOM     26  C   UNL     1      -1.905  11.957  19.482  0.00  0.00    +0.000 C 
BRANCH  26  27
ATOM     27  C   UNL     1      -1.321  12.072  18.081  0.00  0.00    +0.000 C 
BRANCH  27  28
ATOM     28  C   UNL     1      -1.918  11.042  17.161  0.00  0.00    +0.000 C 
ATOM     29  O   UNL     1      -1.955   9.847  17.419  0.00  0.00    +0.000 OA
BRANCH  28  30
ATOM     30  O   UNL     1      -2.370  11.553  15.996  0.00  0.00    +0.000 OA
ATOM     31  H   UNL     1      -3.342  11.623  15.935  0.00  0.00    +0.000 HD
ENDBRANCH  28  30
ENDBRANCH  27  28
ENDBRANCH  26  27
ENDBRANCH   8  26
TORSDOF 6
ENDMDL
MODEL 2
REMARK VINA RESULT:      -7.3      1.189      1.456
REMARK  Name = 
REMARK  9 active torsions:
REMARK  status: ('A' for Active; 'I' for Inactive)
REMARK    1  A    between atoms: C_1  and  C_2
REMARK    2  A    between atoms: C_5  and  C_6
REMARK    3  A    between atoms: C_7  and  N_8
REMARK    4  A    between atoms: C_14  and  N_15
REMARK    5  A    between atoms: N_18  and  C_19
REMARK    6  A    between atoms: C_22  and  C_23
REMARK    7  A    between atoms: C_23  and  C_24
REMARK    8  A    between atoms: C_24  and  C_25
REMARK    9  A    between atoms: C_25  and  O_27
REMARK                            x       y       z     vdW  Elec       q    Type
REMARK                         _______ _______ _______ _____ _____    ______ ____
ROOT
ATOM      1  N   UNL     1       1.496   8.422  20.526  0.00  0.00    +0.000 N 
ATOM      2  C   UNL     1       0.400   8.732  21.296  0.00  0.00    +0.000 C 
ATOM      3  O   UNL     1      -0.431   7.914  21.683  0.00  0.00    +0.000 OA
ATOM      4  N   UNL     1       0.383  10.069  21.688  0.00  0.00    +0.000 N 
ATOM      5  C   UNL     1      -0.485  10.472  22.776  0.00  0.00    +0.000 C 
ATOM      6  C   UNL     1      -1.627  11.338  22.270  0.00  0.00    +0.000 C 
ATOM      7  C   UNL     1      -1.180  12.499  21.353  0.00  0.00    +0.000 C 
ATOM      8  C   UNL     1      -0.114  12.040  20.273  0.00  0.00    +0.000 C 
ATOM      9  C   UNL     1       0.976  11.187  20.958  0.00  0.00    +0.000 C 
ATOM     10  H   UNL     1       2.283   9.002  20.766  0.00  0.00    +0.000 HD
ENDROOT
BRANCH   1  17
ATOM     11  C   UNL     1       1.602   3.496  21.189  0.00  0.00    +0.000 C 
ATOM     12  C   UNL     1       1.869   4.713  20.354  0.00  0.00    +0.000 A 
ATOM     13  C   UNL     1       2.334   4.579  19.041  0.00  0.00    +0.000 A 
ATOM     14  C   UNL     1       2.545   5.705  18.247  0.00  0.00    +0.000 A 
ATOM     15  C   UNL     1       2.280   6.987  18.742  0.00  0.00    +0.000 A 
ATOM     16  C   UNL     1       2.568   8.181  17.874  0.00  0.00    +0.000 C 
ATOM     17  C   UNL     1       1.821   7.129  20.066  0.00  0.00    +0.000 A 
ATOM     18  C   UNL     1       1.632   5.998  20.868  0.00  0.00    +0.000 A 
ENDBRANCH   1  17
BRANCH   7  19
ATOM     19  N   UNL     1      -2.257  13.406  20.862  0.00  0.00    +0.000 NA
ATOM     20  C   UNL     1      -2.374  14.674  21.626  0.00  0.00    +0.000 C 
ATOM     21  C   UNL     1      -3.313  14.655  22.872  0.00  0.00    +0.000 C 
ATOM     22  N   UNL     1      -4.621  14.005  22.673  0.00  0.00    +0.000 NA
ATOM     23  C   UNL     1      -5.278  13.734  23.951  0.00  0.00    +0.000 C 
ATOM     24  C   UNL     1      -4.505  12.760  21.910  0.00  0.00    +0.000 C 
ATOM     25  C   UNL     1      -3.632  12.920  20.660  0.00  0.00    +0.000 C 
ENDBRANCH   7  19
BRANCH   8  26
ATOM     26  C   UNL     1      -0.726  11.343  19.041  0.00  0.00    +0.000 C 
BRANCH  26  27
ATOM     27  C   UNL     1      -1.339  12.188  17.932  0.00  0.00    +0.000 C 
BRANCH  27  28
ATOM     28  C   UNL     1      -2.463  11.453  17.253  0.00  0.00    +0.000 C 
ATOM     29  O   UNL     1      -3.328  10.836  17.859  0.00  0.00    +0.000 OA
BRANCH  28  30
ATOM     30  O   UNL     1      -2.403  11.497  15.905  0.00  0.00    +0.000 OA
ATOM     31  H   UNL     1      -1.772  12.152  15.550  0.00  0.00    +0.000 HD
ENDBRANCH  28  30
ENDBRANCH  27  28
ENDBRANCH  26  27
ENDBRANCH   8  26
TORSDOF 6
ENDMDL
MODEL 3
REMARK VINA RESULT:      -7.2      1.806      2.194
REMARK  Name = 
REMARK  9 active torsions:
REMARK  status: ('A' for Active; 'I' for Inactive)
REMARK    1  A    between atoms: C_1  and  C_2
REMARK    2  A    between atoms: C_5  and  C_6
REMARK    3  A    between atoms: C_7  and  N_8
REMARK    4  A    between atoms: C_14  and  N_15
REMARK    5  A    between atoms: N_18  and  C_19
REMARK    6  A    between atoms: C_22  and  C_23
REMARK    7  A    between atoms: C_23  and  C_24
REMARK    8  A    between atoms: C_24  and  C_25
REMARK    9  A    between atoms: C_25  and  O_27
REMARK                            x       y       z     vdW  Elec       q    Type
REMARK                         _______ _______ _______ _____ _____    ______ ____
ROOT
ATOM      1  N   UNL     1       1.682   7.918  20.804  0.00  0.00    +0.000 N 
ATOM      2  C   UNL     1       0.512   8.267  21.438  0.00  0.00    +0.000 C 
ATOM      3  O   UNL     1      -0.497   7.567  21.466  0.00  0.00    +0.000 OA
ATOM      4  N   UNL     1       0.624   9.463  22.145  0.00  0.00    +0.000 N 
ATOM      5  C   UNL     1      -0.376   9.785  23.143  0.00  0.00    +0.000 C 
ATOM      6  C   UNL     1      -1.240  10.951  22.691  0.00  0.00    +0.000 C 
ATOM      7  C   UNL     1      -0.438  12.170  22.181  0.00  0.00    +0.000 C 
ATOM      8  C   UNL     1       0.743  11.752  21.209  0.00  0.00    +0.000 C 
ATOM      9  C   UNL     1       1.521  10.570  21.826  0.00  0.00    +0.000 C 
ATOM     10  H   UNL     1       2.483   8.263  21.307  0.00  0.00    +0.000 HD
ENDROOT
BRANCH   1  17
ATOM     11  C   UNL     1       1.467   2.959  20.537  0.00  0.00    +0.000 C 
ATOM     12  C   UNL     1       1.777   4.292  19.925  0.00  0.00    +0.000 A 
ATOM     13  C   UNL     1       2.164   4.380  18.583  0.00  0.00    +0.000 A 
ATOM     14  C   UNL     1       2.415   5.621  18.000  0.00  0.00    +0.000 A 
ATOM     15  C   UNL     1       2.268   6.801  18.739  0.00  0.00    +0.000 A 
ATOM     16  C   UNL     1       2.596   8.117  18.090  0.00  0.00    +0.000 C 
ATOM     17  C   UNL     1       1.889   6.717  20.093  0.00  0.00    +0.000 A 
ATOM     18  C   UNL     1       1.660   5.470  20.682  0.00  0.00    +0.000 A 
ENDBRANCH   1  17
BRANCH   7  19
ATOM     19  N   UNL     1      -1.236  13.359  21.764  0.00  0.00    +0.000 NA
ATOM     20  C   UNL     1      -0.642  14.658  22.170  0.00  0.00    +0.000 C 
ATOM     21  C   UNL     1      -1.044  15.202  23.576  0.00  0.00    +0.000 C 
ATOM     22  N   UNL     1      -2.480  15.123  23.902  0.00  0.00    +0.000 NA
ATOM     23  C   UNL     1      -2.711  15.329  25.331  0.00  0.00    +0.000 C 
ATOM     24  C   UNL     1      -3.067  13.846  23.491  0.00  0.00    +0.000 C 
ATOM     25  C   UNL     1      -2.675  13.455  22.061  0.00  0.00    +0.000 C 
ENDBRANCH   7  19
BRANCH   8  26
ATOM     26  C   UNL     1       0.296  11.477  19.758  0.00  0.00    +0.000 C 
BRANCH  26  27
ATOM     27  C   UNL     1       0.780  12.391  18.641  0.00  0.00    +0.000 C 
BRANCH  27  28
ATOM     28  C   UNL     1      -0.304  13.346  18.218  0.00  0.00    +0.000 C 
ATOM     29  O   UNL     1      -0.379  14.499  18.616  0.00  0.00    +0.000 OA
BRANCH  28  30
ATOM     30  O   UNL     1      -1.217  12.796  17.391  0.00  0.00    +0.000 OA
ATOM     31  H   UNL     1      -0.841  12.213  16.703  0.00  0.00    +0.000 HD
ENDBRANCH  28  30
ENDBRANCH  27  28
ENDBRANCH  26  27
ENDBRANCH   8  26
TORSDOF 6
ENDMDL
MODEL 4
REMARK VINA RESULT:      -7.2      1.922      2.840
REMARK  Name = 
REMARK  9 active torsions:
REMARK  status: ('A' for Active; 'I' for Inactive)
REMARK    1  A    between atoms: C_1  and  C_2
REMARK    2  A    between atoms: C_5  and  C_6
REMARK    3  A    between atoms: C_7  and  N_8
REMARK    4  A    between atoms: C_14  and  N_15
REMARK    5  A    between atoms: N_18  and  C_19
REMARK    6  A    between atoms: C_22  and  C_23
REMARK    7  A    between atoms: C_23  and  C_24
REMARK    8  A    between atoms: C_24  and  C_25
REMARK    9  A    between atoms: C_25  and  O_27
REMARK                            x       y       z     vdW  Elec       q    Type
REMARK                         _______ _______ _______ _____ _____    ______ ____
ROOT
ATOM      1  N   UNL     1       2.169   7.337  19.113  0.00  0.00    +0.000 N 
ATOM      2  C   UNL     1       1.612   7.628  20.337  0.00  0.00    +0.000 C 
ATOM      3  O   UNL     1       1.265   6.785  21.160  0.00  0.00    +0.000 OA
ATOM      4  N   UNL     1       1.580   8.997  20.597  0.00  0.00    +0.000 N 
ATOM      5  C   UNL     1       1.366   9.449  21.957  0.00  0.00    +0.000 C 
ATOM      6  C   UNL     1       0.003  10.103  22.106  0.00  0.00    +0.000 C 
ATOM      7  C   UNL     1      -0.308  11.168  21.028  0.00  0.00    +0.000 C 
ATOM      8  C   UNL     1       0.085  10.683  19.571  0.00  0.00    +0.000 C 
ATOM      9  C   UNL     1       1.497  10.061  19.599  0.00  0.00    +0.000 C 
ATOM     10  H   UNL     1       2.851   8.029  18.852  0.00  0.00    +0.000 HD
ENDROOT
BRANCH   1  17
ATOM     11  C   UNL     1       0.886   2.550  18.728  0.00  0.00    +0.000 C 
ATOM     12  C   UNL     1       1.801   3.692  18.403  0.00  0.00    +0.000 A 
ATOM     13  C   UNL     1       2.857   3.515  17.502  0.00  0.00    +0.000 A 
ATOM     14  C   UNL     1       3.686   4.584  17.166  0.00  0.00    +0.000 A 
ATOM     15  C   UNL     1       3.469   5.855  17.710  0.00  0.00    +0.000 A 
ATOM     16  C   UNL     1       4.415   6.972  17.364  0.00  0.00    +0.000 C 
ATOM     17  C   UNL     1       2.414   6.037  18.626  0.00  0.00    +0.000 A 
ATOM     18  C   UNL     1       1.597   4.957  18.978  0.00  0.00    +0.000 A 
ENDBRANCH   1  17
BRANCH   7  19
ATOM     19  N   UNL     1      -1.616  11.872  21.151  0.00  0.00    +0.000 NA
ATOM     20  C   UNL     1      -1.665  13.183  20.457  0.00  0.00    +0.000 C 
ATOM     21  C   UNL     1      -1.210  14.428  21.281  0.00  0.00    +0.000 C 
ATOM     22  N   UNL     1      -1.738  14.508  22.655  0.00  0.00    +0.000 NA
ATOM     23  C   UNL     1      -1.005  15.496  23.447  0.00  0.00    +0.000 C 
ATOM     24  C   UNL     1      -1.699  13.212  23.335  0.00  0.00    +0.000 C 
ATOM     25  C   UNL     1      -2.252  12.078  22.464  0.00  0.00    +0.000 C 
ENDBRANCH   7  19
BRANCH   8  26
ATOM     26  C   UNL     1      -0.959   9.757  18.913  0.00  0.00    +0.000 C 
BRANCH  26  27
ATOM     27  C   UNL     1      -1.444  10.061  17.503  0.00  0.00    +0.000 C 
BRANCH  27  28
ATOM     28  C   UNL     1      -2.206  11.358  17.462  0.00  0.00    +0.000 C 
ATOM     29  O   UNL     1      -3.379  11.463  17.794  0.00  0.00    +0.000 OA
BRANCH  28  30
ATOM     30  O   UNL     1      -1.488  12.394  16.979  0.00  0.00    +0.000 OA
ATOM     31  H   UNL     1      -0.524  12.237  16.946  0.00  0.00    +0.000 HD
ENDBRANCH  28  30
ENDBRANCH  27  28
ENDBRANCH  26  27
ENDBRANCH   8  26
TORSDOF 6
ENDMDL
MODEL 5
REMARK VINA RESULT:      -7.1      1.721      2.066
REMARK  Name = 
REMARK  9 active torsions:
REMARK  status: ('A' for Active; 'I' for Inactive)
REMARK    1  A    between atoms: C_1  and  C_2
REMARK    2  A    between atoms: C_5  and  C_6
REMARK    3  A    between atoms: C_7  and  N_8
REMARK    4  A    between atoms: C_14  and  N_15
REMARK    5  A    between atoms: N_18  and  C_19
REMARK    6  A    between atoms: C_22  and  C_23
REMARK    7  A    between atoms: C_23  and  C_24
REMARK    8  A    between atoms: C_24  and  C_25
REMARK    9  A    between atoms: C_25  and  O_27
REMARK                            x       y       z     vdW  Elec       q    Type
REMARK                         _______ _______ _______ _____ _____    ______ ____
ROOT
ATOM      1  N   UNL     1       1.392   8.723  20.734  0.00  0.00    +0.000 N 
ATOM      2  C   UNL     1       0.246   8.943  21.463  0.00  0.00    +0.000 C 
ATOM      3  O   UNL     1      -0.616   8.095  21.675  0.00  0.00    +0.000 OA
ATOM      4  N   UNL     1       0.214  10.214  22.035  0.00  0.00    +0.000 N 
ATOM      5  C   UNL     1      -0.725  10.478  23.106  0.00  0.00    +0.000 C 
ATOM      6  C   UNL     1      -1.821  11.427  22.649  0.00  0.00    +0.000 C 
ATOM      7  C   UNL     1      -1.300  12.695  21.934  0.00  0.00    +0.000 C 
ATOM      8  C   UNL     1      -0.166  12.370  20.877  0.00  0.00    +0.000 C 
ATOM      9  C   UNL     1       0.866  11.411  21.509  0.00  0.00    +0.000 C 
ATOM     10  H   UNL     1       2.164   9.250  21.105  0.00  0.00    +0.000 HD
ENDROOT
BRANCH   1  17
ATOM     11  C   UNL     1       1.745   3.766  20.873  0.00  0.00    +0.000 C 
ATOM     12  C   UNL     1       1.903   5.072  20.153  0.00  0.00    +0.000 A 
ATOM     13  C   UNL     1       2.283   5.094  18.806  0.00  0.00    +0.000 A 
ATOM     14  C   UNL     1       2.392   6.303  18.122  0.00  0.00    +0.000 A 
ATOM     15  C   UNL     1       2.109   7.515  18.764  0.00  0.00    +0.000 A 
ATOM     16  C   UNL     1       2.287   8.803  18.008  0.00  0.00    +0.000 C 
ATOM     17  C   UNL     1       1.737   7.500  20.122  0.00  0.00    +0.000 A 
ATOM     18  C   UNL     1       1.650   6.286  20.812  0.00  0.00    +0.000 A 
ENDBRANCH   1  17
BRANCH   7  19
ATOM     19  N   UNL     1      -2.333  13.681  21.502  0.00  0.00    +0.000 NA
ATOM     20  C   UNL     1      -2.693  14.676  22.543  0.00  0.00    +0.000 C 
ATOM     21  C   UNL     1      -3.847  14.282  23.517  0.00  0.00    +0.000 C 
ATOM     22  N   UNL     1      -5.038  13.687  22.883  0.00  0.00    +0.000 NA
ATOM     23  C   UNL     1      -5.902  13.049  23.875  0.00  0.00    +0.000 C 
ATOM     24  C   UNL     1      -4.681  12.714  21.849  0.00  0.00    +0.000 C 
ATOM     25  C   UNL     1      -3.602  13.242  20.897  0.00  0.00    +0.000 C 
ENDBRANCH   7  19
BRANCH   8  26
ATOM     26  C   UNL     1      -0.696  11.861  19.521  0.00  0.00    +0.000 C 
BRANCH  26  27
ATOM     27  C   UNL     1      -0.606  12.762  18.297  0.00  0.00    +0.000 C 
BRANCH  27  28
ATOM     28  C   UNL     1      -0.088  14.126  18.669  0.00  0.00    +0.000 C 
ATOM     29  O   UNL     1       1.096  14.429  18.637  0.00  0.00    +0.000 OA
BRANCH  28  30
ATOM     30  O   UNL     1      -1.050  14.975  19.088  0.00  0.00    +0.000 OA
ATOM     31  H   UNL     1      -0.850  15.919  18.935  0.00  0.00    +0.000 HD
ENDBRANCH  28  30
ENDBRANCH  27  28
ENDBRANCH  26  27
ENDBRANCH   8  26
TORSDOF 6
ENDMDL
MODEL 6
REMARK VINA RESULT:      -7.1      2.121      2.398
REMARK  Name = 
REMARK  9 active torsions:
REMARK  status: ('A' for Active; 'I' for Inactive)
REMARK    1  A    between atoms: C_1  and  C_2
REMARK    2  A    between atoms: C_5  and  C_6
REMARK    3  A    between atoms: C_7  and  N_8
REMARK    4  A    between atoms: C_14  and  N_15
REMARK    5  A    between atoms: N_18  and  C_19
REMARK    6  A    between atoms: C_22  and  C_23
REMARK    7  A    between atoms: C_23  and  C_24
REMARK    8  A    between atoms: C_24  and  C_25
REMARK    9  A    between atoms: C_25  and  O_27
REMARK                            x       y       z     vdW  Elec       q    Type
REMARK                         _______ _______ _______ _____ _____    ______ ____
ROOT
ATOM      1  N   UNL     1       1.604   8.119  20.820  0.00  0.00    +0.000 N 
ATOM      2  C   UNL     1       0.424   8.472  21.433  0.00  0.00    +0.000 C 
ATOM      3  O   UNL     1      -0.584   7.770  21.456  0.00  0.00    +0.000 OA
ATOM      4  N   UNL     1       0.521   9.678  22.125  0.00  0.00    +0.000 N 
ATOM      5  C   UNL     1      -0.495  10.010  23.104  0.00  0.00    +0.000 C 
ATOM      6  C   UNL     1      -1.355  11.166  22.625  0.00  0.00    +0.000 C 
ATOM      7  C   UNL     1      -0.550  12.382  22.110  0.00  0.00    +0.000 C 
ATOM      8  C   UNL     1       0.646  11.955  21.161  0.00  0.00    +0.000 C 
ATOM      9  C   UNL     1       1.419  10.784  21.804  0.00  0.00    +0.000 C 
ATOM     10  H   UNL     1       2.396   8.473  21.330  0.00  0.00    +0.000 HD
ENDROOT
BRANCH   1  17
ATOM     11  C   UNL     1       1.431   3.155  20.626  0.00  0.00    +0.000 C 
ATOM     12  C   UNL     1       1.734   4.482  19.997  0.00  0.00    +0.000 A 
ATOM     13  C   UNL     1       2.129   4.553  18.656  0.00  0.00    +0.000 A 
ATOM     14  C   UNL     1       2.373   5.787  18.056  0.00  0.00    +0.000 A 
ATOM     15  C   UNL     1       2.212   6.976  18.776  0.00  0.00    +0.000 A 
ATOM     16  C   UNL     1       2.534   8.285  18.110  0.00  0.00    +0.000 C 
ATOM     17  C   UNL     1       1.825   6.910  20.129  0.00  0.00    +0.000 A 
ATOM     18  C   UNL     1       1.603   5.669  20.735  0.00  0.00    +0.000 A 
ENDBRANCH   1  17
BRANCH   7  19
ATOM     19  N   UNL     1      -1.346  13.562  21.666  0.00  0.00    +0.000 NA
ATOM     20  C   UNL     1      -0.760  14.868  22.060  0.00  0.00    +0.000 C 
ATOM     21  C   UNL     1      -1.181  15.432  23.452  0.00  0.00    +0.000 C 
ATOM     22  N   UNL     1      -2.620  15.355  23.761  0.00  0.00    +0.000 NA
ATOM     23  C   UNL     1      -2.869  15.581  25.184  0.00  0.00    +0.000 C 
ATOM     24  C   UNL     1      -3.199  14.070  23.363  0.00  0.00    +0.000 C 
ATOM     25  C   UNL     1      -2.789  13.659  21.944  0.00  0.00    +0.000 C 
ENDBRANCH   7  19
BRANCH   8  26
ATOM     26  C   UNL     1       0.222  11.659  19.708  0.00  0.00    +0.000 C 
BRANCH  26  27
ATOM     27  C   UNL     1       0.544  12.668  18.615  0.00  0.00    +0.000 C 
BRANCH  27  28
ATOM     28  C   UNL     1       2.028  12.759  18.385  0.00  0.00    +0.000 C 
ATOM     29  O   UNL     1       2.752  13.560  18.962  0.00  0.00    +0.000 OA
BRANCH  28  30
ATOM     30  O   UNL     1       2.486  11.905  17.446  0.00  0.00    +0.000 OA
ATOM     31  H   UNL     1       3.456  11.792  17.440  0.00  0.00    +0.000 HD
ENDBRANCH  28  30
ENDBRANCH  27  28
ENDBRANCH  26  27
ENDBRANCH   8  26
TORSDOF 6
ENDMDL
MODEL 7
REMARK VINA RESULT:      -7.0      0.880      1.276
REMARK  Name = 
REMARK  9 active torsions:
REMARK  status: ('A' for Active; 'I' for Inactive)
REMARK    1  A    between atoms: C_1  and  C_2
REMARK    2  A    between atoms: C_5  and  C_6
REMARK    3  A    between atoms: C_7  and  N_8
REMARK    4  A    between atoms: C_14  and  N_15
REMARK    5  A    between atoms: N_18  and  C_19
REMARK    6  A    between atoms: C_22  and  C_23
REMARK    7  A    between atoms: C_23  and  C_24
REMARK    8  A    between atoms: C_24  and  C_25
REMARK    9  A    between atoms: C_25  and  O_27
REMARK                            x       y       z     vdW  Elec       q    Type
REMARK                         _______ _______ _______ _____ _____    ______ ____
ROOT
ATOM      1  N   UNL     1       0.991   9.772  20.579  0.00  0.00    +0.000 N 
ATOM      2  C   UNL     1      -0.079   9.846  21.442  0.00  0.00    +0.000 C 
ATOM      3  O   UNL     1      -0.714   8.875  21.845  0.00  0.00    +0.000 OA
ATOM      4  N   UNL     1      -0.305  11.142  21.902  0.00  0.00    +0.000 N 
ATOM      5  C   UNL     1      -1.141  11.336  23.069  0.00  0.00    +0.000 C 
ATOM      6  C   UNL     1      -2.457  11.996  22.692  0.00  0.00    +0.000 C 
ATOM      7  C   UNL     1      -2.302  13.254  21.806  0.00  0.00    +0.000 C 
ATOM      8  C   UNL     1      -1.261  13.039  20.630  0.00  0.00    +0.000 C 
ATOM      9  C   UNL     1       0.016  12.376  21.190  0.00  0.00    +0.000 C 
ATOM     10  H   UNL     1       1.676  10.477  20.792  0.00  0.00    +0.000 HD
ENDROOT
BRANCH   1  17
ATOM     11  C   UNL     1       1.979   4.914  20.955  0.00  0.00    +0.000 C 
ATOM     12  C   UNL     1       1.984   6.197  20.178  0.00  0.00    +0.000 A 
ATOM     13  C   UNL     1       2.389   6.209  18.839  0.00  0.00    +0.000 A 
ATOM     14  C   UNL     1       2.357   7.391  18.101  0.00  0.00    +0.000 A 
ATOM     15  C   UNL     1       1.904   8.583  18.681  0.00  0.00    +0.000 A 
ATOM     16  C   UNL     1       1.932   9.848  17.869  0.00  0.00    +0.000 C 
ATOM     17  C   UNL     1       1.506   8.578  20.031  0.00  0.00    +0.000 A 
ATOM     18  C   UNL     1       1.560   7.396  20.776  0.00  0.00    +0.000 A 
ENDBRANCH   1  17
BRANCH   7  19
ATOM     19  N   UNL     1      -3.561  13.965  21.441  0.00  0.00    +0.000 NA
ATOM     20  C   UNL     1      -4.051  14.900  22.485  0.00  0.00    +0.000 C 
ATOM     21  C   UNL     1      -5.005  14.303  23.566  0.00  0.00    +0.000 C 
ATOM     22  N   UNL     1      -6.078  13.431  23.056  0.00  0.00    +0.000 NA
ATOM     23  C   UNL     1      -6.694  12.661  24.136  0.00  0.00    +0.000 C 
ATOM     24  C   UNL     1      -5.596  12.517  22.019  0.00  0.00    +0.000 C 
ATOM     25  C   UNL     1      -4.743  13.228  20.962  0.00  0.00    +0.000 C 
ENDBRANCH   7  19
BRANCH   8  26
ATOM     26  C   UNL     1      -1.835  12.288  19.411  0.00  0.00    +0.000 C 
BRANCH  26  27
ATOM     27  C   UNL     1      -0.913  11.925  18.255  0.00  0.00    +0.000 C 
BRANCH  27  28
ATOM     28  C   UNL     1      -1.607  11.018  17.276  0.00  0.00    +0.000 C 
ATOM     29  O   UNL     1      -1.591   9.798  17.357  0.00  0.00    +0.000 OA
BRANCH  28  30
ATOM     30  O   UNL     1      -2.215  11.675  16.265  0.00  0.00    +0.000 OA
ATOM     31  H   UNL     1      -2.261  12.644  16.383  0.00  0.00    +0.000 HD
ENDBRANCH  28  30
ENDBRANCH  27  28
ENDBRANCH  26  27
ENDBRANCH   8  26
TORSDOF 6
ENDMDL
MODEL 8
REMARK VINA RESULT:      -7.0      1.594      1.988
REMARK  Name = 
REMARK  9 active torsions:
REMARK  status: ('A' for Active; 'I' for Inactive)
REMARK    1  A    between atoms: C_1  and  C_2
REMARK    2  A    between atoms: C_5  and  C_6
REMARK    3  A    between atoms: C_7  and  N_8
REMARK    4  A    between atoms: C_14  and  N_15
REMARK    5  A    between atoms: N_18  and  C_19
REMARK    6  A    between atoms: C_22  and  C_23
REMARK    7  A    between atoms: C_23  and  C_24
REMARK    8  A    between atoms: C_24  and  C_25
REMARK    9  A    between atoms: C_25  and  O_27
REMARK                            x       y       z     vdW  Elec       q    Type
REMARK                         _______ _______ _______ _____ _____    ______ ____
ROOT
ATOM      1  N   UNL     1       1.709   8.115  20.659  0.00  0.00    +0.000 N 
ATOM      2  C   UNL     1       0.529   8.563  21.206  0.00  0.00    +0.000 C 
ATOM      3  O   UNL     1      -0.484   7.878  21.328  0.00  0.00    +0.000 OA
ATOM      4  N   UNL     1       0.632   9.857  21.714  0.00  0.00    +0.000 N 
ATOM      5  C   UNL     1      -0.385  10.336  22.628  0.00  0.00    +0.000 C 
ATOM      6  C   UNL     1      -1.235  11.416  21.978  0.00  0.00    +0.000 C 
ATOM      7  C   UNL     1      -0.418  12.536  21.294  0.00  0.00    +0.000 C 
ATOM      8  C   UNL     1       0.778  11.966  20.425  0.00  0.00    +0.000 C 
ATOM      9  C   UNL     1       1.540  10.897  21.238  0.00  0.00    +0.000 C 
ATOM     10  H   UNL     1       2.502   8.535  21.116  0.00  0.00    +0.000 HD
ENDROOT
BRANCH   1  17
ATOM     11  C   UNL     1       1.464   3.178  21.183  0.00  0.00    +0.000 C 
ATOM     12  C   UNL     1       1.799   4.395  20.375  0.00  0.00    +0.000 A 
ATOM     13  C   UNL     1       2.219   4.266  19.046  0.00  0.00    +0.000 A 
ATOM     14  C   UNL     1       2.492   5.397  18.278  0.00  0.00    +0.000 A 
ATOM     15  C   UNL     1       2.337   6.680  18.815  0.00  0.00    +0.000 A 
ATOM     16  C   UNL     1       2.690   7.874  17.973  0.00  0.00    +0.000 C 
ATOM     17  C   UNL     1       1.924   6.816  20.155  0.00  0.00    +0.000 A 
ATOM     18  C   UNL     1       1.672   5.679  20.931  0.00  0.00    +0.000 A 
ENDBRANCH   1  17
BRANCH   7  19
ATOM     19  N   UNL     1      -1.203  13.643  20.676  0.00  0.00    +0.000 NA
ATOM     20  C   UNL     1      -0.489  14.945  20.643  0.00  0.00    +0.000 C 
ATOM     21  C   UNL     1      -0.656  15.867  21.890  0.00  0.00    +0.000 C 
ATOM     22  N   UNL     1      -2.033  16.003  22.400  0.00  0.00    +0.000 NA
ATOM     23  C   UNL     1      -2.046  16.591  23.739  0.00  0.00    +0.000 C 
ATOM     24  C   UNL     1      -2.739  14.721  22.422  0.00  0.00    +0.000 C 
ATOM     25  C   UNL     1      -2.578  13.941  21.113  0.00  0.00    +0.000 C 
ENDBRANCH   7  19
BRANCH   8  26
ATOM     26  C   UNL     1       0.358  11.461  19.029  0.00  0.00    +0.000 C 
BRANCH  26  27
ATOM     27  C   UNL     1      -1.061  10.956  18.813  0.00  0.00    +0.000 C 
BRANCH  27  28
ATOM     28  C   UNL     1      -1.774  11.780  17.774  0.00  0.00    +0.000 C 
ATOM     29  O   UNL     1      -2.791  11.412  17.204  0.00  0.00    +0.000 OA
BRANCH  28  30
ATOM     30  O   UNL     1      -1.160  12.948  17.493  0.00  0.00    +0.000 OA
ATOM     31  H   UNL     1      -0.668  13.337  18.242  0.00  0.00    +0.000 HD
ENDBRANCH  28  30
ENDBRANCH  27  28
ENDBRANCH  26  27
ENDBRANCH   8  26
TORSDOF 6
ENDMDL
MODEL 9
REMARK VINA RESULT:      -7.0      1.370      1.669
REMARK  Name = 
REMARK  9 active torsions:
REMARK  status: ('A' for Active; 'I' for Inactive)
REMARK    1  A    between atoms: C_1  and  C_2
REMARK    2  A    between atoms: C_5  and  C_6
REMARK    3  A    between atoms: C_7  and  N_8
REMARK    4  A    between atoms: C_14  and  N_15
REMARK    5  A    between atoms: N_18  and  C_19
REMARK    6  A    between atoms: C_22  and  C_23
REMARK    7  A    between atoms: C_23  and  C_24
REMARK    8  A    between atoms: C_24  and  C_25
REMARK    9  A    between atoms: C_25  and  O_27
REMARK                            x       y       z     vdW  Elec       q    Type
REMARK                         _______ _______ _______ _____ _____    ______ ____
ROOT
ATOM      1  N   UNL     1       1.588   8.197  20.770  0.00  0.00    +0.000 N 
ATOM      2  C   UNL     1       0.433   8.532  21.439  0.00  0.00    +0.000 C 
ATOM      3  O   UNL     1      -0.538   7.790  21.563  0.00  0.00    +0.000 OA
ATOM      4  N   UNL     1       0.519   9.775  22.062  0.00  0.00    +0.000 N 
ATOM      5  C   UNL     1      -0.448  10.116  23.087  0.00  0.00    +0.000 C 
ATOM      6  C   UNL     1      -1.389  11.208  22.606  0.00  0.00    +0.000 C 
ATOM      7  C   UNL     1      -0.673  12.427  21.979  0.00  0.00    +0.000 C 
ATOM      8  C   UNL     1       0.479  12.001  20.978  0.00  0.00    +0.000 C 
ATOM      9  C   UNL     1       1.343  10.900  21.628  0.00  0.00    +0.000 C 
ATOM     10  H   UNL     1       2.393   8.611  21.209  0.00  0.00    +0.000 HD
ENDROOT
BRANCH   1  17
ATOM     11  C   UNL     1       1.405   3.229  20.751  0.00  0.00    +0.000 C 
ATOM     12  C   UNL     1       1.725   4.532  20.081  0.00  0.00    +0.000 A 
ATOM     13  C   UNL     1       2.149   4.554  18.748  0.00  0.00    +0.000 A 
ATOM     14  C   UNL     1       2.409   5.764  18.109  0.00  0.00    +0.000 A 
ATOM     15  C   UNL     1       2.236   6.979  18.782  0.00  0.00    +0.000 A 
ATOM     16  C   UNL     1       2.576   8.263  18.076  0.00  0.00    +0.000 C 
ATOM     17  C   UNL     1       1.820   6.963  20.128  0.00  0.00    +0.000 A 
ATOM     18  C   UNL     1       1.581   5.745  20.774  0.00  0.00    +0.000 A 
ENDBRANCH   1  17
BRANCH   7  19
ATOM     19  N   UNL     1      -1.548  13.548  21.529  0.00  0.00    +0.000 NA
ATOM     20  C   UNL     1      -1.027  14.896  21.869  0.00  0.00    +0.000 C 
ATOM     21  C   UNL     1      -1.437  15.475  23.258  0.00  0.00    +0.000 C 
ATOM     22  N   UNL     1      -2.860  15.325  23.614  0.00  0.00    +0.000 NA
ATOM     23  C   UNL     1      -3.079  15.578  25.038  0.00  0.00    +0.000 C 
ATOM     24  C   UNL     1      -3.376  13.999  23.269  0.00  0.00    +0.000 C 
ATOM     25  C   UNL     1      -2.985  13.571  21.850  0.00  0.00    +0.000 C 
ENDBRANCH   7  19
BRANCH   8  26
ATOM     26  C   UNL     1      -0.021  11.611  19.572  0.00  0.00    +0.000 C 
BRANCH  26  27
ATOM     27  C   UNL     1      -1.438  11.080  19.403  0.00  0.00    +0.000 C 
BRANCH  27  28
ATOM     28  C   UNL     1      -1.556  10.245  18.157  0.00  0.00    +0.000 C 
ATOM     29  O   UNL     1      -2.605   9.745  17.777  0.00  0.00    +0.000 OA
BRANCH  28  30
ATOM     30  O   UNL     1      -0.382  10.057  17.517  0.00  0.00    +0.000 OA
ATOM     31  H   UNL     1       0.282  10.755  17.678  0.00  0.00    +0.000 HD
ENDBRANCH  28  30
ENDBRANCH  27  28
ENDBRANCH  26  27
ENDBRANCH   8  26
TORSDOF 6
ENDMDL
