MODEL 1
REMARK VINA RESULT:      -7.2      0.000      0.000
REMARK  Name = 
REMARK  4 active torsions:
REMARK  status: ('A' for Active; 'I' for Inactive)
REMARK    1  A    between atoms: C_1  and  C_2
REMARK    2  A    between atoms: C_10  and  C_11
REMARK    3  A    between atoms: C_11  and  C_12
REMARK    4  A    between atoms: C_12  and  C_13
REMARK                            x       y       z     vdW  Elec       q    Type
REMARK                         _______ _______ _______ _____ _____    ______ ____
ROOT
ATOM      1  C   UNL     1      -0.918  10.517  18.318  0.00  0.00    +0.000 C 
ATOM      2  C   UNL     1       0.434  10.002  18.805  0.00  0.00    +0.000 C 
ATOM      3  C   UNL     1       1.103   9.115  17.738  0.00  0.00    +0.000 C 
ATOM      4  C   UNL     1       2.410   8.496  18.250  0.00  0.00    +0.000 C 
ATOM      5  N   UNL     1       2.102   7.804  19.493  0.00  0.00    +0.000 N 
ATOM      6  C   UNL     1       2.488   6.493  19.682  0.00  0.00    +0.000 A 
ATOM      7  C   UNL     1       1.746   5.632  20.501  0.00  0.00    +0.000 A 
ATOM      8  N   UNL     1       2.042   4.329  20.726  0.00  0.00    +0.000 NA
ATOM      9  C   UNL     1       3.150   3.901  20.096  0.00  0.00    +0.000 A 
ATOM     10  C   UNL     1       3.925   4.722  19.286  0.00  0.00    +0.000 A 
ATOM     11  N   UNL     1       3.584   6.021  19.047  0.00  0.00    +0.000 NA
ATOM     12  C   UNL     1       1.579   8.614  20.582  0.00  0.00    +0.000 C 
ATOM     13  C   UNL     1       0.262   9.235  20.127  0.00  0.00    +0.000 C 
ENDROOT
BRANCH  10  14
ATOM     14  C   UNL     1       5.171   4.177  18.647  0.00  0.00    +0.000 C 
BRANCH  14  15
ATOM     15  C   UNL     1       6.037   5.276  18.022  0.00  0.00    +0.000 C 
BRANCH  15  16
ATOM     16  C   UNL     1       5.920   5.277  16.497  0.00  0.00    +0.000 C 
ATOM     17  C   UNL     1       5.510   3.931  15.920  0.00  0.00    +0.000 C 
ATOM     18  C   UNL     1       5.922   4.049  14.468  0.00  0.00    +0.000 C 
ATOM     19  C   UNL     1       7.133   4.969  14.493  0.00  0.00    +0.000 C 
ATOM     20  N   UNL     1       7.217   5.508  15.854  0.00  0.00    +0.000 NA
ATOM     21  H   UNL     1       7.451   6.500  15.842  0.00  0.00    +0.000 HD
ENDBRANCH  15  16
ENDBRANCH  14  15
ENDBRANCH  10  14
TORSDOF 3
ENDMDL
MODEL 2
REMARK VINA RESULT:      -7.1      2.958      4.771
REMARK  Name = 
REMARK  4 active torsions:
REMARK  status: ('A' for Active; 'I' for Inactive)
REMARK    1  A    between atoms: C_1  and  C_2
REMARK    2  A    between atoms: C_10  and  C_11
REMARK    3  A    between atoms: C_11  and  C_12
REMARK    4  A    between atoms: C_12  and  C_13
REMARK                            x       y       z     vdW  Elec       q    Type
REMARK                         _______ _______ _______ _____ _____    ______ ____
ROOT
ATOM      1  C   UNL     1       1.120   2.584  21.407  0.00  0.00    +0.000 C 
ATOM      2  C   UNL     1       1.577   3.526  20.296  0.00  0.00    +0.000 C 
ATOM      3  C   UNL     1       2.344   2.758  19.203  0.00  0.00    +0.000 C 
ATOM      4  C   UNL     1       2.909   3.704  18.134  0.00  0.00    +0.000 C 
ATOM      5  N   UNL     1       3.702   4.711  18.823  0.00  0.00    +0.000 N 
ATOM      6  C   UNL     1       4.994   4.981  18.424  0.00  0.00    +0.000 A 
ATOM      7  C   UNL     1       5.956   5.425  19.341  0.00  0.00    +0.000 A 
ATOM      8  N   UNL     1       7.249   5.696  19.039  0.00  0.00    +0.000 NA
ATOM      9  C   UNL     1       7.560   5.516  17.744  0.00  0.00    +0.000 A 
ATOM     10  C   UNL     1       6.636   5.091  16.795  0.00  0.00    +0.000 A 
ATOM     11  N   UNL     1       5.349   4.790  17.134  0.00  0.00    +0.000 NA
ATOM     12  C   UNL     1       3.004   5.550  19.784  0.00  0.00    +0.000 C 
ATOM     13  C   UNL     1       2.441   4.655  20.883  0.00  0.00    +0.000 C 
ENDROOT
BRANCH  10  14
ATOM     14  C   UNL     1       7.053   4.951  15.359  0.00  0.00    +0.000 C 
BRANCH  14  15
ATOM     15  C   UNL     1       5.855   4.879  14.406  0.00  0.00    +0.000 C 
BRANCH  15  16
ATOM     16  C   UNL     1       5.942   3.655  13.493  0.00  0.00    +0.000 C 
ATOM     17  C   UNL     1       7.050   3.752  12.455  0.00  0.00    +0.000 C 
ATOM     18  C   UNL     1       6.637   2.719  11.428  0.00  0.00    +0.000 C 
ATOM     19  C   UNL     1       5.118   2.708  11.492  0.00  0.00    +0.000 C 
ATOM     20  N   UNL     1       4.745   3.515  12.658  0.00  0.00    +0.000 NA
ATOM     21  H   UNL     1       3.983   3.080  13.177  0.00  0.00    +0.000 HD
ENDBRANCH  15  16
ENDBRANCH  14  15
ENDBRANCH  10  14
TORSDOF 3
ENDMDL
MODEL 3
REMARK VINA RESULT:      -7.1      1.133      1.822
REMARK  Name = 
REMARK  4 active torsions:
REMARK  status: ('A' for Active; 'I' for Inactive)
REMARK    1  A    between atoms: C_1  and  C_2
REMARK    2  A    between atoms: C_10  and  C_11
REMARK    3  A    between atoms: C_11  and  C_12
REMARK    4  A    between atoms: C_12  and  C_13
REMARK                            x       y       z     vdW  Elec       q    Type
REMARK                         _______ _______ _______ _____ _____    ______ ____
ROOT
ATOM      1  C   UNL     1      -0.833  10.529  18.337  0.00  0.00    +0.000 C 
ATOM      2  C   UNL     1       0.503   9.985  18.838  0.00  0.00    +0.000 C 
ATOM      3  C   UNL     1       1.172   9.097  17.771  0.00  0.00    +0.000 C 
ATOM      4  C   UNL     1       2.460   8.449  18.296  0.00  0.00    +0.000 C 
ATOM      5  N   UNL     1       2.121   7.750  19.527  0.00  0.00    +0.000 N 
ATOM      6  C   UNL     1       2.480   6.430  19.707  0.00  0.00    +0.000 A 
ATOM      7  C   UNL     1       1.711   5.574  20.506  0.00  0.00    +0.000 A 
ATOM      8  N   UNL     1       1.980   4.263  20.721  0.00  0.00    +0.000 NA
ATOM      9  C   UNL     1       3.089   3.822  20.102  0.00  0.00    +0.000 A 
ATOM     10  C   UNL     1       3.891   4.638  19.312  0.00  0.00    +0.000 A 
ATOM     11  N   UNL     1       3.577   5.945  19.082  0.00  0.00    +0.000 NA
ATOM     12  C   UNL     1       1.596   8.557  20.617  0.00  0.00    +0.000 C 
ATOM     13  C   UNL     1       0.298   9.207  20.149  0.00  0.00    +0.000 C 
ENDROOT
BRANCH  10  14
ATOM     14  C   UNL     1       5.137   4.077  18.686  0.00  0.00    +0.000 C 
BRANCH  14  15
ATOM     15  C   UNL     1       5.381   4.627  17.277  0.00  0.00    +0.000 C 
BRANCH  15  16
ATOM     16  C   UNL     1       6.588   5.566  17.246  0.00  0.00    +0.000 C 
ATOM     17  C   UNL     1       7.296   5.685  18.587  0.00  0.00    +0.000 C 
ATOM     18  C   UNL     1       8.093   6.963  18.432  0.00  0.00    +0.000 C 
ATOM     19  C   UNL     1       7.257   7.818  17.491  0.00  0.00    +0.000 C 
ATOM     20  N   UNL     1       6.190   6.951  16.980  0.00  0.00    +0.000 NA
ATOM     21  H   UNL     1       6.038   7.106  15.983  0.00  0.00    +0.000 HD
ENDBRANCH  15  16
ENDBRANCH  14  15
ENDBRANCH  10  14
TORSDOF 3
ENDMDL
MODEL 4
REMARK VINA RESULT:      -7.0      2.858      4.831
REMARK  Name = 
REMARK  4 active torsions:
REMARK  status: ('A' for Active; 'I' for Inactive)
REMARK    1  A    between atoms: C_1  and  C_2
REMARK    2  A    between atoms: C_10  and  C_11
REMARK    3  A    between atoms: C_11  and  C_12
REMARK    4  A    between atoms: C_12  and  C_13
REMARK                            x       y       z     vdW  Elec       q    Type
REMARK                         _______ _______ _______ _____ _____    ______ ____
ROOT
ATOM      1  C   UNL     1       1.374   2.623  21.550  0.00  0.00    +0.000 C 
ATOM      2  C   UNL     1       1.651   3.536  20.358  0.00  0.00    +0.000 C 
ATOM      3  C   UNL     1       2.395   2.778  19.243  0.00  0.00    +0.000 C 
ATOM      4  C   UNL     1       2.783   3.707  18.085  0.00  0.00    +0.000 C 
ATOM      5  N   UNL     1       3.533   4.817  18.654  0.00  0.00    +0.000 N 
ATOM      6  C   UNL     1       4.759   5.177  18.133  0.00  0.00    +0.000 A 
ATOM      7  C   UNL     1       5.746   5.755  18.942  0.00  0.00    +0.000 A 
ATOM      8  N   UNL     1       6.980   6.121  18.519  0.00  0.00    +0.000 NA
ATOM      9  C   UNL     1       7.201   5.895  17.212  0.00  0.00    +0.000 A 
ATOM     10  C   UNL     1       6.248   5.338  16.368  0.00  0.00    +0.000 A 
ATOM     11  N   UNL     1       5.026   4.944  16.828  0.00  0.00    +0.000 NA
ATOM     12  C   UNL     1       2.840   5.646  19.627  0.00  0.00    +0.000 C 
ATOM     13  C   UNL     1       2.452   4.769  20.813  0.00  0.00    +0.000 C 
ENDROOT
BRANCH  10  14
ATOM     14  C   UNL     1       6.559   5.153  14.909  0.00  0.00    +0.000 C 
BRANCH  14  15
ATOM     15  C   UNL     1       6.313   3.717  14.436  0.00  0.00    +0.000 C 
BRANCH  15  16
ATOM     16  C   UNL     1       5.934   3.675  12.955  0.00  0.00    +0.000 C 
ATOM     17  C   UNL     1       4.433   3.650  12.714  0.00  0.00    +0.000 C 
ATOM     18  C   UNL     1       4.330   3.141  11.292  0.00  0.00    +0.000 C 
ATOM     19  C   UNL     1       5.537   2.230  11.129  0.00  0.00    +0.000 C 
ATOM     20  N   UNL     1       6.372   2.430  12.318  0.00  0.00    +0.000 NA
ATOM     21  H   UNL     1       7.360   2.471  12.069  0.00  0.00    +0.000 HD
ENDBRANCH  15  16
ENDBRANCH  14  15
ENDBRANCH  10  14
TORSDOF 3
ENDMDL
MODEL 5
REMARK VINA RESULT:      -7.0      3.400      5.310
REMARK  Name = 
REMARK  4 active torsions:
REMARK  status: ('A' for Active; 'I' for Inactive)
REMARK    1  A    between atoms: C_1  and  C_2
REMARK    2  A    between atoms: C_10  and  C_11
REMARK    3  A    between atoms: C_11  and  C_12
REMARK    4  A    between atoms: C_12  and  C_13
REMARK                            x       y       z     vdW  Elec       q    Type
REMARK                         _______ _______ _______ _____ _____    ______ ____
ROOT
ATOM      1  C   UNL     1       1.776   2.882  21.810  0.00  0.00    +0.000 C 
ATOM      2  C   UNL     1       1.953   2.800  20.295  0.00  0.00    +0.000 C 
ATOM      3  C   UNL     1       3.390   2.381  19.930  0.00  0.00    +0.000 C 
ATOM      4  C   UNL     1       3.621   2.402  18.413  0.00  0.00    +0.000 C 
ATOM      5  N   UNL     1       3.246   3.725  17.937  0.00  0.00    +0.000 N 
ATOM      6  C   UNL     1       4.107   4.458  17.147  0.00  0.00    +0.000 A 
ATOM      7  C   UNL     1       4.101   5.859  17.176  0.00  0.00    +0.000 A 
ATOM      8  N   UNL     1       4.923   6.654  16.450  0.00  0.00    +0.000 NA
ATOM      9  C   UNL     1       5.773   5.982  15.653  0.00  0.00    +0.000 A 
ATOM     10  C   UNL     1       5.806   4.594  15.580  0.00  0.00    +0.000 A 
ATOM     11  N   UNL     1       4.992   3.817  16.351  0.00  0.00    +0.000 NA
ATOM     12  C   UNL     1       1.865   4.131  18.147  0.00  0.00    +0.000 C 
ATOM     13  C   UNL     1       1.592   4.147  19.647  0.00  0.00    +0.000 C 
ENDROOT
BRANCH  10  14
ATOM     14  C   UNL     1       6.760   3.919  14.635  0.00  0.00    +0.000 C 
BRANCH  14  15
ATOM     15  C   UNL     1       6.944   4.702  13.331  0.00  0.00    +0.000 C 
BRANCH  15  16
ATOM     16  C   UNL     1       6.502   3.879  12.120  0.00  0.00    +0.000 C 
ATOM     17  C   UNL     1       5.149   3.209  12.305  0.00  0.00    +0.000 C 
ATOM     18  C   UNL     1       5.163   2.128  11.246  0.00  0.00    +0.000 C 
ATOM     19  C   UNL     1       6.629   1.744  11.118  0.00  0.00    +0.000 C 
ATOM     20  N   UNL     1       7.387   2.733  11.891  0.00  0.00    +0.000 NA
ATOM     21  H   UNL     1       8.233   3.015  11.397  0.00  0.00    +0.000 HD
ENDBRANCH  15  16
ENDBRANCH  14  15
ENDBRANCH  10  14
TORSDOF 3
ENDMDL
MODEL 6
REMARK VINA RESULT:      -6.7      0.825      1.026
REMARK  Name = 
REMARK  4 active torsions:
REMARK  status: ('A' for Active; 'I' for Inactive)
REMARK    1  A    between atoms: C_1  and  C_2
REMARK    2  A    between atoms: C_10  and  C_11
REMARK    3  A    between atoms: C_11  and  C_12
REMARK    4  A    between atoms: C_12  and  C_13
REMARK                            x       y       z     vdW  Elec       q    Type
REMARK                         _______ _______ _______ _____ _____    ______ ____
ROOT
ATOM      1  C   UNL     1      -0.673  10.713  18.855  0.00  0.00    +0.000 C 
ATOM      2  C   UNL     1       0.614  10.014  19.287  0.00  0.00    +0.000 C 
ATOM      3  C   UNL     1       1.159   9.116  18.161  0.00  0.00    +0.000 C 
ATOM      4  C   UNL     1       2.388   8.317  18.614  0.00  0.00    +0.000 C 
ATOM      5  N   UNL     1       2.015   7.598  19.823  0.00  0.00    +0.000 N 
ATOM      6  C   UNL     1       2.243   6.242  19.932  0.00  0.00    +0.000 A 
ATOM      7  C   UNL     1       1.413   5.430  20.716  0.00  0.00    +0.000 A 
ATOM      8  N   UNL     1       1.553   4.090  20.864  0.00  0.00    +0.000 NA
ATOM      9  C   UNL     1       2.594   3.570  20.190  0.00  0.00    +0.000 A 
ATOM     10  C   UNL     1       3.453   4.338  19.412  0.00  0.00    +0.000 A 
ATOM     11  N   UNL     1       3.266   5.679  19.251  0.00  0.00    +0.000 NA
ATOM     12  C   UNL     1       1.605   8.401  20.964  0.00  0.00    +0.000 C 
ATOM     13  C   UNL     1       0.367   9.199  20.569  0.00  0.00    +0.000 C 
ENDROOT
BRANCH  10  14
ATOM     14  C   UNL     1       4.617   3.686  18.721  0.00  0.00    +0.000 C 
BRANCH  14  15
ATOM     15  C   UNL     1       5.616   4.707  18.169  0.00  0.00    +0.000 C 
BRANCH  15  16
ATOM     16  C   UNL     1       6.129   4.294  16.788  0.00  0.00    +0.000 C 
ATOM     17  C   UNL     1       7.021   5.340  16.136  0.00  0.00    +0.000 C 
ATOM     18  C   UNL     1       6.993   4.940  14.676  0.00  0.00    +0.000 C 
ATOM     19  C   UNL     1       5.620   4.316  14.482  0.00  0.00    +0.000 C 
ATOM     20  N   UNL     1       5.037   4.170  15.819  0.00  0.00    +0.000 NA
ATOM     21  H   UNL     1       4.559   3.274  15.914  0.00  0.00    +0.000 HD
ENDBRANCH  15  16
ENDBRANCH  14  15
ENDBRANCH  10  14
TORSDOF 3
ENDMDL
MODEL 7
REMARK VINA RESULT:      -6.5      2.642      4.820
REMARK  Name = 
REMARK  4 active torsions:
REMARK  status: ('A' for Active; 'I' for Inactive)
REMARK    1  A    between atoms: C_1  and  C_2
REMARK    2  A    between atoms: C_10  and  C_11
REMARK    3  A    between atoms: C_11  and  C_12
REMARK    4  A    between atoms: C_12  and  C_13
REMARK                            x       y       z     vdW  Elec       q    Type
REMARK                         _______ _______ _______ _____ _____    ______ ____
ROOT
ATOM      1  C   UNL     1       1.519   2.342  22.295  0.00  0.00    +0.000 C 
ATOM      2  C   UNL     1       1.631   2.525  20.783  0.00  0.00    +0.000 C 
ATOM      3  C   UNL     1       3.105   2.511  20.334  0.00  0.00    +0.000 C 
ATOM      4  C   UNL     1       3.246   2.807  18.835  0.00  0.00    +0.000 C 
ATOM      5  N   UNL     1       2.555   4.061  18.575  0.00  0.00    +0.000 N 
ATOM      6  C   UNL     1       3.184   5.081  17.893  0.00  0.00    +0.000 A 
ATOM      7  C   UNL     1       2.860   6.422  18.137  0.00  0.00    +0.000 A 
ATOM      8  N   UNL     1       3.441   7.485  17.528  0.00  0.00    +0.000 NA
ATOM      9  C   UNL     1       4.379   7.154  16.624  0.00  0.00    +0.000 A 
ATOM     10  C   UNL     1       4.723   5.838  16.337  0.00  0.00    +0.000 A 
ATOM     11  N   UNL     1       4.149   4.788  16.993  0.00  0.00    +0.000 NA
ATOM     12  C   UNL     1       1.130   4.098  18.867  0.00  0.00    +0.000 C 
ATOM     13  C   UNL     1       0.939   3.831  20.356  0.00  0.00    +0.000 C 
ENDROOT
BRANCH  10  14
ATOM     14  C   UNL     1       5.756   5.549  15.285  0.00  0.00    +0.000 C 
BRANCH  14  15
ATOM     15  C   UNL     1       6.824   4.563  15.768  0.00  0.00    +0.000 C 
BRANCH  15  16
ATOM     16  C   UNL     1       7.684   5.172  16.877  0.00  0.00    +0.000 C 
ATOM     17  C   UNL     1       7.196   4.830  18.277  0.00  0.00    +0.000 C 
ATOM     18  C   UNL     1       7.867   5.884  19.132  0.00  0.00    +0.000 C 
ATOM     19  C   UNL     1       7.986   7.093  18.217  0.00  0.00    +0.000 C 
ATOM     20  N   UNL     1       7.618   6.636  16.874  0.00  0.00    +0.000 NA
ATOM     21  H   UNL     1       8.240   7.031  16.169  0.00  0.00    +0.000 HD
ENDBRANCH  15  16
ENDBRANCH  14  15
ENDBRANCH  10  14
TORSDOF 3
ENDMDL
MODEL 8
REMARK VINA RESULT:      -6.5      2.410      7.647
REMARK  Name = 
REMARK  4 active torsions:
REMARK  status: ('A' for Active; 'I' for Inactive)
REMARK    1  A    between atoms: C_1  and  C_2
REMARK    2  A    between atoms: C_10  and  C_11
REMARK    3  A    between atoms: C_11  and  C_12
REMARK    4  A    between atoms: C_12  and  C_13
REMARK                            x       y       z     vdW  Elec       q    Type
REMARK                         _______ _______ _______ _____ _____    ______ ____
ROOT
ATOM      1  C   UNL     1       3.004   1.999  18.244  0.00  0.00    +0.000 C 
ATOM      2  C   UNL     1       3.139   3.273  19.073  0.00  0.00    +0.000 C 
ATOM      3  C   UNL     1       1.759   3.901  19.348  0.00  0.00    +0.000 C 
ATOM      4  C   UNL     1       1.881   5.242  20.084  0.00  0.00    +0.000 C 
ATOM      5  N   UNL     1       2.774   6.084  19.302  0.00  0.00    +0.000 N 
ATOM      6  C   UNL     1       2.402   7.365  18.948  0.00  0.00    +0.000 A 
ATOM      7  C   UNL     1       2.875   7.956  17.770  0.00  0.00    +0.000 A 
ATOM      8  N   UNL     1       2.546   9.198  17.338  0.00  0.00    +0.000 NA
ATOM      9  C   UNL     1       1.712   9.860  18.157  0.00  0.00    +0.000 A 
ATOM     10  C   UNL     1       1.228   9.321  19.344  0.00  0.00    +0.000 A 
ATOM     11  N   UNL     1       1.545   8.054  19.736  0.00  0.00    +0.000 NA
ATOM     12  C   UNL     1       4.131   5.600  19.109  0.00  0.00    +0.000 C 
ATOM     13  C   UNL     1       4.065   4.273  18.359  0.00  0.00    +0.000 C 
ENDROOT
BRANCH  10  14
ATOM     14  C   UNL     1       0.328  10.141  20.224  0.00  0.00    +0.000 C 
BRANCH  14  15
ATOM     15  C   UNL     1      -0.367  11.271  19.459  0.00  0.00    +0.000 C 
BRANCH  15  16
ATOM     16  C   UNL     1      -1.806  10.898  19.099  0.00  0.00    +0.000 C 
ATOM     17  C   UNL     1      -1.917  10.075  17.824  0.00  0.00    +0.000 C 
ATOM     18  C   UNL     1      -3.372  10.247  17.441  0.00  0.00    +0.000 C 
ATOM     19  C   UNL     1      -3.736  11.633  17.952  0.00  0.00    +0.000 C 
ATOM     20  N   UNL     1      -2.609  12.080  18.777  0.00  0.00    +0.000 NA
ATOM     21  H   UNL     1      -2.937  12.545  19.623  0.00  0.00    +0.000 HD
ENDBRANCH  15  16
ENDBRANCH  14  15
ENDBRANCH  10  14
TORSDOF 3
ENDMDL
MODEL 9
REMARK VINA RESULT:      -6.5      2.580      4.596
REMARK  Name = 
REMARK  4 active torsions:
REMARK  status: ('A' for Active; 'I' for Inactive)
REMARK    1  A    between atoms: C_1  and  C_2
REMARK    2  A    between atoms: C_10  and  C_11
REMARK    3  A    between atoms: C_11  and  C_12
REMARK    4  A    between atoms: C_12  and  C_13
REMARK                            x       y       z     vdW  Elec       q    Type
REMARK                         _______ _______ _______ _____ _____    ______ ____
ROOT
ATOM      1  C   UNL     1       1.202   2.317  22.203  0.00  0.00    +0.000 C 
ATOM      2  C   UNL     1       1.689   2.485  20.766  0.00  0.00    +0.000 C 
ATOM      3  C   UNL     1       3.196   2.802  20.728  0.00  0.00    +0.000 C 
ATOM      4  C   UNL     1       3.682   3.086  19.301  0.00  0.00    +0.000 C 
ATOM      5  N   UNL     1       2.837   4.140  18.758  0.00  0.00    +0.000 N 
ATOM      6  C   UNL     1       3.395   5.262  18.182  0.00  0.00    +0.000 A 
ATOM      7  C   UNL     1       2.734   6.496  18.214  0.00  0.00    +0.000 A 
ATOM      8  N   UNL     1       3.217   7.650  17.691  0.00  0.00    +0.000 NA
ATOM      9  C   UNL     1       4.418   7.523  17.101  0.00  0.00    +0.000 A 
ATOM     10  C   UNL     1       5.105   6.317  17.032  0.00  0.00    +0.000 A 
ATOM     11  N   UNL     1       4.613   5.179  17.600  0.00  0.00    +0.000 NA
ATOM     12  C   UNL     1       1.415   3.852  18.656  0.00  0.00    +0.000 C 
ATOM     13  C   UNL     1       0.878   3.584  20.059  0.00  0.00    +0.000 C 
ENDROOT
BRANCH  10  14
ATOM     14  C   UNL     1       6.428   6.251  16.321  0.00  0.00    +0.000 C 
BRANCH  14  15
ATOM     15  C   UNL     1       7.050   4.852  16.372  0.00  0.00    +0.000 C 
BRANCH  15  16
ATOM     16  C   UNL     1       6.921   4.135  15.027  0.00  0.00    +0.000 C 
ATOM     17  C   UNL     1       7.418   4.962  13.851  0.00  0.00    +0.000 C 
ATOM     18  C   UNL     1       6.768   4.280  12.665  0.00  0.00    +0.000 C 
ATOM     19  C   UNL     1       5.461   3.731  13.216  0.00  0.00    +0.000 C 
ATOM     20  N   UNL     1       5.520   3.898  14.671  0.00  0.00    +0.000 NA
ATOM     21  H   UNL     1       5.152   3.077  15.150  0.00  0.00    +0.000 HD
ENDBRANCH  15  16
ENDBRANCH  14  15
ENDBRANCH  10  14
TORSDOF 3
ENDMDL
