MODEL 1
REMARK VINA RESULT:      -8.3      0.000      0.000
REMARK  Name = 
REMARK  13 active torsions:
REMARK  status: ('A' for Active; 'I' for Inactive)
REMARK    1  A    between atoms: C_1  and  C_2
REMARK    2  A    between atoms: C_2  and  C_3
REMARK    3  A    between atoms: C_3  and  C_4
REMARK    4  A    between atoms: C_4  and  C_5
REMARK    5  A    between atoms: C_5  and  C_6
REMARK    6  A    between atoms: C_6  and  C_7
REMARK    7  A    between atoms: C_7  and  O_9
REMARK    8  A    between atoms: C_13  and  O_14
REMARK    9  A    between atoms: O_14  and  C_15
REMARK   10  A    between atoms: C_15  and  C_16
REMARK   11  A    between atoms: C_22  and  O_23
REMARK   12  A    between atoms: O_23  and  C_24
REMARK   13  A    between atoms: C_24  and  C_25
REMARK                            x       y       z     vdW  Elec       q    Type
REMARK                         _______ _______ _______ _____ _____    ______ ____
ROOT
ATOM      1  C   UNL     1       0.200  11.298  19.327  0.00  0.00    +0.000 C 
ATOM      2  C   UNL     1       1.037  10.612  18.194  0.00  0.00    +0.000 C 
ATOM      3  C   UNL     1       1.453   9.295  18.773  0.00  0.00    +0.000 A 
ATOM      4  C   UNL     1       2.272   8.333  18.209  0.00  0.00    +0.000 A 
ATOM      5  C   UNL     1       2.541   7.151  18.923  0.00  0.00    +0.000 A 
ATOM      6  C   UNL     1       1.938   6.916  20.185  0.00  0.00    +0.000 A 
ATOM      7  C   UNL     1       1.126   7.904  20.749  0.00  0.00    +0.000 A 
ATOM      8  C   UNL     1       0.910   9.065  20.025  0.00  0.00    +0.000 A 
ATOM      9  C   UNL     1       0.138  10.231  20.422  0.00  0.00    +0.000 C 
ATOM     10  O   UNL     1      -0.435  10.314  21.495  0.00  0.00    +0.000 OA
ENDROOT
BRANCH   1  11
ATOM     11  C   UNL     1       0.881  12.579  19.869  0.00  0.00    +0.000 C 
BRANCH  11  13
ATOM     12  C   UNL     1       2.887  13.745  18.877  0.00  0.00    +0.000 C 
ATOM     13  C   UNL     1       1.376  13.574  18.807  0.00  0.00    +0.000 C 
ENDBRANCH  11  13
ENDBRANCH   1  11
BRANCH   1  14
ATOM     14  C   UNL     1      -1.233  11.594  18.804  0.00  0.00    +0.000 C 
BRANCH  14  15
ATOM     15  C   UNL     1      -2.006  10.386  18.257  0.00  0.00    +0.000 C 
BRANCH  15  16
ATOM     16  C   UNL     1      -2.362  10.545  16.799  0.00  0.00    +0.000 C 
ATOM     17  O   UNL     1      -2.822   9.667  16.085  0.00  0.00    +0.000 OA
BRANCH  16  18
ATOM     18  O   UNL     1      -2.100  11.792  16.340  0.00  0.00    +0.000 OA
ATOM     19  H   UNL     1      -1.165  12.060  16.457  0.00  0.00    +0.000 HD
ENDBRANCH  16  18
ENDBRANCH  15  16
ENDBRANCH  14  15
ENDBRANCH   1  14
BRANCH   5  20
ATOM     20  O   UNL     1       3.372   6.298  18.240  0.00  0.00    +0.000 OA
BRANCH  20  21
ATOM     21  C   UNL     1       4.370   6.881  17.399  0.00  0.00    +0.000 C 
BRANCH  21  22
ATOM     22  C   UNL     1       4.982   5.821  16.506  0.00  0.00    +0.000 A 
ATOM     23  C   UNL     1       5.124   4.512  16.993  0.00  0.00    +0.000 A 
ATOM     24  C   UNL     1       5.703   3.517  16.204  0.00  0.00    +0.000 A 
ATOM     25  C   UNL     1       6.133   3.814  14.913  0.00  0.00    +0.000 A 
ATOM     26  C   UNL     1       5.966   5.100  14.403  0.00  0.00    +0.000 A 
ATOM     27  C   UNL     1       5.385   6.096  15.192  0.00  0.00    +0.000 A 
ENDBRANCH  21  22
ENDBRANCH  20  21
ENDBRANCH   5  20
BRANCH   6  28
ATOM     28  O   UNL     1       2.213   5.734  20.817  0.00  0.00    +0.000 OA
BRANCH  28  29
ATOM     29  C   UNL     1       1.328   4.635  20.596  0.00  0.00    +0.000 C 
BRANCH  29  30
ATOM     30  C   UNL     1       2.087   3.590  19.813  0.00  0.00    +0.000 A 
ATOM     31  C   UNL     1       1.583   3.132  18.585  0.00  0.00    +0.000 A 
ATOM     32  C   UNL     1       2.264   2.154  17.858  0.00  0.00    +0.000 A 
ATOM     33  C   UNL     1       3.455   1.626  18.348  0.00  0.00    +0.000 A 
ATOM     34  C   UNL     1       3.972   2.081  19.561  0.00  0.00    +0.000 A 
ATOM     35  C   UNL     1       3.292   3.060  20.291  0.00  0.00    +0.000 A 
ENDBRANCH  29  30
ENDBRANCH  28  29
ENDBRANCH   6  28
TORSDOF 12
ENDMDL
MODEL 2
REMARK VINA RESULT:      -8.2      0.713      1.309
REMARK  Name = 
REMARK  13 active torsions:
REMARK  status: ('A' for Active; 'I' for Inactive)
REMARK    1  A    between atoms: C_1  and  C_2
REMARK    2  A    between atoms: C_2  and  C_3
REMARK    3  A    between atoms: C_3  and  C_4
REMARK    4  A    between atoms: C_4  and  C_5
REMARK    5  A    between atoms: C_5  and  C_6
REMARK    6  A    between atoms: C_6  and  C_7
REMARK    7  A    between atoms: C_7  and  O_9
REMARK    8  A    between atoms: C_13  and  O_14
REMARK    9  A    between atoms: O_14  and  C_15
REMARK   10  A    between atoms: C_15  and  C_16
REMARK   11  A    between atoms: C_22  and  O_23
REMARK   12  A    between atoms: O_23  and  C_24
REMARK   13  A    between atoms: C_24  and  C_25
REMARK                            x       y       z     vdW  Elec       q    Type
REMARK                         _______ _______ _______ _____ _____    ______ ____
ROOT
ATOM      1  C   UNL     1       0.463  11.335  19.724  0.00  0.00    +0.000 C 
ATOM      2  C   UNL     1       1.213  10.641  18.536  0.00  0.00    +0.000 C 
ATOM      3  C   UNL     1       1.532   9.268  19.040  0.00  0.00    +0.000 A 
ATOM      4  C   UNL     1       2.255   8.272  18.407  0.00  0.00    +0.000 A 
ATOM      5  C   UNL     1       2.443   7.037  19.055  0.00  0.00    +0.000 A 
ATOM      6  C   UNL     1       1.853   6.788  20.321  0.00  0.00    +0.000 A 
ATOM      7  C   UNL     1       1.139   7.810  20.954  0.00  0.00    +0.000 A 
ATOM      8  C   UNL     1       1.003   9.019  20.293  0.00  0.00    +0.000 A 
ATOM      9  C   UNL     1       0.340  10.223  20.768  0.00  0.00    +0.000 C 
ATOM     10  O   UNL     1      -0.199  10.298  21.859  0.00  0.00    +0.000 OA
ENDROOT
BRANCH   1  11
ATOM     11  C   UNL     1       1.261  12.528  20.308  0.00  0.00    +0.000 C 
BRANCH  11  13
ATOM     12  C   UNL     1       1.735  14.353  18.631  0.00  0.00    +0.000 C 
ATOM     13  C   UNL     1       2.308  13.154  19.374  0.00  0.00    +0.000 C 
ENDBRANCH  11  13
ENDBRANCH   1  11
BRANCH   1  14
ATOM     14  C   UNL     1      -0.953  11.773  19.257  0.00  0.00    +0.000 C 
BRANCH  14  15
ATOM     15  C   UNL     1      -1.857  10.651  18.728  0.00  0.00    +0.000 C 
BRANCH  15  16
ATOM     16  C   UNL     1      -1.999  10.688  17.226  0.00  0.00    +0.000 C 
ATOM     17  O   UNL     1      -2.186   9.717  16.510  0.00  0.00    +0.000 OA
BRANCH  16  18
ATOM     18  O   UNL     1      -1.879  11.943  16.730  0.00  0.00    +0.000 OA
ATOM     19  H   UNL     1      -1.997  12.641  17.408  0.00  0.00    +0.000 HD
ENDBRANCH  16  18
ENDBRANCH  15  16
ENDBRANCH  14  15
ENDBRANCH   1  14
BRANCH   5  20
ATOM     20  O   UNL     1       3.184   6.155  18.309  0.00  0.00    +0.000 OA
BRANCH  20  21
ATOM     21  C   UNL     1       4.538   5.928  18.707  0.00  0.00    +0.000 C 
BRANCH  21  22
ATOM     22  C   UNL     1       5.364   5.485  17.516  0.00  0.00    +0.000 A 
ATOM     23  C   UNL     1       4.921   5.796  16.221  0.00  0.00    +0.000 A 
ATOM     24  C   UNL     1       5.646   5.386  15.102  0.00  0.00    +0.000 A 
ATOM     25  C   UNL     1       6.833   4.673  15.264  0.00  0.00    +0.000 A 
ATOM     26  C   UNL     1       7.303   4.389  16.545  0.00  0.00    +0.000 A 
ATOM     27  C   UNL     1       6.578   4.801  17.665  0.00  0.00    +0.000 A 
ENDBRANCH  21  22
ENDBRANCH  20  21
ENDBRANCH   5  20
BRANCH   6  28
ATOM     28  O   UNL     1       2.044   5.558  20.887  0.00  0.00    +0.000 OA
BRANCH  28  29
ATOM     29  C   UNL     1       1.174   4.496  20.491  0.00  0.00    +0.000 C 
BRANCH  29  30
ATOM     30  C   UNL     1       1.993   3.514  19.688  0.00  0.00    +0.000 A 
ATOM     31  C   UNL     1       3.169   2.973  20.231  0.00  0.00    +0.000 A 
ATOM     32  C   UNL     1       3.946   2.078  19.494  0.00  0.00    +0.000 A 
ATOM     33  C   UNL     1       3.555   1.711  18.209  0.00  0.00    +0.000 A 
ATOM     34  C   UNL     1       2.382   2.231  17.663  0.00  0.00    +0.000 A 
ATOM     35  C   UNL     1       1.603   3.128  18.399  0.00  0.00    +0.000 A 
ENDBRANCH  29  30
ENDBRANCH  28  29
ENDBRANCH   6  28
TORSDOF 12
ENDMDL
MODEL 3
REMARK VINA RESULT:      -8.1      1.033      1.119
REMARK  Name = 
REMARK  13 active torsions:
REMARK  status: ('A' for Active; 'I' for Inactive)
REMARK    1  A    between atoms: C_1  and  C_2
REMARK    2  A    between atoms: C_2  and  C_3
REMARK    3  A    between atoms: C_3  and  C_4
REMARK    4  A    between atoms: C_4  and  C_5
REMARK    5  A    between atoms: C_5  and  C_6
REMARK    6  A    between atoms: C_6  and  C_7
REMARK    7  A    between atoms: C_7  and  O_9
REMARK    8  A    between atoms: C_13  and  O_14
REMARK    9  A    between atoms: O_14  and  C_15
REMARK   10  A    between atoms: C_15  and  C_16
REMARK   11  A    between atoms: C_22  and  O_23
REMARK   12  A    between atoms: O_23  and  C_24
REMARK   13  A    between atoms: C_24  and  C_25
REMARK                            x       y       z     vdW  Elec       q    Type
REMARK                         _______ _______ _______ _____ _____    ______ ____
ROOT
ATOM      1  C   UNL     1      -0.349  11.511  19.552  0.00  0.00    +0.000 C 
ATOM      2  C   UNL     1       0.367  10.904  18.298  0.00  0.00    +0.000 C 
ATOM      3  C   UNL     1       0.997   9.640  18.795  0.00  0.00    +0.000 A 
ATOM      4  C   UNL     1       1.812   8.761  18.103  0.00  0.00    +0.000 A 
ATOM      5  C   UNL     1       2.305   7.616  18.756  0.00  0.00    +0.000 A 
ATOM      6  C   UNL     1       1.931   7.331  20.094  0.00  0.00    +0.000 A 
ATOM      7  C   UNL     1       1.121   8.237  20.785  0.00  0.00    +0.000 A 
ATOM      8  C   UNL     1       0.681   9.365  20.113  0.00  0.00    +0.000 A 
ATOM      9  C   UNL     1      -0.134  10.451  20.634  0.00  0.00    +0.000 C 
ATOM     10  O   UNL     1      -0.540  10.483  21.783  0.00  0.00    +0.000 OA
ENDROOT
BRANCH   1  11
ATOM     11  C   UNL     1       0.276  12.858  19.993  0.00  0.00    +0.000 C 
BRANCH  11  13
ATOM     12  C   UNL     1       2.308  14.047  20.901  0.00  0.00    +0.000 C 
ATOM     13  C   UNL     1       1.811  12.905  20.024  0.00  0.00    +0.000 C 
ENDBRANCH  11  13
ENDBRANCH   1  11
BRANCH   1  14
ATOM     14  C   UNL     1      -1.868  11.658  19.260  0.00  0.00    +0.000 C 
BRANCH  14  15
ATOM     15  C   UNL     1      -2.450  10.668  18.241  0.00  0.00    +0.000 C 
BRANCH  15  16
ATOM     16  C   UNL     1      -3.162  11.364  17.106  0.00  0.00    +0.000 C 
ATOM     17  O   UNL     1      -4.335  11.704  17.111  0.00  0.00    +0.000 OA
BRANCH  16  18
ATOM     18  O   UNL     1      -2.351  11.567  16.041  0.00  0.00    +0.000 OA
ATOM     19  H   UNL     1      -2.041  12.493  15.960  0.00  0.00    +0.000 HD
ENDBRANCH  16  18
ENDBRANCH  15  16
ENDBRANCH  14  15
ENDBRANCH   1  14
BRANCH   5  20
ATOM     20  O   UNL     1       3.102   6.847  17.946  0.00  0.00    +0.000 OA
BRANCH  20  21
ATOM     21  C   UNL     1       4.372   7.382  17.567  0.00  0.00    +0.000 C 
BRANCH  21  22
ATOM     22  C   UNL     1       5.286   6.269  17.095  0.00  0.00    +0.000 A 
ATOM     23  C   UNL     1       6.415   5.938  17.861  0.00  0.00    +0.000 A 
ATOM     24  C   UNL     1       7.289   4.933  17.444  0.00  0.00    +0.000 A 
ATOM     25  C   UNL     1       7.037   4.235  16.265  0.00  0.00    +0.000 A 
ATOM     26  C   UNL     1       5.900   4.529  15.513  0.00  0.00    +0.000 A 
ATOM     27  C   UNL     1       5.024   5.534  15.931  0.00  0.00    +0.000 A 
ENDBRANCH  21  22
ENDBRANCH  20  21
ENDBRANCH   5  20
BRANCH   6  28
ATOM     28  O   UNL     1       2.416   6.187  20.666  0.00  0.00    +0.000 OA
BRANCH  28  29
ATOM     29  C   UNL     1       1.655   4.988  20.517  0.00  0.00    +0.000 C 
BRANCH  29  30
ATOM     30  C   UNL     1       2.379   4.110  19.524  0.00  0.00    +0.000 A 
ATOM     31  C   UNL     1       1.701   3.624  18.394  0.00  0.00    +0.000 A 
ATOM     32  C   UNL     1       2.351   2.797  17.477  0.00  0.00    +0.000 A 
ATOM     33  C   UNL     1       3.684   2.448  17.677  0.00  0.00    +0.000 A 
ATOM     34  C   UNL     1       4.371   2.934  18.789  0.00  0.00    +0.000 A 
ATOM     35  C   UNL     1       3.723   3.762  19.709  0.00  0.00    +0.000 A 
ENDBRANCH  29  30
ENDBRANCH  28  29
ENDBRANCH   6  28
TORSDOF 12
ENDMDL
MODEL 4
REMARK VINA RESULT:      -7.9      2.331      9.014
REMARK  Name = 
REMARK  13 active torsions:
REMARK  status: ('A' for Active; 'I' for Inactive)
REMARK    1  A    between atoms: C_1  and  C_2
REMARK    2  A    between atoms: C_2  and  C_3
REMARK    3  A    between atoms: C_3  and  C_4
REMARK    4  A    between atoms: C_4  and  C_5
REMARK    5  A    between atoms: C_5  and  C_6
REMARK    6  A    between atoms: C_6  and  C_7
REMARK    7  A    between atoms: C_7  and  O_9
REMARK    8  A    between atoms: C_13  and  O_14
REMARK    9  A    between atoms: O_14  and  C_15
REMARK   10  A    between atoms: C_15  and  C_16
REMARK   11  A    between atoms: C_22  and  O_23
REMARK   12  A    between atoms: O_23  and  C_24
REMARK   13  A    between atoms: C_24  and  C_25
REMARK                            x       y       z     vdW  Elec       q    Type
REMARK                         _______ _______ _______ _____ _____    ______ ____
ROOT
ATOM      1  C   UNL     1       3.784   5.896  18.224  0.00  0.00    +0.000 C 
ATOM      2  C   UNL     1       3.306   7.214  17.524  0.00  0.00    +0.000 C 
ATOM      3  C   UNL     1       2.338   7.827  18.487  0.00  0.00    +0.000 A 
ATOM      4  C   UNL     1       1.572   8.967  18.320  0.00  0.00    +0.000 A 
ATOM      5  C   UNL     1       0.717   9.383  19.358  0.00  0.00    +0.000 A 
ATOM      6  C   UNL     1       0.677   8.676  20.587  0.00  0.00    +0.000 A 
ATOM      7  C   UNL     1       1.444   7.516  20.734  0.00  0.00    +0.000 A 
ATOM      8  C   UNL     1       2.250   7.128  19.677  0.00  0.00    +0.000 A 
ATOM      9  C   UNL     1       3.100   5.951  19.591  0.00  0.00    +0.000 C 
ATOM     10  O   UNL     1       3.199   5.137  20.494  0.00  0.00    +0.000 OA
ENDROOT
BRANCH   1  11
ATOM     11  C   UNL     1       3.340   4.626  17.456  0.00  0.00    +0.000 C 
BRANCH  11  13
ATOM     12  C   UNL     1       1.761   2.795  18.176  0.00  0.00    +0.000 C 
ATOM     13  C   UNL     1       1.871   4.214  17.636  0.00  0.00    +0.000 C 
ENDBRANCH  11  13
ENDBRANCH   1  11
BRANCH   1  14
ATOM     14  C   UNL     1       5.326   5.939  18.409  0.00  0.00    +0.000 C 
BRANCH  14  15
ATOM     15  C   UNL     1       6.065   4.617  18.159  0.00  0.00    +0.000 C 
BRANCH  15  16
ATOM     16  C   UNL     1       7.323   4.807  17.348  0.00  0.00    +0.000 C 
ATOM     17  O   UNL     1       7.458   5.599  16.428  0.00  0.00    +0.000 OA
BRANCH  16  18
ATOM     18  O   UNL     1       8.317   3.976  17.742  0.00  0.00    +0.000 OA
ATOM     19  H   UNL     1       8.971   3.790  17.036  0.00  0.00    +0.000 HD
ENDBRANCH  16  18
ENDBRANCH  15  16
ENDBRANCH  14  15
ENDBRANCH   1  14
BRANCH   5  20
ATOM     20  O   UNL     1       0.019  10.522  19.045  0.00  0.00    +0.000 OA
BRANCH  20  21
ATOM     21  C   UNL     1      -0.728  10.525  17.826  0.00  0.00    +0.000 C 
BRANCH  21  22
ATOM     22  C   UNL     1      -2.146  10.990  18.084  0.00  0.00    +0.000 A 
ATOM     23  C   UNL     1      -2.404  11.825  19.183  0.00  0.00    +0.000 A 
ATOM     24  C   UNL     1      -3.703  12.255  19.461  0.00  0.00    +0.000 A 
ATOM     25  C   UNL     1      -4.757  11.869  18.636  0.00  0.00    +0.000 A 
ATOM     26  C   UNL     1      -4.509  11.070  17.521  0.00  0.00    +0.000 A 
ATOM     27  C   UNL     1      -3.210  10.641  17.241  0.00  0.00    +0.000 A 
ENDBRANCH  21  22
ENDBRANCH  20  21
ENDBRANCH   5  20
BRANCH   6  28
ATOM     28  O   UNL     1      -0.150   9.145  21.570  0.00  0.00    +0.000 OA
BRANCH  28  29
ATOM     29  C   UNL     1       0.387  10.078  22.509  0.00  0.00    +0.000 C 
BRANCH  29  30
ATOM     30  C   UNL     1      -0.529  11.278  22.533  0.00  0.00    +0.000 A 
ATOM     31  C   UNL     1      -0.133  12.474  21.914  0.00  0.00    +0.000 A 
ATOM     32  C   UNL     1      -0.961  13.597  21.943  0.00  0.00    +0.000 A 
ATOM     33  C   UNL     1      -2.194  13.537  22.589  0.00  0.00    +0.000 A 
ATOM     34  C   UNL     1      -2.603  12.351  23.197  0.00  0.00    +0.000 A 
ATOM     35  C   UNL     1      -1.776  11.225  23.169  0.00  0.00    +0.000 A 
ENDBRANCH  29  30
ENDBRANCH  28  29
ENDBRANCH   6  28
TORSDOF 12
ENDMDL
MODEL 5
REMARK VINA RESULT:      -7.7      1.780      2.397
REMARK  Name = 
REMARK  13 active torsions:
REMARK  status: ('A' for Active; 'I' for Inactive)
REMARK    1  A    between atoms: C_1  and  C_2
REMARK    2  A    between atoms: C_2  and  C_3
REMARK    3  A    between atoms: C_3  and  C_4
REMARK    4  A    between atoms: C_4  and  C_5
REMARK    5  A    between atoms: C_5  and  C_6
REMARK    6  A    between atoms: C_6  and  C_7
REMARK    7  A    between atoms: C_7  and  O_9
REMARK    8  A    between atoms: C_13  and  O_14
REMARK    9  A    between atoms: O_14  and  C_15
REMARK   10  A    between atoms: C_15  and  C_16
REMARK   11  A    between atoms: C_22  and  O_23
REMARK   12  A    between atoms: O_23  and  C_24
REMARK   13  A    between atoms: C_24  and  C_25
REMARK                            x       y       z     vdW  Elec       q    Type
REMARK                         _______ _______ _______ _____ _____    ______ ____
ROOT
ATOM      1  C   UNL     1       0.772  11.027  18.942  0.00  0.00    +0.000 C 
ATOM      2  C   UNL     1       1.431  10.124  17.844  0.00  0.00    +0.000 C 
ATOM      3  C   UNL     1       1.741   8.839  18.546  0.00  0.00    +0.000 A 
ATOM      4  C   UNL     1       2.399   7.729  18.046  0.00  0.00    +0.000 A 
ATOM      5  C   UNL     1       2.590   6.607  18.875  0.00  0.00    +0.000 A 
ATOM      6  C   UNL     1       2.069   6.588  20.194  0.00  0.00    +0.000 A 
ATOM      7  C   UNL     1       1.422   7.723  20.691  0.00  0.00    +0.000 A 
ATOM      8  C   UNL     1       1.280   8.815  19.850  0.00  0.00    +0.000 A 
ATOM      9  C   UNL     1       0.680  10.103  20.157  0.00  0.00    +0.000 C 
ATOM     10  O   UNL     1       0.209  10.372  21.249  0.00  0.00    +0.000 OA
ENDROOT
BRANCH   1  11
ATOM     11  C   UNL     1       1.635  12.268  19.280  0.00  0.00    +0.000 C 
BRANCH  11  13
ATOM     12  C   UNL     1       3.067  14.158  18.416  0.00  0.00    +0.000 C 
ATOM     13  C   UNL     1       2.610  12.724  18.184  0.00  0.00    +0.000 C 
ENDBRANCH  11  13
ENDBRANCH   1  11
BRANCH   1  14
ATOM     14  C   UNL     1      -0.657  11.435  18.487  0.00  0.00    +0.000 C 
BRANCH  14  15
ATOM     15  C   UNL     1      -1.001  12.924  18.625  0.00  0.00    +0.000 C 
BRANCH  15  16
ATOM     16  C   UNL     1      -1.603  13.252  19.970  0.00  0.00    +0.000 C 
ATOM     17  O   UNL     1      -1.580  14.350  20.505  0.00  0.00    +0.000 OA
BRANCH  16  18
ATOM     18  O   UNL     1      -2.176  12.172  20.553  0.00  0.00    +0.000 OA
ATOM     19  H   UNL     1      -1.953  12.079  21.502  0.00  0.00    +0.000 HD
ENDBRANCH  16  18
ENDBRANCH  15  16
ENDBRANCH  14  15
ENDBRANCH   1  14
BRANCH   5  20
ATOM     20  O   UNL     1       3.261   5.591  18.243  0.00  0.00    +0.000 OA
BRANCH  20  21
ATOM     21  C   UNL     1       4.157   5.946  17.187  0.00  0.00    +0.000 C 
BRANCH  21  22
ATOM     22  C   UNL     1       5.548   6.180  17.741  0.00  0.00    +0.000 A 
ATOM     23  C   UNL     1       6.009   5.379  18.798  0.00  0.00    +0.000 A 
ATOM     24  C   UNL     1       7.277   5.582  19.345  0.00  0.00    +0.000 A 
ATOM     25  C   UNL     1       8.107   6.576  18.831  0.00  0.00    +0.000 A 
ATOM     26  C   UNL     1       7.676   7.355  17.758  0.00  0.00    +0.000 A 
ATOM     27  C   UNL     1       6.407   7.151  17.210  0.00  0.00    +0.000 A 
ENDBRANCH  21  22
ENDBRANCH  20  21
ENDBRANCH   5  20
BRANCH   6  28
ATOM     28  O   UNL     1       2.260   5.458  20.941  0.00  0.00    +0.000 OA
BRANCH  28  29
ATOM     29  C   UNL     1       1.381   4.354  20.722  0.00  0.00    +0.000 C 
BRANCH  29  30
ATOM     30  C   UNL     1       2.120   3.346  19.874  0.00  0.00    +0.000 A 
ATOM     31  C   UNL     1       3.382   2.881  20.279  0.00  0.00    +0.000 A 
ATOM     32  C   UNL     1       4.085   1.963  19.497  0.00  0.00    +0.000 A 
ATOM     33  C   UNL     1       3.535   1.498  18.306  0.00  0.00    +0.000 A 
ATOM     34  C   UNL     1       2.277   1.943  17.899  0.00  0.00    +0.000 A 
ATOM     35  C   UNL     1       1.571   2.863  18.680  0.00  0.00    +0.000 A 
ENDBRANCH  29  30
ENDBRANCH  28  29
ENDBRANCH   6  28
TORSDOF 12
ENDMDL
MODEL 6
REMARK VINA RESULT:      -7.7      0.951      1.298
REMARK  Name = 
REMARK  13 active torsions:
REMARK  status: ('A' for Active; 'I' for Inactive)
REMARK    1  A    between atoms: C_1  and  C_2
REMARK    2  A    between atoms: C_2  and  C_3
REMARK    3  A    between atoms: C_3  and  C_4
REMARK    4  A    between atoms: C_4  and  C_5
REMARK    5  A    between atoms: C_5  and  C_6
REMARK    6  A    between atoms: C_6  and  C_7
REMARK    7  A    between atoms: C_7  and  O_9
REMARK    8  A    between atoms: C_13  and  O_14
REMARK    9  A    between atoms: O_14  and  C_15
REMARK   10  A    between atoms: C_15  and  C_16
REMARK   11  A    between atoms: C_22  and  O_23
REMARK   12  A    between atoms: O_23  and  C_24
REMARK   13  A    between atoms: C_24  and  C_25
REMARK                            x       y       z     vdW  Elec       q    Type
REMARK                         _______ _______ _______ _____ _____    ______ ____
ROOT
ATOM      1  C   UNL     1      -0.087  11.561  19.164  0.00  0.00    +0.000 C 
ATOM      2  C   UNL     1       0.714  10.858  18.015  0.00  0.00    +0.000 C 
ATOM      3  C   UNL     1       1.216   9.586  18.625  0.00  0.00    +0.000 A 
ATOM      4  C   UNL     1       2.042   8.634  18.055  0.00  0.00    +0.000 A 
ATOM      5  C   UNL     1       2.400   7.495  18.801  0.00  0.00    +0.000 A 
ATOM      6  C   UNL     1       1.877   7.292  20.104  0.00  0.00    +0.000 A 
ATOM      7  C   UNL     1       1.057   8.272  20.672  0.00  0.00    +0.000 A 
ATOM      8  C   UNL     1       0.753   9.390  19.913  0.00  0.00    +0.000 A 
ATOM      9  C   UNL     1      -0.044  10.541  20.305  0.00  0.00    +0.000 C 
ATOM     10  O   UNL     1      -0.560  10.648  21.404  0.00  0.00    +0.000 OA
ENDROOT
BRANCH   1  11
ATOM     11  C   UNL     1       0.569  12.890  19.613  0.00  0.00    +0.000 C 
BRANCH  11  13
ATOM     12  C   UNL     1       2.666  13.601  20.824  0.00  0.00    +0.000 C 
ATOM     13  C   UNL     1       2.105  12.923  19.582  0.00  0.00    +0.000 C 
ENDBRANCH  11  13
ENDBRANCH   1  11
BRANCH   1  14
ATOM     14  C   UNL     1      -1.558  11.777  18.713  0.00  0.00    +0.000 C 
BRANCH  14  15
ATOM     15  C   UNL     1      -2.270  10.540  18.148  0.00  0.00    +0.000 C 
BRANCH  15  16
ATOM     16  C   UNL     1      -3.026  10.843  16.877  0.00  0.00    +0.000 C 
ATOM     17  O   UNL     1      -2.524  10.980  15.772  0.00  0.00    +0.000 OA
BRANCH  16  18
ATOM     18  O   UNL     1      -4.357  10.969  17.090  0.00  0.00    +0.000 OA
ATOM     19  H   UNL     1      -4.813  10.110  17.214  0.00  0.00    +0.000 HD
ENDBRANCH  16  18
ENDBRANCH  15  16
ENDBRANCH  14  15
ENDBRANCH   1  14
BRANCH   5  20
ATOM     20  O   UNL     1       3.226   6.646  18.108  0.00  0.00    +0.000 OA
BRANCH  20  21
ATOM     21  C   UNL     1       4.184   7.233  17.224  0.00  0.00    +0.000 C 
BRANCH  21  22
ATOM     22  C   UNL     1       5.221   6.204  16.822  0.00  0.00    +0.000 A 
ATOM     23  C   UNL     1       6.167   5.778  17.767  0.00  0.00    +0.000 A 
ATOM     24  C   UNL     1       7.149   4.848  17.423  0.00  0.00    +0.000 A 
ATOM     25  C   UNL     1       7.187   4.318  16.135  0.00  0.00    +0.000 A 
ATOM     26  C   UNL     1       6.231   4.704  15.197  0.00  0.00    +0.000 A 
ATOM     27  C   UNL     1       5.247   5.635  15.541  0.00  0.00    +0.000 A 
ENDBRANCH  21  22
ENDBRANCH  20  21
ENDBRANCH   5  20
BRANCH   6  28
ATOM     28  O   UNL     1       2.235   6.151  20.768  0.00  0.00    +0.000 OA
BRANCH  28  29
ATOM     29  C   UNL     1       1.451   4.977  20.553  0.00  0.00    +0.000 C 
BRANCH  29  30
ATOM     30  C   UNL     1       2.202   4.098  19.582  0.00  0.00    +0.000 A 
ATOM     31  C   UNL     1       3.459   3.580  19.934  0.00  0.00    +0.000 A 
ATOM     32  C   UNL     1       4.174   2.782  19.040  0.00  0.00    +0.000 A 
ATOM     33  C   UNL     1       3.641   2.490  17.787  0.00  0.00    +0.000 A 
ATOM     34  C   UNL     1       2.388   2.989  17.431  0.00  0.00    +0.000 A 
ATOM     35  C   UNL     1       1.670   3.789  18.324  0.00  0.00    +0.000 A 
ENDBRANCH  29  30
ENDBRANCH  28  29
ENDBRANCH   6  28
TORSDOF 12
ENDMDL
MODEL 7
REMARK VINA RESULT:      -7.7      2.228      8.771
REMARK  Name = 
REMARK  13 active torsions:
REMARK  status: ('A' for Active; 'I' for Inactive)
REMARK    1  A    between atoms: C_1  and  C_2
REMARK    2  A    between atoms: C_2  and  C_3
REMARK    3  A    between atoms: C_3  and  C_4
REMARK    4  A    between atoms: C_4  and  C_5
REMARK    5  A    between atoms: C_5  and  C_6
REMARK    6  A    between atoms: C_6  and  C_7
REMARK    7  A    between atoms: C_7  and  O_9
REMARK    8  A    between atoms: C_13  and  O_14
REMARK    9  A    between atoms: O_14  and  C_15
REMARK   10  A    between atoms: C_15  and  C_16
REMARK   11  A    between atoms: C_22  and  O_23
REMARK   12  A    between atoms: O_23  and  C_24
REMARK   13  A    between atoms: C_24  and  C_25
REMARK                            x       y       z     vdW  Elec       q    Type
REMARK                         _______ _______ _______ _____ _____    ______ ____
ROOT
ATOM      1  C   UNL     1       3.991   5.173  18.520  0.00  0.00    +0.000 C 
ATOM      2  C   UNL     1       3.698   6.473  17.695  0.00  0.00    +0.000 C 
ATOM      3  C   UNL     1       2.733   7.248  18.538  0.00  0.00    +0.000 A 
ATOM      4  C   UNL     1       2.099   8.440  18.235  0.00  0.00    +0.000 A 
ATOM      5  C   UNL     1       1.222   9.014  19.174  0.00  0.00    +0.000 A 
ATOM      6  C   UNL     1       1.027   8.410  20.443  0.00  0.00    +0.000 A 
ATOM      7  C   UNL     1       1.662   7.197  20.728  0.00  0.00    +0.000 A 
ATOM      8  C   UNL     1       2.495   6.653  19.764  0.00  0.00    +0.000 A 
ATOM      9  C   UNL     1       3.225   5.397  19.825  0.00  0.00    +0.000 C 
ATOM     10  O   UNL     1       3.180   4.650  20.787  0.00  0.00    +0.000 OA
ENDROOT
BRANCH   1  11
ATOM     11  C   UNL     1       3.475   3.896  17.811  0.00  0.00    +0.000 C 
BRANCH  11  13
ATOM     12  C   UNL     1       1.298   2.774  18.416  0.00  0.00    +0.000 C 
ATOM     13  C   UNL     1       1.962   3.839  17.554  0.00  0.00    +0.000 C 
ENDBRANCH  11  13
ENDBRANCH   1  11
BRANCH   1  14
ATOM     14  C   UNL     1       5.514   5.082  18.817  0.00  0.00    +0.000 C 
BRANCH  14  15
ATOM     15  C   UNL     1       6.438   5.164  17.595  0.00  0.00    +0.000 C 
BRANCH  15  16
ATOM     16  C   UNL     1       7.411   6.314  17.687  0.00  0.00    +0.000 C 
ATOM     17  O   UNL     1       7.984   6.676  18.703  0.00  0.00    +0.000 OA
BRANCH  16  18
ATOM     18  O   UNL     1       7.582   6.938  16.496  0.00  0.00    +0.000 OA
ATOM     19  H   UNL     1       8.520   7.121  16.285  0.00  0.00    +0.000 HD
ENDBRANCH  16  18
ENDBRANCH  15  16
ENDBRANCH  14  15
ENDBRANCH   1  14
BRANCH   5  20
ATOM     20  O   UNL     1       0.665  10.187  18.731  0.00  0.00    +0.000 OA
BRANCH  20  21
ATOM     21  C   UNL     1      -0.196  10.120  17.592  0.00  0.00    +0.000 C 
BRANCH  21  22
ATOM     22  C   UNL     1      -1.581  10.617  17.956  0.00  0.00    +0.000 A 
ATOM     23  C   UNL     1      -2.697  10.082  17.295  0.00  0.00    +0.000 A 
ATOM     24  C   UNL     1      -3.984  10.533  17.591  0.00  0.00    +0.000 A 
ATOM     25  C   UNL     1      -4.173  11.512  18.564  0.00  0.00    +0.000 A 
ATOM     26  C   UNL     1      -3.076  12.026  19.254  0.00  0.00    +0.000 A 
ATOM     27  C   UNL     1      -1.788  11.574  18.958  0.00  0.00    +0.000 A 
ENDBRANCH  21  22
ENDBRANCH  20  21
ENDBRANCH   5  20
BRANCH   6  28
ATOM     28  O   UNL     1       0.187   9.030  21.326  0.00  0.00    +0.000 OA
BRANCH  28  29
ATOM     29  C   UNL     1       0.747   9.994  22.220  0.00  0.00    +0.000 C 
BRANCH  29  30
ATOM     30  C   UNL     1      -0.261  11.107  22.379  0.00  0.00    +0.000 A 
ATOM     31  C   UNL     1      -1.461  10.871  23.070  0.00  0.00    +0.000 A 
ATOM     32  C   UNL     1      -2.411  11.884  23.210  0.00  0.00    +0.000 A 
ATOM     33  C   UNL     1      -2.172  13.143  22.665  0.00  0.00    +0.000 A 
ATOM     34  C   UNL     1      -0.979  13.393  21.987  0.00  0.00    +0.000 A 
ATOM     35  C   UNL     1      -0.026  12.380  21.845  0.00  0.00    +0.000 A 
ENDBRANCH  29  30
ENDBRANCH  28  29
ENDBRANCH   6  28
TORSDOF 12
ENDMDL
MODEL 8
REMARK VINA RESULT:      -7.7      0.932      1.335
REMARK  Name = 
REMARK  13 active torsions:
REMARK  status: ('A' for Active; 'I' for Inactive)
REMARK    1  A    between atoms: C_1  and  C_2
REMARK    2  A    between atoms: C_2  and  C_3
REMARK    3  A    between atoms: C_3  and  C_4
REMARK    4  A    between atoms: C_4  and  C_5
REMARK    5  A    between atoms: C_5  and  C_6
REMARK    6  A    between atoms: C_6  and  C_7
REMARK    7  A    between atoms: C_7  and  O_9
REMARK    8  A    between atoms: C_13  and  O_14
REMARK    9  A    between atoms: O_14  and  C_15
REMARK   10  A    between atoms: C_15  and  C_16
REMARK   11  A    between atoms: C_22  and  O_23
REMARK   12  A    between atoms: O_23  and  C_24
REMARK   13  A    between atoms: C_24  and  C_25
REMARK                            x       y       z     vdW  Elec       q    Type
REMARK                         _______ _______ _______ _____ _____    ______ ____
ROOT
ATOM      1  C   UNL     1       0.468  11.001  19.239  0.00  0.00    +0.000 C 
ATOM      2  C   UNL     1       1.456  10.272  18.266  0.00  0.00    +0.000 C 
ATOM      3  C   UNL     1       1.726   8.952  18.918  0.00  0.00    +0.000 A 
ATOM      4  C   UNL     1       2.594   7.956  18.505  0.00  0.00    +0.000 A 
ATOM      5  C   UNL     1       2.701   6.775  19.264  0.00  0.00    +0.000 A 
ATOM      6  C   UNL     1       1.890   6.578  20.410  0.00  0.00    +0.000 A 
ATOM      7  C   UNL     1       1.030   7.600  20.824  0.00  0.00    +0.000 A 
ATOM      8  C   UNL     1       0.977   8.756  20.064  0.00  0.00    +0.000 A 
ATOM      9  C   UNL     1       0.190   9.952  20.318  0.00  0.00    +0.000 C 
ATOM     10  O   UNL     1      -0.550  10.068  21.280  0.00  0.00    +0.000 OA
ENDROOT
BRANCH   1  11
ATOM     11  C   UNL     1       1.093  12.267  19.876  0.00  0.00    +0.000 C 
BRANCH  11  13
ATOM     12  C   UNL     1       0.076  13.616  21.750  0.00  0.00    +0.000 C 
ATOM     13  C   UNL     1       0.108  13.387  20.245  0.00  0.00    +0.000 C 
ENDBRANCH  11  13
ENDBRANCH   1  11
BRANCH   1  14
ATOM     14  C   UNL     1      -0.849  11.335  18.485  0.00  0.00    +0.000 C 
BRANCH  14  15
ATOM     15  C   UNL     1      -1.561  10.145  17.827  0.00  0.00    +0.000 C 
BRANCH  15  16
ATOM     16  C   UNL     1      -2.651  10.581  16.879  0.00  0.00    +0.000 C 
ATOM     17  O   UNL     1      -2.525  10.713  15.671  0.00  0.00    +0.000 OA
BRANCH  16  18
ATOM     18  O   UNL     1      -3.817  10.834  17.519  0.00  0.00    +0.000 OA
ATOM     19  H   UNL     1      -3.699  11.072  18.462  0.00  0.00    +0.000 HD
ENDBRANCH  16  18
ENDBRANCH  15  16
ENDBRANCH  14  15
ENDBRANCH   1  14
BRANCH   5  20
ATOM     20  O   UNL     1       3.604   5.887  18.735  0.00  0.00    +0.000 OA
BRANCH  20  21
ATOM     21  C   UNL     1       3.580   5.684  17.320  0.00  0.00    +0.000 C 
BRANCH  21  22
ATOM     22  C   UNL     1       4.957   5.287  16.828  0.00  0.00    +0.000 A 
ATOM     23  C   UNL     1       5.205   5.239  15.447  0.00  0.00    +0.000 A 
ATOM     24  C   UNL     1       6.455   4.857  14.960  0.00  0.00    +0.000 A 
ATOM     25  C   UNL     1       7.480   4.534  15.848  0.00  0.00    +0.000 A 
ATOM     26  C   UNL     1       7.259   4.613  17.222  0.00  0.00    +0.000 A 
ATOM     27  C   UNL     1       6.007   4.996  17.709  0.00  0.00    +0.000 A 
ENDBRANCH  21  22
ENDBRANCH  20  21
ENDBRANCH   5  20
BRANCH   6  28
ATOM     28  O   UNL     1       2.017   5.397  21.089  0.00  0.00    +0.000 OA
BRANCH  28  29
ATOM     29  C   UNL     1       1.190   4.303  20.689  0.00  0.00    +0.000 C 
BRANCH  29  30
ATOM     30  C   UNL     1       2.029   3.390  19.828  0.00  0.00    +0.000 A 
ATOM     31  C   UNL     1       1.560   2.992  18.565  0.00  0.00    +0.000 A 
ATOM     32  C   UNL     1       2.316   2.134  17.765  0.00  0.00    +0.000 A 
ATOM     33  C   UNL     1       3.548   1.666  18.215  0.00  0.00    +0.000 A 
ATOM     34  C   UNL     1       4.029   2.064  19.462  0.00  0.00    +0.000 A 
ATOM     35  C   UNL     1       3.275   2.922  20.266  0.00  0.00    +0.000 A 
ENDBRANCH  29  30
ENDBRANCH  28  29
ENDBRANCH   6  28
TORSDOF 12
ENDMDL
MODEL 9
REMARK VINA RESULT:      -7.7      2.344      8.911
REMARK  Name = 
REMARK  13 active torsions:
REMARK  status: ('A' for Active; 'I' for Inactive)
REMARK    1  A    between atoms: C_1  and  C_2
REMARK    2  A    between atoms: C_2  and  C_3
REMARK    3  A    between atoms: C_3  and  C_4
REMARK    4  A    between atoms: C_4  and  C_5
REMARK    5  A    between atoms: C_5  and  C_6
REMARK    6  A    between atoms: C_6  and  C_7
REMARK    7  A    between atoms: C_7  and  O_9
REMARK    8  A    between atoms: C_13  and  O_14
REMARK    9  A    between atoms: O_14  and  C_15
REMARK   10  A    between atoms: C_15  and  C_16
REMARK   11  A    between atoms: C_22  and  O_23
REMARK   12  A    between atoms: O_23  and  C_24
REMARK   13  A    between atoms: C_24  and  C_25
REMARK                            x       y       z     vdW  Elec       q    Type
REMARK                         _______ _______ _______ _____ _____    ______ ____
ROOT
ATOM      1  C   UNL     1       2.531   6.051  18.443  0.00  0.00    +0.000 C 
ATOM      2  C   UNL     1       2.322   7.458  17.785  0.00  0.00    +0.000 C 
ATOM      3  C   UNL     1       1.811   8.323  18.895  0.00  0.00    +0.000 A 
ATOM      4  C   UNL     1       1.397   9.642  18.828  0.00  0.00    +0.000 A 
ATOM      5  C   UNL     1       0.949  10.285  19.997  0.00  0.00    +0.000 A 
ATOM      6  C   UNL     1       0.970   9.611  21.245  0.00  0.00    +0.000 A 
ATOM      7  C   UNL     1       1.375   8.274  21.293  0.00  0.00    +0.000 A 
ATOM      8  C   UNL     1       1.782   7.672  20.114  0.00  0.00    +0.000 A 
ATOM      9  C   UNL     1       2.208   6.295  19.919  0.00  0.00    +0.000 C 
ATOM     10  O   UNL     1       2.257   5.481  20.824  0.00  0.00    +0.000 OA
ENDROOT
BRANCH   1  11
ATOM     11  C   UNL     1       1.578   4.979  17.858  0.00  0.00    +0.000 C 
BRANCH  11  13
ATOM     12  C   UNL     1       1.133   2.651  18.722  0.00  0.00    +0.000 C 
ATOM     13  C   UNL     1       2.083   3.530  17.920  0.00  0.00    +0.000 C 
ENDBRANCH  11  13
ENDBRANCH   1  11
BRANCH   1  14
ATOM     14  C   UNL     1       4.019   5.628  18.298  0.00  0.00    +0.000 C 
BRANCH  14  15
ATOM     15  C   UNL     1       4.705   6.040  16.988  0.00  0.00    +0.000 C 
BRANCH  15  16
ATOM     16  C   UNL     1       6.162   6.380  17.184  0.00  0.00    +0.000 C 
ATOM     17  O   UNL     1       6.670   7.468  16.959  0.00  0.00    +0.000 OA
BRANCH  16  18
ATOM     18  O   UNL     1       6.879   5.323  17.635  0.00  0.00    +0.000 OA
ATOM     19  H   UNL     1       7.847   5.452  17.565  0.00  0.00    +0.000 HD
ENDBRANCH  16  18
ENDBRANCH  15  16
ENDBRANCH  14  15
ENDBRANCH   1  14
BRANCH   5  20
ATOM     20  O   UNL     1       0.566  11.584  19.774  0.00  0.00    +0.000 OA
BRANCH  20  21
ATOM     21  C   UNL     1      -0.016  11.892  18.505  0.00  0.00    +0.000 C 
BRANCH  21  22
ATOM     22  C   UNL     1      -1.528  11.832  18.597  0.00  0.00    +0.000 A 
ATOM     23  C   UNL     1      -2.242  11.065  17.664  0.00  0.00    +0.000 A 
ATOM     24  C   UNL     1      -3.636  11.006  17.708  0.00  0.00    +0.000 A 
ATOM     25  C   UNL     1      -4.332  11.700  18.695  0.00  0.00    +0.000 A 
ATOM     26  C   UNL     1      -3.633  12.437  19.650  0.00  0.00    +0.000 A 
ATOM     27  C   UNL     1      -2.238  12.495  19.607  0.00  0.00    +0.000 A 
ENDBRANCH  21  22
ENDBRANCH  20  21
ENDBRANCH   5  20
BRANCH   6  28
ATOM     28  O   UNL     1       0.552  10.298  22.352  0.00  0.00    +0.000 OA
BRANCH  28  29
ATOM     29  C   UNL     1      -0.823  10.196  22.723  0.00  0.00    +0.000 C 
BRANCH  29  30
ATOM     30  C   UNL     1      -1.347  11.599  22.916  0.00  0.00    +0.000 A 
ATOM     31  C   UNL     1      -2.675  11.801  23.326  0.00  0.00    +0.000 A 
ATOM     32  C   UNL     1      -3.179  13.092  23.491  0.00  0.00    +0.000 A 
ATOM     33  C   UNL     1      -2.363  14.194  23.250  0.00  0.00    +0.000 A 
ATOM     34  C   UNL     1      -1.039  14.007  22.854  0.00  0.00    +0.000 A 
ATOM     35  C   UNL     1      -0.532  12.715  22.688  0.00  0.00    +0.000 A 
ENDBRANCH  29  30
ENDBRANCH  28  29
ENDBRANCH   6  28
TORSDOF 12
ENDMDL
