MODEL 1
REMARK VINA RESULT:      -9.5      0.000      0.000
REMARK  Name = 
REMARK  4 active torsions:
REMARK  status: ('A' for Active; 'I' for Inactive)
REMARK    1  A    between atoms: C_6  and  C_7
REMARK    2  A    between atoms: C_7  and  N_8
REMARK    3  A    between atoms: C_12  and  C_13
REMARK    4  A    between atoms: C_13  and  N_14
REMARK                            x       y       z     vdW  Elec       q    Type
REMARK                         _______ _______ _______ _____ _____    ______ ____
ROOT
ATOM      1  N   UNL     1       0.622   9.931  19.380  0.00  0.00    +0.000 N 
ATOM      2  C   UNL     1       0.547   9.587  20.671  0.00  0.00    +0.000 A 
ATOM      3  C   UNL     1       1.237   8.460  21.143  0.00  0.00    +0.000 A 
ATOM      4  C   UNL     1       2.010   7.719  20.247  0.00  0.00    +0.000 A 
ATOM      5  C   UNL     1       2.053   8.076  18.906  0.00  0.00    +0.000 A 
ATOM      6  C   UNL     1       1.328   9.189  18.491  0.00  0.00    +0.000 A 
ENDROOT
BRANCH   1   7
ATOM      7  C   UNL     1       0.025  11.213  18.947  0.00  0.00    +0.000 C 
BRANCH   7  13
ATOM      8  F   UNL     1      -4.716  12.433  19.084  0.00  0.00    +0.000 F 
ATOM      9  C   UNL     1      -3.755  11.642  18.573  0.00  0.00    +0.000 A 
ATOM     10  C   UNL     1      -4.071  10.638  17.652  0.00  0.00    +0.000 A 
ATOM     11  C   UNL     1      -3.049   9.850  17.137  0.00  0.00    +0.000 A 
ATOM     12  C   UNL     1      -1.727  10.058  17.540  0.00  0.00    +0.000 A 
ATOM     13  C   UNL     1      -1.404  11.054  18.487  0.00  0.00    +0.000 A 
ATOM     14  C   UNL     1      -2.448  11.859  18.971  0.00  0.00    +0.000 A 
ENDBRANCH   7  13
ENDBRANCH   1   7
BRANCH   5  15
ATOM     15  C   UNL     1       2.879   7.279  17.902  0.00  0.00    +0.000 C 
BRANCH  15  16
ATOM     16  N   UNL     1       3.682   6.156  18.441  0.00  0.00    +0.000 N 
ATOM     17  C   UNL     1       4.910   5.880  17.850  0.00  0.00    +0.000 A 
ATOM     18  C   UNL     1       5.994   6.708  17.519  0.00  0.00    +0.000 A 
ATOM     19  C   UNL     1       7.064   6.116  16.846  0.00  0.00    +0.000 A 
ATOM     20  C   UNL     1       7.044   4.763  16.507  0.00  0.00    +0.000 A 
ATOM     21  C   UNL     1       5.906   3.980  16.743  0.00  0.00    +0.000 A 
ATOM     22  C   UNL     1       4.806   4.557  17.407  0.00  0.00    +0.000 A 
ATOM     23  C   UNL     1       3.487   4.140  17.745  0.00  0.00    +0.000 A 
ATOM     24  C   UNL     1       2.556   3.169  17.335  0.00  0.00    +0.000 A 
ATOM     25  C   UNL     1       1.442   2.943  18.152  0.00  0.00    +0.000 A 
ATOM     26  C   UNL     1       1.362   3.519  19.424  0.00  0.00    +0.000 A 
ATOM     27  C   UNL     1       2.239   4.534  19.807  0.00  0.00    +0.000 A 
ATOM     28  C   UNL     1       3.148   4.936  18.830  0.00  0.00    +0.000 A 
ENDBRANCH  15  16
ENDBRANCH   5  15
TORSDOF 4
ENDMDL
MODEL 2
REMARK VINA RESULT:      -9.5      1.003      1.349
REMARK  Name = 
REMARK  4 active torsions:
REMARK  status: ('A' for Active; 'I' for Inactive)
REMARK    1  A    between atoms: C_6  and  C_7
REMARK    2  A    between atoms: C_7  and  N_8
REMARK    3  A    between atoms: C_12  and  C_13
REMARK    4  A    between atoms: C_13  and  N_14
REMARK                            x       y       z     vdW  Elec       q    Type
REMARK                         _______ _______ _______ _____ _____    ______ ____
ROOT
ATOM      1  N   UNL     1       0.435   9.987  19.640  0.00  0.00    +0.000 N 
ATOM      2  C   UNL     1       0.445   9.645  20.934  0.00  0.00    +0.000 A 
ATOM      3  C   UNL     1       1.175   8.527  21.364  0.00  0.00    +0.000 A 
ATOM      4  C   UNL     1       1.898   7.792  20.423  0.00  0.00    +0.000 A 
ATOM      5  C   UNL     1       1.854   8.145  19.081  0.00  0.00    +0.000 A 
ATOM      6  C   UNL     1       1.092   9.250  18.711  0.00  0.00    +0.000 A 
ENDROOT
BRANCH   1   7
ATOM      7  C   UNL     1      -0.202  11.260  19.242  0.00  0.00    +0.000 C 
BRANCH   7  13
ATOM      8  F   UNL     1      -2.887   9.271  15.662  0.00  0.00    +0.000 F 
ATOM      9  C   UNL     1      -2.835  10.082  16.734  0.00  0.00    +0.000 A 
ATOM     10  C   UNL     1      -3.974  10.772  17.164  0.00  0.00    +0.000 A 
ATOM     11  C   UNL     1      -3.883  11.590  18.284  0.00  0.00    +0.000 A 
ATOM     12  C   UNL     1      -2.670  11.723  18.964  0.00  0.00    +0.000 A 
ATOM     13  C   UNL     1      -1.510  11.048  18.521  0.00  0.00    +0.000 A 
ATOM     14  C   UNL     1      -1.632  10.203  17.406  0.00  0.00    +0.000 A 
ENDBRANCH   7  13
ENDBRANCH   1   7
BRANCH   5  15
ATOM     15  C   UNL     1       2.623   7.355  18.029  0.00  0.00    +0.000 C 
BRANCH  15  16
ATOM     16  N   UNL     1       3.447   6.223  18.516  0.00  0.00    +0.000 N 
ATOM     17  C   UNL     1       4.620   5.919  17.835  0.00  0.00    +0.000 A 
ATOM     18  C   UNL     1       5.689   6.725  17.413  0.00  0.00    +0.000 A 
ATOM     19  C   UNL     1       6.695   6.108  16.666  0.00  0.00    +0.000 A 
ATOM     20  C   UNL     1       6.625   4.753  16.343  0.00  0.00    +0.000 A 
ATOM     21  C   UNL     1       5.495   3.993  16.674  0.00  0.00    +0.000 A 
ATOM     22  C   UNL     1       4.459   4.595  17.414  0.00  0.00    +0.000 A 
ATOM     23  C   UNL     1       3.164   4.204  17.857  0.00  0.00    +0.000 A 
ATOM     24  C   UNL     1       2.187   3.246  17.529  0.00  0.00    +0.000 A 
ATOM     25  C   UNL     1       1.136   3.048  18.432  0.00  0.00    +0.000 A 
ATOM     26  C   UNL     1       1.164   3.636  19.701  0.00  0.00    +0.000 A 
ATOM     27  C   UNL     1       2.085   4.639  20.005  0.00  0.00    +0.000 A 
ATOM     28  C   UNL     1       2.923   5.015  18.957  0.00  0.00    +0.000 A 
ENDBRANCH  15  16
ENDBRANCH   5  15
TORSDOF 4
ENDMDL
MODEL 3
REMARK VINA RESULT:      -9.2      1.316      3.404
REMARK  Name = 
REMARK  4 active torsions:
REMARK  status: ('A' for Active; 'I' for Inactive)
REMARK    1  A    between atoms: C_6  and  C_7
REMARK    2  A    between atoms: C_7  and  N_8
REMARK    3  A    between atoms: C_12  and  C_13
REMARK    4  A    between atoms: C_13  and  N_14
REMARK                            x       y       z     vdW  Elec       q    Type
REMARK                         _______ _______ _______ _____ _____    ______ ____
ROOT
ATOM      1  N   UNL     1       0.421   9.636  19.649  0.00  0.00    +0.000 N 
ATOM      2  C   UNL     1      -0.251   9.534  20.801  0.00  0.00    +0.000 A 
ATOM      3  C   UNL     1       0.086   8.539  21.730  0.00  0.00    +0.000 A 
ATOM      4  C   UNL     1       1.141   7.672  21.437  0.00  0.00    +0.000 A 
ATOM      5  C   UNL     1       1.809   7.776  20.225  0.00  0.00    +0.000 A 
ATOM      6  C   UNL     1       1.413   8.767  19.331  0.00  0.00    +0.000 A 
ENDROOT
BRANCH   1   7
ATOM      7  C   UNL     1       0.157  10.793  18.768  0.00  0.00    +0.000 C 
BRANCH   7  13
ATOM      8  F   UNL     1      -3.163   9.214  15.532  0.00  0.00    +0.000 F 
ATOM      9  C   UNL     1      -2.877  10.009  16.578  0.00  0.00    +0.000 A 
ATOM     10  C   UNL     1      -3.850  10.858  17.117  0.00  0.00    +0.000 A 
ATOM     11  C   UNL     1      -3.520  11.655  18.207  0.00  0.00    +0.000 A 
ATOM     12  C   UNL     1      -2.233  11.610  18.750  0.00  0.00    +0.000 A 
ATOM     13  C   UNL     1      -1.239  10.773  18.196  0.00  0.00    +0.000 A 
ATOM     14  C   UNL     1      -1.603   9.954  17.115  0.00  0.00    +0.000 A 
ENDBRANCH   7  13
ENDBRANCH   1   7
BRANCH   5  15
ATOM     15  C   UNL     1       2.956   6.837  19.871  0.00  0.00    +0.000 C 
BRANCH  15  16
ATOM     16  N   UNL     1       2.764   5.967  18.685  0.00  0.00    +0.000 N 
ATOM     17  C   UNL     1       2.224   4.701  18.877  0.00  0.00    +0.000 A 
ATOM     18  C   UNL     1       1.088   4.268  19.579  0.00  0.00    +0.000 A 
ATOM     19  C   UNL     1       0.867   2.890  19.644  0.00  0.00    +0.000 A 
ATOM     20  C   UNL     1       1.750   1.990  19.049  0.00  0.00    +0.000 A 
ATOM     21  C   UNL     1       2.937   2.435  18.452  0.00  0.00    +0.000 A 
ATOM     22  C   UNL     1       3.192   3.818  18.387  0.00  0.00    +0.000 A 
ATOM     23  C   UNL     1       4.276   4.635  17.957  0.00  0.00    +0.000 A 
ATOM     24  C   UNL     1       5.657   4.509  17.723  0.00  0.00    +0.000 A 
ATOM     25  C   UNL     1       6.301   5.542  17.031  0.00  0.00    +0.000 A 
ATOM     26  C   UNL     1       5.563   6.562  16.423  0.00  0.00    +0.000 A 
ATOM     27  C   UNL     1       4.208   6.734  16.709  0.00  0.00    +0.000 A 
ATOM     28  C   UNL     1       3.681   5.852  17.650  0.00  0.00    +0.000 A 
ENDBRANCH  15  16
ENDBRANCH   5  15
TORSDOF 4
ENDMDL
MODEL 4
REMARK VINA RESULT:      -9.2      0.897      3.136
REMARK  Name = 
REMARK  4 active torsions:
REMARK  status: ('A' for Active; 'I' for Inactive)
REMARK    1  A    between atoms: C_6  and  C_7
REMARK    2  A    between atoms: C_7  and  N_8
REMARK    3  A    between atoms: C_12  and  C_13
REMARK    4  A    between atoms: C_13  and  N_14
REMARK                            x       y       z     vdW  Elec       q    Type
REMARK                         _______ _______ _______ _____ _____    ______ ____
ROOT
ATOM      1  N   UNL     1       0.401   9.648  19.570  0.00  0.00    +0.000 N 
ATOM      2  C   UNL     1      -0.284   9.539  20.714  0.00  0.00    +0.000 A 
ATOM      3  C   UNL     1       0.062   8.558  21.654  0.00  0.00    +0.000 A 
ATOM      4  C   UNL     1       1.138   7.712  21.381  0.00  0.00    +0.000 A 
ATOM      5  C   UNL     1       1.821   7.822  20.177  0.00  0.00    +0.000 A 
ATOM      6  C   UNL     1       1.416   8.799  19.272  0.00  0.00    +0.000 A 
ENDROOT
BRANCH   1   7
ATOM      7  C   UNL     1       0.125  10.794  18.677  0.00  0.00    +0.000 C 
BRANCH   7  13
ATOM      8  F   UNL     1      -4.486  12.441  18.773  0.00  0.00    +0.000 F 
ATOM      9  C   UNL     1      -3.586  11.598  18.237  0.00  0.00    +0.000 A 
ATOM     10  C   UNL     1      -3.964  10.686  17.246  0.00  0.00    +0.000 A 
ATOM     11  C   UNL     1      -3.003   9.839  16.707  0.00  0.00    +0.000 A 
ATOM     12  C   UNL     1      -1.681   9.897  17.156  0.00  0.00    +0.000 A 
ATOM     13  C   UNL     1      -1.297  10.798  18.173  0.00  0.00    +0.000 A 
ATOM     14  C   UNL     1      -2.278  11.666  18.681  0.00  0.00    +0.000 A 
ENDBRANCH   7  13
ENDBRANCH   1   7
BRANCH   5  15
ATOM     15  C   UNL     1       2.993   6.905  19.845  0.00  0.00    +0.000 C 
BRANCH  15  16
ATOM     16  N   UNL     1       2.822   5.998  18.685  0.00  0.00    +0.000 N 
ATOM     17  C   UNL     1       2.273   4.740  18.907  0.00  0.00    +0.000 A 
ATOM     18  C   UNL     1       1.121   4.334  19.599  0.00  0.00    +0.000 A 
ATOM     19  C   UNL     1       0.894   2.960  19.704  0.00  0.00    +0.000 A 
ATOM     20  C   UNL     1       1.786   2.038  19.156  0.00  0.00    +0.000 A 
ATOM     21  C   UNL     1       2.986   2.460  18.570  0.00  0.00    +0.000 A 
ATOM     22  C   UNL     1       3.248   3.839  18.465  0.00  0.00    +0.000 A 
ATOM     23  C   UNL     1       4.343   4.639  18.031  0.00  0.00    +0.000 A 
ATOM     24  C   UNL     1       5.728   4.501  17.830  0.00  0.00    +0.000 A 
ATOM     25  C   UNL     1       6.390   5.508  17.118  0.00  0.00    +0.000 A 
ATOM     26  C   UNL     1       5.668   6.511  16.462  0.00  0.00    +0.000 A 
ATOM     27  C   UNL     1       4.309   6.696  16.715  0.00  0.00    +0.000 A 
ATOM     28  C   UNL     1       3.760   5.846  17.674  0.00  0.00    +0.000 A 
ENDBRANCH  15  16
ENDBRANCH   5  15
TORSDOF 4
ENDMDL
MODEL 5
REMARK VINA RESULT:      -9.2      1.025      1.512
REMARK  Name = 
REMARK  4 active torsions:
REMARK  status: ('A' for Active; 'I' for Inactive)
REMARK    1  A    between atoms: C_6  and  C_7
REMARK    2  A    between atoms: C_7  and  N_8
REMARK    3  A    between atoms: C_12  and  C_13
REMARK    4  A    between atoms: C_13  and  N_14
REMARK                            x       y       z     vdW  Elec       q    Type
REMARK                         _______ _______ _______ _____ _____    ______ ____
ROOT
ATOM      1  N   UNL     1       0.637  10.381  19.933  0.00  0.00    +0.000 N 
ATOM      2  C   UNL     1       0.694  10.054  21.228  0.00  0.00    +0.000 A 
ATOM      3  C   UNL     1       1.239   8.823  21.623  0.00  0.00    +0.000 A 
ATOM      4  C   UNL     1       1.734   7.960  20.643  0.00  0.00    +0.000 A 
ATOM      5  C   UNL     1       1.642   8.305  19.302  0.00  0.00    +0.000 A 
ATOM      6  C   UNL     1       1.067   9.529  18.969  0.00  0.00    +0.000 A 
ENDROOT
BRANCH   1   7
ATOM      7  C   UNL     1       0.215  11.748  19.559  0.00  0.00    +0.000 C 
BRANCH   7  13
ATOM      8  F   UNL     1      -4.083  11.032  17.321  0.00  0.00    +0.000 F 
ATOM      9  C   UNL     1      -3.412  11.551  18.365  0.00  0.00    +0.000 A 
ATOM     10  C   UNL     1      -4.085  12.261  19.365  0.00  0.00    +0.000 A 
ATOM     11  C   UNL     1      -3.359  12.771  20.434  0.00  0.00    +0.000 A 
ATOM     12  C   UNL     1      -1.976  12.580  20.503  0.00  0.00    +0.000 A 
ATOM     13  C   UNL     1      -1.287  11.884  19.485  0.00  0.00    +0.000 A 
ATOM     14  C   UNL     1      -2.045  11.352  18.430  0.00  0.00    +0.000 A 
ENDBRANCH   7  13
ENDBRANCH   1   7
BRANCH   5  15
ATOM     15  C   UNL     1       2.162   7.379  18.209  0.00  0.00    +0.000 C 
BRANCH  15  16
ATOM     16  N   UNL     1       3.065   6.284  18.637  0.00  0.00    +0.000 N 
ATOM     17  C   UNL     1       4.128   5.943  17.808  0.00  0.00    +0.000 A 
ATOM     18  C   UNL     1       5.111   6.726  17.182  0.00  0.00    +0.000 A 
ATOM     19  C   UNL     1       6.003   6.068  16.333  0.00  0.00    +0.000 A 
ATOM     20  C   UNL     1       5.906   4.694  16.110  0.00  0.00    +0.000 A 
ATOM     21  C   UNL     1       4.849   3.951  16.652  0.00  0.00    +0.000 A 
ATOM     22  C   UNL     1       3.926   4.594  17.499  0.00  0.00    +0.000 A 
ATOM     23  C   UNL     1       2.717   4.226  18.154  0.00  0.00    +0.000 A 
ATOM     24  C   UNL     1       1.716   3.244  18.037  0.00  0.00    +0.000 A 
ATOM     25  C   UNL     1       0.814   3.098  19.097  0.00  0.00    +0.000 A 
ATOM     26  C   UNL     1       1.022   3.767  20.308  0.00  0.00    +0.000 A 
ATOM     27  C   UNL     1       1.963   4.791  20.408  0.00  0.00    +0.000 A 
ATOM     28  C   UNL     1       2.631   5.104  19.225  0.00  0.00    +0.000 A 
ENDBRANCH  15  16
ENDBRANCH   5  15
TORSDOF 4
ENDMDL
MODEL 6
REMARK VINA RESULT:      -9.0      2.687      3.691
REMARK  Name = 
REMARK  4 active torsions:
REMARK  status: ('A' for Active; 'I' for Inactive)
REMARK    1  A    between atoms: C_6  and  C_7
REMARK    2  A    between atoms: C_7  and  N_8
REMARK    3  A    between atoms: C_12  and  C_13
REMARK    4  A    between atoms: C_13  and  N_14
REMARK                            x       y       z     vdW  Elec       q    Type
REMARK                         _______ _______ _______ _____ _____    ______ ____
ROOT
ATOM      1  N   UNL     1       0.738  10.589  20.062  0.00  0.00    +0.000 N 
ATOM      2  C   UNL     1       0.808  10.255  21.356  0.00  0.00    +0.000 A 
ATOM      3  C   UNL     1       1.268   8.985  21.733  0.00  0.00    +0.000 A 
ATOM      4  C   UNL     1       1.663   8.088  20.739  0.00  0.00    +0.000 A 
ATOM      5  C   UNL     1       1.558   8.443  19.401  0.00  0.00    +0.000 A 
ATOM      6  C   UNL     1       1.070   9.708  19.086  0.00  0.00    +0.000 A 
ENDROOT
BRANCH   1   7
ATOM      7  C   UNL     1       0.412  11.985  19.702  0.00  0.00    +0.000 C 
BRANCH   7  13
ATOM      8  F   UNL     1       3.919  14.743  21.724  0.00  0.00    +0.000 F 
ATOM      9  C   UNL     1       3.364  14.241  20.606  0.00  0.00    +0.000 A 
ATOM     10  C   UNL     1       3.884  14.555  19.346  0.00  0.00    +0.000 A 
ATOM     11  C   UNL     1       3.291  14.006  18.216  0.00  0.00    +0.000 A 
ATOM     12  C   UNL     1       2.187  13.159  18.339  0.00  0.00    +0.000 A 
ATOM     13  C   UNL     1       1.641  12.856  19.607  0.00  0.00    +0.000 A 
ATOM     14  C   UNL     1       2.276  13.397  20.737  0.00  0.00    +0.000 A 
ENDBRANCH   7  13
ENDBRANCH   1   7
BRANCH   5  15
ATOM     15  C   UNL     1       1.970   7.481  18.292  0.00  0.00    +0.000 C 
BRANCH  15  16
ATOM     16  N   UNL     1       2.922   6.407  18.662  0.00  0.00    +0.000 N 
ATOM     17  C   UNL     1       3.919   6.068  17.755  0.00  0.00    +0.000 A 
ATOM     18  C   UNL     1       4.835   6.854  17.038  0.00  0.00    +0.000 A 
ATOM     19  C   UNL     1       5.665   6.195  16.129  0.00  0.00    +0.000 A 
ATOM     20  C   UNL     1       5.572   4.816  15.936  0.00  0.00    +0.000 A 
ATOM     21  C   UNL     1       4.575   4.067  16.574  0.00  0.00    +0.000 A 
ATOM     22  C   UNL     1       3.714   4.710  17.484  0.00  0.00    +0.000 A 
ATOM     23  C   UNL     1       2.568   4.336  18.242  0.00  0.00    +0.000 A 
ATOM     24  C   UNL     1       1.577   3.338  18.222  0.00  0.00    +0.000 A 
ATOM     25  C   UNL     1       0.767   3.197  19.355  0.00  0.00    +0.000 A 
ATOM     26  C   UNL     1       1.063   3.888  20.534  0.00  0.00    +0.000 A 
ATOM     27  C   UNL     1       1.993   4.928  20.541  0.00  0.00    +0.000 A 
ATOM     28  C   UNL     1       2.556   5.231  19.302  0.00  0.00    +0.000 A 
ENDBRANCH  15  16
ENDBRANCH   5  15
TORSDOF 4
ENDMDL
MODEL 7
REMARK VINA RESULT:      -8.9      3.901      8.274
REMARK  Name = 
REMARK  4 active torsions:
REMARK  status: ('A' for Active; 'I' for Inactive)
REMARK    1  A    between atoms: C_6  and  C_7
REMARK    2  A    between atoms: C_7  and  N_8
REMARK    3  A    between atoms: C_12  and  C_13
REMARK    4  A    between atoms: C_13  and  N_14
REMARK                            x       y       z     vdW  Elec       q    Type
REMARK                         _______ _______ _______ _____ _____    ______ ____
ROOT
ATOM      1  N   UNL     1       5.810   4.507  16.550  0.00  0.00    +0.000 N 
ATOM      2  C   UNL     1       6.657   4.397  17.579  0.00  0.00    +0.000 A 
ATOM      3  C   UNL     1       6.589   5.301  18.650  0.00  0.00    +0.000 A 
ATOM      4  C   UNL     1       5.616   6.301  18.627  0.00  0.00    +0.000 A 
ATOM      5  C   UNL     1       4.763   6.416  17.538  0.00  0.00    +0.000 A 
ATOM      6  C   UNL     1       4.894   5.505  16.493  0.00  0.00    +0.000 A 
ENDROOT
BRANCH   1   7
ATOM      7  C   UNL     1       5.792   3.444  15.522  0.00  0.00    +0.000 C 
BRANCH   7  13
ATOM      8  F   UNL     1       8.915   6.188  12.931  0.00  0.00    +0.000 F 
ATOM      9  C   UNL     1       7.927   5.277  12.932  0.00  0.00    +0.000 A 
ATOM     10  C   UNL     1       7.415   4.777  11.730  0.00  0.00    +0.000 A 
ATOM     11  C   UNL     1       6.402   3.826  11.772  0.00  0.00    +0.000 A 
ATOM     12  C   UNL     1       5.901   3.382  12.999  0.00  0.00    +0.000 A 
ATOM     13  C   UNL     1       6.397   3.900  14.216  0.00  0.00    +0.000 A 
ATOM     14  C   UNL     1       7.441   4.837  14.151  0.00  0.00    +0.000 A 
ENDBRANCH   7  13
ENDBRANCH   1   7
BRANCH   5  15
ATOM     15  C   UNL     1       3.698   7.505  17.478  0.00  0.00    +0.000 C 
BRANCH  15  16
ATOM     16  N   UNL     1       2.381   7.183  18.078  0.00  0.00    +0.000 N 
ATOM     17  C   UNL     1       1.807   8.106  18.945  0.00  0.00    +0.000 A 
ATOM     18  C   UNL     1       1.597   9.489  18.829  0.00  0.00    +0.000 A 
ATOM     19  C   UNL     1       1.058  10.145  19.938  0.00  0.00    +0.000 A 
ATOM     20  C   UNL     1       0.760   9.453  21.111  0.00  0.00    +0.000 A 
ATOM     21  C   UNL     1       1.084   8.097  21.248  0.00  0.00    +0.000 A 
ATOM     22  C   UNL     1       1.643   7.414  20.150  0.00  0.00    +0.000 A 
ATOM     23  C   UNL     1       2.168   6.111  19.921  0.00  0.00    +0.000 A 
ATOM     24  C   UNL     1       2.681   5.039  20.673  0.00  0.00    +0.000 A 
ATOM     25  C   UNL     1       2.843   3.806  20.030  0.00  0.00    +0.000 A 
ATOM     26  C   UNL     1       2.328   3.597  18.747  0.00  0.00    +0.000 A 
ATOM     27  C   UNL     1       1.886   4.668  17.970  0.00  0.00    +0.000 A 
ATOM     28  C   UNL     1       2.030   5.927  18.552  0.00  0.00    +0.000 A 
ENDBRANCH  15  16
ENDBRANCH   5  15
TORSDOF 4
ENDMDL
MODEL 8
REMARK VINA RESULT:      -8.9      1.302      1.617
REMARK  Name = 
REMARK  4 active torsions:
REMARK  status: ('A' for Active; 'I' for Inactive)
REMARK    1  A    between atoms: C_6  and  C_7
REMARK    2  A    between atoms: C_7  and  N_8
REMARK    3  A    between atoms: C_12  and  C_13
REMARK    4  A    between atoms: C_13  and  N_14
REMARK                            x       y       z     vdW  Elec       q    Type
REMARK                         _______ _______ _______ _____ _____    ______ ____
ROOT
ATOM      1  N   UNL     1       0.760  10.494  19.902  0.00  0.00    +0.000 N 
ATOM      2  C   UNL     1       0.809  10.186  21.203  0.00  0.00    +0.000 A 
ATOM      3  C   UNL     1       1.259   8.923  21.613  0.00  0.00    +0.000 A 
ATOM      4  C   UNL     1       1.668   8.005  20.645  0.00  0.00    +0.000 A 
ATOM      5  C   UNL     1       1.586   8.332  19.298  0.00  0.00    +0.000 A 
ATOM      6  C   UNL     1       1.106   9.592  18.950  0.00  0.00    +0.000 A 
ENDROOT
BRANCH   1   7
ATOM      7  C   UNL     1       0.444  11.883  19.507  0.00  0.00    +0.000 C 
BRANCH   7  13
ATOM      8  F   UNL     1      -3.203  14.133  21.880  0.00  0.00    +0.000 F 
ATOM      9  C   UNL     1      -2.824  13.310  20.886  0.00  0.00    +0.000 A 
ATOM     10  C   UNL     1      -3.775  12.715  20.050  0.00  0.00    +0.000 A 
ATOM     11  C   UNL     1      -3.344  11.880  19.026  0.00  0.00    +0.000 A 
ATOM     12  C   UNL     1      -1.981  11.636  18.841  0.00  0.00    +0.000 A 
ATOM     13  C   UNL     1      -1.017  12.215  19.696  0.00  0.00    +0.000 A 
ATOM     14  C   UNL     1      -1.473  13.079  20.705  0.00  0.00    +0.000 A 
ENDBRANCH   7  13
ENDBRANCH   1   7
BRANCH   5  15
ATOM     15  C   UNL     1       2.013   7.347  18.216  0.00  0.00    +0.000 C 
BRANCH  15  16
ATOM     16  N   UNL     1       2.967   6.286  18.620  0.00  0.00    +0.000 N 
ATOM     17  C   UNL     1       3.992   5.951  17.743  0.00  0.00    +0.000 A 
ATOM     18  C   UNL     1       4.919   6.742  17.046  0.00  0.00    +0.000 A 
ATOM     19  C   UNL     1       5.780   6.085  16.165  0.00  0.00    +0.000 A 
ATOM     20  C   UNL     1       5.707   4.704  15.980  0.00  0.00    +0.000 A 
ATOM     21  C   UNL     1       4.701   3.949  16.597  0.00  0.00    +0.000 A 
ATOM     22  C   UNL     1       3.809   4.590  17.478  0.00  0.00    +0.000 A 
ATOM     23  C   UNL     1       2.646   4.208  18.207  0.00  0.00    +0.000 A 
ATOM     24  C   UNL     1       1.667   3.200  18.168  0.00  0.00    +0.000 A 
ATOM     25  C   UNL     1       0.827   3.058  19.279  0.00  0.00    +0.000 A 
ATOM     26  C   UNL     1       1.083   3.762  20.461  0.00  0.00    +0.000 A 
ATOM     27  C   UNL     1       2.002   4.812  20.485  0.00  0.00    +0.000 A 
ATOM     28  C   UNL     1       2.596   5.112  19.260  0.00  0.00    +0.000 A 
ENDBRANCH  15  16
ENDBRANCH   5  15
TORSDOF 4
ENDMDL
MODEL 9
REMARK VINA RESULT:      -8.9      3.373      8.642
REMARK  Name = 
REMARK  4 active torsions:
REMARK  status: ('A' for Active; 'I' for Inactive)
REMARK    1  A    between atoms: C_6  and  C_7
REMARK    2  A    between atoms: C_7  and  N_8
REMARK    3  A    between atoms: C_12  and  C_13
REMARK    4  A    between atoms: C_13  and  N_14
REMARK                            x       y       z     vdW  Elec       q    Type
REMARK                         _______ _______ _______ _____ _____    ______ ____
ROOT
ATOM      1  N   UNL     1       2.165   6.996  19.716  0.00  0.00    +0.000 N 
ATOM      2  C   UNL     1       2.809   6.781  18.563  0.00  0.00    +0.000 A 
ATOM      3  C   UNL     1       2.861   7.784  17.585  0.00  0.00    +0.000 A 
ATOM      4  C   UNL     1       2.244   9.010  17.842  0.00  0.00    +0.000 A 
ATOM      5  C   UNL     1       1.558   9.206  19.033  0.00  0.00    +0.000 A 
ATOM      6  C   UNL     1       1.519   8.164  19.956  0.00  0.00    +0.000 A 
ENDROOT
BRANCH   1   7
ATOM      7  C   UNL     1       2.269   5.989  20.792  0.00  0.00    +0.000 C 
BRANCH   7  13
ATOM      8  F   UNL     1       4.247   1.790  19.228  0.00  0.00    +0.000 F 
ATOM      9  C   UNL     1       3.136   2.506  19.472  0.00  0.00    +0.000 A 
ATOM     10  C   UNL     1       1.870   1.976  19.203  0.00  0.00    +0.000 A 
ATOM     11  C   UNL     1       0.745   2.742  19.481  0.00  0.00    +0.000 A 
ATOM     12  C   UNL     1       0.880   4.026  20.017  0.00  0.00    +0.000 A 
ATOM     13  C   UNL     1       2.156   4.577  20.270  0.00  0.00    +0.000 A 
ATOM     14  C   UNL     1       3.278   3.773  20.010  0.00  0.00    +0.000 A 
ENDBRANCH   7  13
ENDBRANCH   1   7
BRANCH   5  15
ATOM     15  C   UNL     1       0.864  10.529  19.338  0.00  0.00    +0.000 C 
BRANCH  15  16
ATOM     16  N   UNL     1      -0.571  10.460  19.702  0.00  0.00    +0.000 N 
ATOM     17  C   UNL     1      -1.513  10.475  18.679  0.00  0.00    +0.000 A 
ATOM     18  C   UNL     1      -1.613   9.732  17.493  0.00  0.00    +0.000 A 
ATOM     19  C   UNL     1      -2.658  10.056  16.626  0.00  0.00    +0.000 A 
ATOM     20  C   UNL     1      -3.551  11.085  16.925  0.00  0.00    +0.000 A 
ATOM     21  C   UNL     1      -3.366  11.890  18.056  0.00  0.00    +0.000 A 
ATOM     22  C   UNL     1      -2.310  11.595  18.940  0.00  0.00    +0.000 A 
ATOM     23  C   UNL     1      -1.758  12.198  20.106  0.00  0.00    +0.000 A 
ATOM     24  C   UNL     1      -1.744  13.458  20.729  0.00  0.00    +0.000 A 
ATOM     25  C   UNL     1      -1.274  13.534  22.045  0.00  0.00    +0.000 A 
ATOM     26  C   UNL     1      -1.015  12.370  22.778  0.00  0.00    +0.000 A 
ATOM     27  C   UNL     1      -0.956  11.126  22.149  0.00  0.00    +0.000 A 
ATOM     28  C   UNL     1      -1.136  11.148  20.767  0.00  0.00    +0.000 A 
ENDBRANCH  15  16
ENDBRANCH   5  15
TORSDOF 4
ENDMDL
