MODEL 1
REMARK VINA RESULT:      -7.8      0.000      0.000
REMARK  Name = 
REMARK  13 active torsions:
REMARK  status: ('A' for Active; 'I' for Inactive)
REMARK    1  A    between atoms: C_1  and  C_2
REMARK    2  A    between atoms: C_2  and  C_3
REMARK    3  A    between atoms: C_3  and  C_4
REMARK    4  A    between atoms: C_5  and  C_6
REMARK    5  A    between atoms: C_5  and  C_9
REMARK    6  A    between atoms: C_6  and  C_7
REMARK    7  A    between atoms: C_7  and  C_8
REMARK    8  A    between atoms: C_9  and  N_10
REMARK    9  A    between atoms: C_9  and  C_19
REMARK   10  A    between atoms: C_11  and  C_13
REMARK   11  A    between atoms: C_22  and  C_23
REMARK   12  A    between atoms: C_23  and  O_25
REMARK   13  A    between atoms: O_25  and  C_26
REMARK                            x       y       z     vdW  Elec       q    Type
REMARK                         _______ _______ _______ _____ _____    ______ ____
ROOT
ATOM      1  C   UNL     1       3.003   6.181  19.245  0.00  0.00    +0.000 C 
ENDROOT
BRANCH   1   2
ATOM      2  C   UNL     1       2.332   7.548  19.141  0.00  0.00    +0.000 A 
ATOM      3  C   UNL     1       1.703   8.114  20.261  0.00  0.00    +0.000 A 
ATOM      4  C   UNL     1       0.941   9.284  20.139  0.00  0.00    +0.000 A 
ATOM      5  C   UNL     1       0.781   9.892  18.890  0.00  0.00    +0.000 A 
ATOM      6  C   UNL     1       1.483   9.391  17.793  0.00  0.00    +0.000 A 
ATOM      7  C   UNL     1       2.296   8.266  17.936  0.00  0.00    +0.000 A 
BRANCH   5   8
ATOM      8  C   UNL     1      -0.142  11.050  18.767  0.00  0.00    +0.000 C 
ATOM      9  O   UNL     1      -0.007  12.101  19.365  0.00  0.00    +0.000 OA
BRANCH   8  10
ATOM     10  O   UNL     1      -1.166  10.740  17.923  0.00  0.00    +0.000 OA
ATOM     11  C   UNL     1      -2.286  11.626  18.001  0.00  0.00    +0.000 C 
ENDBRANCH   8  10
ENDBRANCH   5   8
ENDBRANCH   1   2
BRANCH   1  12
ATOM     12  N   UNL     1       3.787   5.896  18.061  0.00  0.00    +0.000 N 
ATOM     13  C   UNL     1       4.997   5.232  18.129  0.00  0.00    +0.000 C 
ATOM     14  O   UNL     1       5.495   4.805  19.161  0.00  0.00    +0.000 OA
ATOM     15  H   UNL     1       3.366   6.079  17.170  0.00  0.00    +0.000 HD
BRANCH  13  16
ATOM     16  C   UNL     1       5.664   5.000  16.814  0.00  0.00    +0.000 A 
ATOM     17  C   UNL     1       6.999   5.369  16.601  0.00  0.00    +0.000 A 
ATOM     18  C   UNL     1       7.578   5.208  15.342  0.00  0.00    +0.000 A 
ATOM     19  C   UNL     1       6.834   4.664  14.297  0.00  0.00    +0.000 A 
ATOM     20  C   UNL     1       5.519   4.254  14.513  0.00  0.00    +0.000 A 
ATOM     21  C   UNL     1       4.932   4.413  15.773  0.00  0.00    +0.000 A 
ENDBRANCH  13  16
ENDBRANCH   1  12
BRANCH   1  23
ATOM     22  C   UNL     1       1.709   4.188  18.435  0.00  0.00    +0.000 C 
ATOM     23  C   UNL     1       2.071   4.967  19.485  0.00  0.00    +0.000 C 
BRANCH  22  24
ATOM     24  C   UNL     1       0.840   2.956  18.472  0.00  0.00    +0.000 C 
BRANCH  24  26
ATOM     25  C   UNL     1       3.091   1.904  18.066  0.00  0.00    +0.000 C 
ATOM     26  C   UNL     1       1.657   1.664  18.522  0.00  0.00    +0.000 C 
ENDBRANCH  24  26
ENDBRANCH  22  24
BRANCH  23  27
ATOM     27  C   UNL     1       1.511   4.680  20.873  0.00  0.00    +0.000 C 
BRANCH  27  28
ATOM     28  C   UNL     1       2.332   3.674  21.691  0.00  0.00    +0.000 C 
ATOM     29  C   UNL     1       1.530   2.414  21.986  0.00  0.00    +0.000 C 
ENDBRANCH  27  28
ENDBRANCH  23  27
ENDBRANCH   1  23
TORSDOF 10
ENDMDL
MODEL 2
REMARK VINA RESULT:      -7.6      0.528      1.272
REMARK  Name = 
REMARK  13 active torsions:
REMARK  status: ('A' for Active; 'I' for Inactive)
REMARK    1  A    between atoms: C_1  and  C_2
REMARK    2  A    between atoms: C_2  and  C_3
REMARK    3  A    between atoms: C_3  and  C_4
REMARK    4  A    between atoms: C_5  and  C_6
REMARK    5  A    between atoms: C_5  and  C_9
REMARK    6  A    between atoms: C_6  and  C_7
REMARK    7  A    between atoms: C_7  and  C_8
REMARK    8  A    between atoms: C_9  and  N_10
REMARK    9  A    between atoms: C_9  and  C_19
REMARK   10  A    between atoms: C_11  and  C_13
REMARK   11  A    between atoms: C_22  and  C_23
REMARK   12  A    between atoms: C_23  and  O_25
REMARK   13  A    between atoms: O_25  and  C_26
REMARK                            x       y       z     vdW  Elec       q    Type
REMARK                         _______ _______ _______ _____ _____    ______ ____
ROOT
ATOM      1  C   UNL     1       2.976   6.194  19.214  0.00  0.00    +0.000 C 
ENDROOT
BRANCH   1   2
ATOM      2  C   UNL     1       2.294   7.558  19.151  0.00  0.00    +0.000 A 
ATOM      3  C   UNL     1       1.678   8.095  20.293  0.00  0.00    +0.000 A 
ATOM      4  C   UNL     1       0.906   9.261  20.209  0.00  0.00    +0.000 A 
ATOM      5  C   UNL     1       0.721   9.895  18.976  0.00  0.00    +0.000 A 
ATOM      6  C   UNL     1       1.409   9.423  17.857  0.00  0.00    +0.000 A 
ATOM      7  C   UNL     1       2.233   8.302  17.963  0.00  0.00    +0.000 A 
BRANCH   5   8
ATOM      8  C   UNL     1      -0.213  11.048  18.893  0.00  0.00    +0.000 C 
ATOM      9  O   UNL     1      -1.425  10.952  18.924  0.00  0.00    +0.000 OA
BRANCH   8  10
ATOM     10  O   UNL     1       0.490  12.205  18.740  0.00  0.00    +0.000 OA
ATOM     11  C   UNL     1       0.335  13.138  19.812  0.00  0.00    +0.000 C 
ENDBRANCH   8  10
ENDBRANCH   5   8
ENDBRANCH   1   2
BRANCH   1  12
ATOM     12  N   UNL     1       3.731   5.935  18.006  0.00  0.00    +0.000 N 
ATOM     13  C   UNL     1       4.965   5.314  18.035  0.00  0.00    +0.000 C 
ATOM     14  O   UNL     1       5.511   4.907  19.051  0.00  0.00    +0.000 OA
ATOM     15  H   UNL     1       3.275   6.102  17.129  0.00  0.00    +0.000 HD
BRANCH  13  16
ATOM     16  C   UNL     1       5.597   5.103  16.700  0.00  0.00    +0.000 A 
ATOM     17  C   UNL     1       4.893   4.501  15.649  0.00  0.00    +0.000 A 
ATOM     18  C   UNL     1       5.529   4.248  14.433  0.00  0.00    +0.000 A 
ATOM     19  C   UNL     1       6.863   4.610  14.255  0.00  0.00    +0.000 A 
ATOM     20  C   UNL     1       7.557   5.250  15.282  0.00  0.00    +0.000 A 
ATOM     21  C   UNL     1       6.926   5.505  16.504  0.00  0.00    +0.000 A 
ENDBRANCH  13  16
ENDBRANCH   1  12
BRANCH   1  23
ATOM     22  C   UNL     1       1.728   4.168  18.415  0.00  0.00    +0.000 C 
ATOM     23  C   UNL     1       2.059   4.970  19.459  0.00  0.00    +0.000 C 
BRANCH  22  24
ATOM     24  C   UNL     1       0.877   2.923  18.457  0.00  0.00    +0.000 C 
BRANCH  24  26
ATOM     25  C   UNL     1       3.192   1.947  18.294  0.00  0.00    +0.000 C 
ATOM     26  C   UNL     1       1.699   1.647  18.268  0.00  0.00    +0.000 C 
ENDBRANCH  24  26
ENDBRANCH  22  24
BRANCH  23  27
ATOM     27  C   UNL     1       1.480   4.697  20.841  0.00  0.00    +0.000 C 
BRANCH  27  28
ATOM     28  C   UNL     1       2.319   3.742  21.701  0.00  0.00    +0.000 C 
ATOM     29  C   UNL     1       1.592   2.425  21.938  0.00  0.00    +0.000 C 
ENDBRANCH  27  28
ENDBRANCH  23  27
ENDBRANCH   1  23
TORSDOF 10
ENDMDL
MODEL 3
REMARK VINA RESULT:      -7.6      0.731      1.214
REMARK  Name = 
REMARK  13 active torsions:
REMARK  status: ('A' for Active; 'I' for Inactive)
REMARK    1  A    between atoms: C_1  and  C_2
REMARK    2  A    between atoms: C_2  and  C_3
REMARK    3  A    between atoms: C_3  and  C_4
REMARK    4  A    between atoms: C_5  and  C_6
REMARK    5  A    between atoms: C_5  and  C_9
REMARK    6  A    between atoms: C_6  and  C_7
REMARK    7  A    between atoms: C_7  and  C_8
REMARK    8  A    between atoms: C_9  and  N_10
REMARK    9  A    between atoms: C_9  and  C_19
REMARK   10  A    between atoms: C_11  and  C_13
REMARK   11  A    between atoms: C_22  and  C_23
REMARK   12  A    between atoms: C_23  and  O_25
REMARK   13  A    between atoms: O_25  and  C_26
REMARK                            x       y       z     vdW  Elec       q    Type
REMARK                         _______ _______ _______ _____ _____    ______ ____
ROOT
ATOM      1  C   UNL     1       2.930   6.236  19.235  0.00  0.00    +0.000 C 
ENDROOT
BRANCH   1   2
ATOM      2  C   UNL     1       2.226   7.583  19.094  0.00  0.00    +0.000 A 
ATOM      3  C   UNL     1       2.325   8.312  17.899  0.00  0.00    +0.000 A 
ATOM      4  C   UNL     1       1.829   9.619  17.814  0.00  0.00    +0.000 A 
ATOM      5  C   UNL     1       1.246  10.224  18.933  0.00  0.00    +0.000 A 
ATOM      6  C   UNL     1       1.056   9.472  20.093  0.00  0.00    +0.000 A 
ATOM      7  C   UNL     1       1.490   8.147  20.147  0.00  0.00    +0.000 A 
BRANCH   5   8
ATOM      8  C   UNL     1       0.854  11.655  18.854  0.00  0.00    +0.000 C 
ATOM      9  O   UNL     1       1.598  12.551  18.501  0.00  0.00    +0.000 OA
BRANCH   8  10
ATOM     10  O   UNL     1      -0.435  11.808  19.268  0.00  0.00    +0.000 OA
ATOM     11  C   UNL     1      -0.635  12.878  20.195  0.00  0.00    +0.000 C 
ENDBRANCH   8  10
ENDBRANCH   5   8
ENDBRANCH   1   2
BRANCH   1  12
ATOM     12  N   UNL     1       3.739   5.948  18.068  0.00  0.00    +0.000 N 
ATOM     13  C   UNL     1       4.912   5.223  18.153  0.00  0.00    +0.000 C 
ATOM     14  O   UNL     1       5.353   4.741  19.187  0.00  0.00    +0.000 OA
ATOM     15  H   UNL     1       3.358   6.180  17.170  0.00  0.00    +0.000 HD
BRANCH  13  16
ATOM     16  C   UNL     1       5.611   4.998  16.854  0.00  0.00    +0.000 A 
ATOM     17  C   UNL     1       6.941   5.395  16.666  0.00  0.00    +0.000 A 
ATOM     18  C   UNL     1       7.549   5.239  15.420  0.00  0.00    +0.000 A 
ATOM     19  C   UNL     1       6.839   4.674  14.363  0.00  0.00    +0.000 A 
ATOM     20  C   UNL     1       5.529   4.237  14.555  0.00  0.00    +0.000 A 
ATOM     21  C   UNL     1       4.913   4.390  15.802  0.00  0.00    +0.000 A 
ENDBRANCH  13  16
ENDBRANCH   1  12
BRANCH   1  23
ATOM     22  C   UNL     1       1.654   4.226  18.438  0.00  0.00    +0.000 C 
ATOM     23  C   UNL     1       2.027   5.003  19.486  0.00  0.00    +0.000 C 
BRANCH  22  24
ATOM     24  C   UNL     1       0.808   2.978  18.483  0.00  0.00    +0.000 C 
BRANCH  24  26
ATOM     25  C   UNL     1       3.036   1.931  17.958  0.00  0.00    +0.000 C 
ATOM     26  C   UNL     1       1.650   1.703  18.546  0.00  0.00    +0.000 C 
ENDBRANCH  24  26
ENDBRANCH  22  24
BRANCH  23  27
ATOM     27  C   UNL     1       1.504   4.695  20.883  0.00  0.00    +0.000 C 
BRANCH  27  28
ATOM     28  C   UNL     1       2.348   3.678  21.664  0.00  0.00    +0.000 C 
ATOM     29  C   UNL     1       1.548   2.422  21.984  0.00  0.00    +0.000 C 
ENDBRANCH  27  28
ENDBRANCH  23  27
ENDBRANCH   1  23
TORSDOF 10
ENDMDL
MODEL 4
REMARK VINA RESULT:      -7.5      0.531      1.398
REMARK  Name = 
REMARK  13 active torsions:
REMARK  status: ('A' for Active; 'I' for Inactive)
REMARK    1  A    between atoms: C_1  and  C_2
REMARK    2  A    between atoms: C_2  and  C_3
REMARK    3  A    between atoms: C_3  and  C_4
REMARK    4  A    between atoms: C_5  and  C_6
REMARK    5  A    between atoms: C_5  and  C_9
REMARK    6  A    between atoms: C_6  and  C_7
REMARK    7  A    between atoms: C_7  and  C_8
REMARK    8  A    between atoms: C_9  and  N_10
REMARK    9  A    between atoms: C_9  and  C_19
REMARK   10  A    between atoms: C_11  and  C_13
REMARK   11  A    between atoms: C_22  and  C_23
REMARK   12  A    between atoms: C_23  and  O_25
REMARK   13  A    between atoms: O_25  and  C_26
REMARK                            x       y       z     vdW  Elec       q    Type
REMARK                         _______ _______ _______ _____ _____    ______ ____
ROOT
ATOM      1  C   UNL     1       2.953   6.177  19.247  0.00  0.00    +0.000 C 
ENDROOT
BRANCH   1   2
ATOM      2  C   UNL     1       2.235   7.521  19.158  0.00  0.00    +0.000 A 
ATOM      3  C   UNL     1       2.195   8.223  17.943  0.00  0.00    +0.000 A 
ATOM      4  C   UNL     1       1.689   9.528  17.887  0.00  0.00    +0.000 A 
ATOM      5  C   UNL     1       1.236  10.158  19.051  0.00  0.00    +0.000 A 
ATOM      6  C   UNL     1       1.182   9.432  20.242  0.00  0.00    +0.000 A 
ATOM      7  C   UNL     1       1.622   8.108  20.276  0.00  0.00    +0.000 A 
BRANCH   5   8
ATOM      8  C   UNL     1       0.835  11.587  18.985  0.00  0.00    +0.000 C 
ATOM      9  O   UNL     1       1.360  12.477  19.629  0.00  0.00    +0.000 OA
BRANCH   8  10
ATOM     10  O   UNL     1      -0.220  11.735  18.136  0.00  0.00    +0.000 OA
ATOM     11  C   UNL     1      -1.295  12.520  18.658  0.00  0.00    +0.000 C 
ENDBRANCH   8  10
ENDBRANCH   5   8
ENDBRANCH   1   2
BRANCH   1  12
ATOM     12  N   UNL     1       3.728   5.922  18.051  0.00  0.00    +0.000 N 
ATOM     13  C   UNL     1       4.935   5.251  18.092  0.00  0.00    +0.000 C 
ATOM     14  O   UNL     1       5.438   4.793  19.108  0.00  0.00    +0.000 OA
ATOM     15  H   UNL     1       3.302   6.133  17.168  0.00  0.00    +0.000 HD
BRANCH  13  16
ATOM     16  C   UNL     1       5.593   5.053  16.767  0.00  0.00    +0.000 A 
ATOM     17  C   UNL     1       4.904   4.476  15.692  0.00  0.00    +0.000 A 
ATOM     18  C   UNL     1       5.563   4.235  14.486  0.00  0.00    +0.000 A 
ATOM     19  C   UNL     1       6.904   4.584  14.342  0.00  0.00    +0.000 A 
ATOM     20  C   UNL     1       7.584   5.200  15.392  0.00  0.00    +0.000 A 
ATOM     21  C   UNL     1       6.929   5.443  16.605  0.00  0.00    +0.000 A 
ENDBRANCH  13  16
ENDBRANCH   1  12
BRANCH   1  23
ATOM     22  C   UNL     1       1.732   4.131  18.454  0.00  0.00    +0.000 C 
ATOM     23  C   UNL     1       2.067   4.931  19.498  0.00  0.00    +0.000 C 
BRANCH  22  24
ATOM     24  C   UNL     1       0.909   2.869  18.500  0.00  0.00    +0.000 C 
BRANCH  24  26
ATOM     25  C   UNL     1       3.163   1.871  17.988  0.00  0.00    +0.000 C 
ATOM     26  C   UNL     1       1.774   1.608  18.555  0.00  0.00    +0.000 C 
ENDBRANCH  24  26
ENDBRANCH  22  24
BRANCH  23  27
ATOM     27  C   UNL     1       1.519   4.634  20.888  0.00  0.00    +0.000 C 
BRANCH  27  28
ATOM     28  C   UNL     1       2.353   3.631  21.696  0.00  0.00    +0.000 C 
ATOM     29  C   UNL     1       1.565   2.361  21.986  0.00  0.00    +0.000 C 
ENDBRANCH  27  28
ENDBRANCH  23  27
ENDBRANCH   1  23
TORSDOF 10
ENDMDL
MODEL 5
REMARK VINA RESULT:      -7.5      0.723      1.906
REMARK  Name = 
REMARK  13 active torsions:
REMARK  status: ('A' for Active; 'I' for Inactive)
REMARK    1  A    between atoms: C_1  and  C_2
REMARK    2  A    between atoms: C_2  and  C_3
REMARK    3  A    between atoms: C_3  and  C_4
REMARK    4  A    between atoms: C_5  and  C_6
REMARK    5  A    between atoms: C_5  and  C_9
REMARK    6  A    between atoms: C_6  and  C_7
REMARK    7  A    between atoms: C_7  and  C_8
REMARK    8  A    between atoms: C_9  and  N_10
REMARK    9  A    between atoms: C_9  and  C_19
REMARK   10  A    between atoms: C_11  and  C_13
REMARK   11  A    between atoms: C_22  and  C_23
REMARK   12  A    between atoms: C_23  and  O_25
REMARK   13  A    between atoms: O_25  and  C_26
REMARK                            x       y       z     vdW  Elec       q    Type
REMARK                         _______ _______ _______ _____ _____    ______ ____
ROOT
ATOM      1  C   UNL     1       3.082   6.068  18.988  0.00  0.00    +0.000 C 
ENDROOT
BRANCH   1   2
ATOM      2  C   UNL     1       2.466   7.464  18.957  0.00  0.00    +0.000 A 
ATOM      3  C   UNL     1       1.813   7.975  20.090  0.00  0.00    +0.000 A 
ATOM      4  C   UNL     1       1.100   9.179  20.024  0.00  0.00    +0.000 A 
ATOM      5  C   UNL     1       1.011   9.878  18.815  0.00  0.00    +0.000 A 
ATOM      6  C   UNL     1       1.737   9.428  17.712  0.00  0.00    +0.000 A 
ATOM      7  C   UNL     1       2.503   8.265  17.805  0.00  0.00    +0.000 A 
BRANCH   5   8
ATOM      8  C   UNL     1       0.135  11.076  18.741  0.00  0.00    +0.000 C 
ATOM      9  O   UNL     1      -0.956  11.096  18.203  0.00  0.00    +0.000 OA
BRANCH   8  10
ATOM     10  O   UNL     1       0.753  12.141  19.326  0.00  0.00    +0.000 OA
ATOM     11  C   UNL     1       0.693  13.351  18.566  0.00  0.00    +0.000 C 
ENDBRANCH   8  10
ENDBRANCH   5   8
ENDBRANCH   1   2
BRANCH   1  12
ATOM     12  N   UNL     1       3.845   5.810  17.784  0.00  0.00    +0.000 N 
ATOM     13  C   UNL     1       5.090   5.212  17.822  0.00  0.00    +0.000 C 
ATOM     14  O   UNL     1       5.640   4.824  18.843  0.00  0.00    +0.000 OA
ATOM     15  H   UNL     1       3.389   5.961  16.904  0.00  0.00    +0.000 HD
BRANCH  13  16
ATOM     16  C   UNL     1       5.729   4.999  16.491  0.00  0.00    +0.000 A 
ATOM     17  C   UNL     1       7.035   5.435  16.233  0.00  0.00    +0.000 A 
ATOM     18  C   UNL     1       7.584   5.290  14.958  0.00  0.00    +0.000 A 
ATOM     19  C   UNL     1       6.839   4.694  13.942  0.00  0.00    +0.000 A 
ATOM     20  C   UNL     1       5.555   4.218  14.203  0.00  0.00    +0.000 A 
ATOM     21  C   UNL     1       4.998   4.361  15.478  0.00  0.00    +0.000 A 
ENDBRANCH  13  16
ENDBRANCH   1  12
BRANCH   1  23
ATOM     22  C   UNL     1       1.759   4.501  20.435  0.00  0.00    +0.000 C 
ATOM     23  C   UNL     1       2.105   4.882  19.179  0.00  0.00    +0.000 C 
BRANCH  22  24
ATOM     24  C   UNL     1       0.808   3.397  20.822  0.00  0.00    +0.000 C 
BRANCH  24  26
ATOM     25  C   UNL     1       2.949   2.319  21.589  0.00  0.00    +0.000 C 
ATOM     26  C   UNL     1       1.440   2.391  21.785  0.00  0.00    +0.000 C 
ENDBRANCH  24  26
ENDBRANCH  22  24
BRANCH  23  27
ATOM     27  C   UNL     1       1.584   4.103  17.978  0.00  0.00    +0.000 C 
BRANCH  27  28
ATOM     28  C   UNL     1       1.783   2.584  18.075  0.00  0.00    +0.000 C 
ATOM     29  C   UNL     1       3.239   2.200  17.843  0.00  0.00    +0.000 C 
ENDBRANCH  27  28
ENDBRANCH  23  27
ENDBRANCH   1  23
TORSDOF 10
ENDMDL
MODEL 6
REMARK VINA RESULT:      -7.4      1.454      2.797
REMARK  Name = 
REMARK  13 active torsions:
REMARK  status: ('A' for Active; 'I' for Inactive)
REMARK    1  A    between atoms: C_1  and  C_2
REMARK    2  A    between atoms: C_2  and  C_3
REMARK    3  A    between atoms: C_3  and  C_4
REMARK    4  A    between atoms: C_5  and  C_6
REMARK    5  A    between atoms: C_5  and  C_9
REMARK    6  A    between atoms: C_6  and  C_7
REMARK    7  A    between atoms: C_7  and  C_8
REMARK    8  A    between atoms: C_9  and  N_10
REMARK    9  A    between atoms: C_9  and  C_19
REMARK   10  A    between atoms: C_11  and  C_13
REMARK   11  A    between atoms: C_22  and  C_23
REMARK   12  A    between atoms: C_23  and  O_25
REMARK   13  A    between atoms: O_25  and  C_26
REMARK                            x       y       z     vdW  Elec       q    Type
REMARK                         _______ _______ _______ _____ _____    ______ ____
ROOT
ATOM      1  C   UNL     1       4.522   5.214  18.131  0.00  0.00    +0.000 C 
ENDROOT
BRANCH   1   2
ATOM      2  C   UNL     1       3.685   6.475  18.330  0.00  0.00    +0.000 A 
ATOM      3  C   UNL     1       2.892   6.624  19.479  0.00  0.00    +0.000 A 
ATOM      4  C   UNL     1       1.993   7.692  19.595  0.00  0.00    +0.000 A 
ATOM      5  C   UNL     1       1.859   8.615  18.552  0.00  0.00    +0.000 A 
ATOM      6  C   UNL     1       2.713   8.528  17.451  0.00  0.00    +0.000 A 
ATOM      7  C   UNL     1       3.655   7.502  17.374  0.00  0.00    +0.000 A 
BRANCH   5   8
ATOM      8  C   UNL     1       0.802   9.655  18.644  0.00  0.00    +0.000 C 
ATOM      9  O   UNL     1      -0.121   9.766  17.859  0.00  0.00    +0.000 OA
BRANCH   8  10
ATOM     10  O   UNL     1       1.048  10.474  19.705  0.00  0.00    +0.000 OA
ATOM     11  C   UNL     1       1.268  11.844  19.357  0.00  0.00    +0.000 C 
ENDBRANCH   8  10
ENDBRANCH   5   8
ENDBRANCH   1   2
BRANCH   1  12
ATOM     12  N   UNL     1       4.885   5.045  16.739  0.00  0.00    +0.000 N 
ATOM     13  C   UNL     1       6.168   4.703  16.355  0.00  0.00    +0.000 C 
ATOM     14  O   UNL     1       7.087   4.484  17.132  0.00  0.00    +0.000 OA
ATOM     15  H   UNL     1       4.147   5.058  16.062  0.00  0.00    +0.000 HD
BRANCH  13  16
ATOM     16  C   UNL     1       6.366   4.548  14.885  0.00  0.00    +0.000 A 
ATOM     17  C   UNL     1       5.523   3.732  14.119  0.00  0.00    +0.000 A 
ATOM     18  C   UNL     1       5.773   3.546  12.759  0.00  0.00    +0.000 A 
ATOM     19  C   UNL     1       6.854   4.185  12.155  0.00  0.00    +0.000 A 
ATOM     20  C   UNL     1       7.672   5.033  12.901  0.00  0.00    +0.000 A 
ATOM     21  C   UNL     1       7.427   5.223  14.265  0.00  0.00    +0.000 A 
ENDBRANCH  13  16
ENDBRANCH   1  12
BRANCH   1  23
ATOM     22  C   UNL     1       4.282   3.353  19.798  0.00  0.00    +0.000 C 
ATOM     23  C   UNL     1       3.895   3.881  18.610  0.00  0.00    +0.000 C 
BRANCH  22  24
ATOM     24  C   UNL     1       3.770   2.089  20.443  0.00  0.00    +0.000 C 
BRANCH  24  26
ATOM     25  C   UNL     1       2.403   3.854  21.606  0.00  0.00    +0.000 C 
ATOM     26  C   UNL     1       2.685   2.362  21.486  0.00  0.00    +0.000 C 
ENDBRANCH  24  26
ENDBRANCH  22  24
BRANCH  23  27
ATOM     27  C   UNL     1       2.901   3.130  17.733  0.00  0.00    +0.000 C 
BRANCH  27  28
ATOM     28  C   UNL     1       1.446   3.593  17.888  0.00  0.00    +0.000 C 
ATOM     29  C   UNL     1       0.613   2.560  18.636  0.00  0.00    +0.000 C 
ENDBRANCH  27  28
ENDBRANCH  23  27
ENDBRANCH   1  23
TORSDOF 10
ENDMDL
MODEL 7
REMARK VINA RESULT:      -7.4      0.735      2.005
REMARK  Name = 
REMARK  13 active torsions:
REMARK  status: ('A' for Active; 'I' for Inactive)
REMARK    1  A    between atoms: C_1  and  C_2
REMARK    2  A    between atoms: C_2  and  C_3
REMARK    3  A    between atoms: C_3  and  C_4
REMARK    4  A    between atoms: C_5  and  C_6
REMARK    5  A    between atoms: C_5  and  C_9
REMARK    6  A    between atoms: C_6  and  C_7
REMARK    7  A    between atoms: C_7  and  C_8
REMARK    8  A    between atoms: C_9  and  N_10
REMARK    9  A    between atoms: C_9  and  C_19
REMARK   10  A    between atoms: C_11  and  C_13
REMARK   11  A    between atoms: C_22  and  C_23
REMARK   12  A    between atoms: C_23  and  O_25
REMARK   13  A    between atoms: O_25  and  C_26
REMARK                            x       y       z     vdW  Elec       q    Type
REMARK                         _______ _______ _______ _____ _____    ______ ____
ROOT
ATOM      1  C   UNL     1       2.977   6.136  18.989  0.00  0.00    +0.000 C 
ENDROOT
BRANCH   1   2
ATOM      2  C   UNL     1       2.303   7.504  18.905  0.00  0.00    +0.000 A 
ATOM      3  C   UNL     1       2.433   8.286  17.746  0.00  0.00    +0.000 A 
ATOM      4  C   UNL     1       1.965   9.606  17.718  0.00  0.00    +0.000 A 
ATOM      5  C   UNL     1       1.380  10.170  18.857  0.00  0.00    +0.000 A 
ATOM      6  C   UNL     1       1.160   9.368  19.978  0.00  0.00    +0.000 A 
ATOM      7  C   UNL     1       1.565   8.033  19.974  0.00  0.00    +0.000 A 
BRANCH   5   8
ATOM      8  C   UNL     1       1.019  11.611  18.842  0.00  0.00    +0.000 C 
ATOM      9  O   UNL     1       1.773  12.503  18.499  0.00  0.00    +0.000 OA
BRANCH   8  10
ATOM     10  O   UNL     1      -0.253  11.777  19.301  0.00  0.00    +0.000 OA
ATOM     11  C   UNL     1      -1.224  12.019  18.280  0.00  0.00    +0.000 C 
ENDBRANCH   8  10
ENDBRANCH   5   8
ENDBRANCH   1   2
BRANCH   1  12
ATOM     12  N   UNL     1       3.772   5.875  17.807  0.00  0.00    +0.000 N 
ATOM     13  C   UNL     1       5.005   5.256  17.879  0.00  0.00    +0.000 C 
ATOM     14  O   UNL     1       5.517   4.851  18.913  0.00  0.00    +0.000 OA
ATOM     15  H   UNL     1       3.346   6.041  16.914  0.00  0.00    +0.000 HD
BRANCH  13  16
ATOM     16  C   UNL     1       5.682   5.043  16.566  0.00  0.00    +0.000 A 
ATOM     17  C   UNL     1       7.001   5.462  16.351  0.00  0.00    +0.000 A 
ATOM     18  C   UNL     1       7.587   5.317  15.093  0.00  0.00    +0.000 A 
ATOM     19  C   UNL     1       6.865   4.740  14.050  0.00  0.00    +0.000 A 
ATOM     20  C   UNL     1       5.567   4.280  14.268  0.00  0.00    +0.000 A 
ATOM     21  C   UNL     1       4.974   4.423  15.527  0.00  0.00    +0.000 A 
ENDBRANCH  13  16
ENDBRANCH   1  12
BRANCH   1  23
ATOM     22  C   UNL     1       1.736   4.526  20.461  0.00  0.00    +0.000 C 
ATOM     23  C   UNL     1       2.047   4.916  19.199  0.00  0.00    +0.000 C 
BRANCH  22  24
ATOM     24  C   UNL     1       0.832   3.389  20.867  0.00  0.00    +0.000 C 
BRANCH  24  26
ATOM     25  C   UNL     1       3.010   2.334  21.561  0.00  0.00    +0.000 C 
ATOM     26  C   UNL     1       1.513   2.415  21.830  0.00  0.00    +0.000 C 
ENDBRANCH  24  26
ENDBRANCH  22  24
BRANCH  23  27
ATOM     27  C   UNL     1       1.534   4.115  18.009  0.00  0.00    +0.000 C 
BRANCH  27  28
ATOM     28  C   UNL     1       1.749   2.600  18.126  0.00  0.00    +0.000 C 
ATOM     29  C   UNL     1       3.196   2.221  17.839  0.00  0.00    +0.000 C 
ENDBRANCH  27  28
ENDBRANCH  23  27
ENDBRANCH   1  23
TORSDOF 10
ENDMDL
MODEL 8
REMARK VINA RESULT:      -7.3      0.873      1.119
REMARK  Name = 
REMARK  13 active torsions:
REMARK  status: ('A' for Active; 'I' for Inactive)
REMARK    1  A    between atoms: C_1  and  C_2
REMARK    2  A    between atoms: C_2  and  C_3
REMARK    3  A    between atoms: C_3  and  C_4
REMARK    4  A    between atoms: C_5  and  C_6
REMARK    5  A    between atoms: C_5  and  C_9
REMARK    6  A    between atoms: C_6  and  C_7
REMARK    7  A    between atoms: C_7  and  C_8
REMARK    8  A    between atoms: C_9  and  N_10
REMARK    9  A    between atoms: C_9  and  C_19
REMARK   10  A    between atoms: C_11  and  C_13
REMARK   11  A    between atoms: C_22  and  C_23
REMARK   12  A    between atoms: C_23  and  O_25
REMARK   13  A    between atoms: O_25  and  C_26
REMARK                            x       y       z     vdW  Elec       q    Type
REMARK                         _______ _______ _______ _____ _____    ______ ____
ROOT
ATOM      1  C   UNL     1       2.995   6.100  19.736  0.00  0.00    +0.000 C 
ENDROOT
BRANCH   1   2
ATOM      2  C   UNL     1       2.249   7.426  19.608  0.00  0.00    +0.000 A 
ATOM      3  C   UNL     1       1.540   7.948  20.702  0.00  0.00    +0.000 A 
ATOM      4  C   UNL     1       0.716   9.071  20.551  0.00  0.00    +0.000 A 
ATOM      5  C   UNL     1       0.573   9.675  19.297  0.00  0.00    +0.000 A 
ATOM      6  C   UNL     1       1.348   9.221  18.229  0.00  0.00    +0.000 A 
ATOM      7  C   UNL     1       2.220   8.146  18.404  0.00  0.00    +0.000 A 
BRANCH   5   8
ATOM      8  C   UNL     1      -0.412  10.776  19.138  0.00  0.00    +0.000 C 
ATOM      9  O   UNL     1      -1.603  10.610  18.948  0.00  0.00    +0.000 OA
BRANCH   8  10
ATOM     10  O   UNL     1       0.223  11.980  19.200  0.00  0.00    +0.000 OA
ATOM     11  C   UNL     1      -0.371  13.004  18.399  0.00  0.00    +0.000 C 
ENDBRANCH   8  10
ENDBRANCH   5   8
ENDBRANCH   1   2
BRANCH   1  12
ATOM     12  N   UNL     1       3.758   5.816  18.539  0.00  0.00    +0.000 N 
ATOM     13  C   UNL     1       5.101   5.494  18.588  0.00  0.00    +0.000 C 
ATOM     14  O   UNL     1       5.750   5.390  19.619  0.00  0.00    +0.000 OA
ATOM     15  H   UNL     1       3.254   5.731  17.676  0.00  0.00    +0.000 HD
BRANCH  13  16
ATOM     16  C   UNL     1       5.730   5.208  17.265  0.00  0.00    +0.000 A 
ATOM     17  C   UNL     1       7.039   4.719  17.174  0.00  0.00    +0.000 A 
ATOM     18  C   UNL     1       7.630   4.528  15.924  0.00  0.00    +0.000 A 
ATOM     19  C   UNL     1       6.913   4.808  14.763  0.00  0.00    +0.000 A 
ATOM     20  C   UNL     1       5.594   5.253  14.846  0.00  0.00    +0.000 A 
ATOM     21  C   UNL     1       4.996   5.447  16.096  0.00  0.00    +0.000 A 
ENDBRANCH  13  16
ENDBRANCH   1  12
BRANCH   1  23
ATOM     22  C   UNL     1       1.364   4.313  19.069  0.00  0.00    +0.000 C 
ATOM     23  C   UNL     1       2.137   4.848  20.047  0.00  0.00    +0.000 C 
BRANCH  22  24
ATOM     24  C   UNL     1       0.488   3.089  19.168  0.00  0.00    +0.000 C 
BRANCH  24  26
ATOM     25  C   UNL     1       2.341   2.269  17.675  0.00  0.00    +0.000 C 
ATOM     26  C   UNL     1       1.087   1.880  18.446  0.00  0.00    +0.000 C 
ENDBRANCH  24  26
ENDBRANCH  22  24
BRANCH  23  27
ATOM     27  C   UNL     1       2.107   4.256  21.450  0.00  0.00    +0.000 C 
BRANCH  27  28
ATOM     28  C   UNL     1       2.635   2.817  21.540  0.00  0.00    +0.000 C 
ATOM     29  C   UNL     1       3.931   2.652  20.757  0.00  0.00    +0.000 C 
ENDBRANCH  27  28
ENDBRANCH  23  27
ENDBRANCH   1  23
TORSDOF 10
ENDMDL
MODEL 9
REMARK VINA RESULT:      -7.2      1.404      2.568
REMARK  Name = 
REMARK  13 active torsions:
REMARK  status: ('A' for Active; 'I' for Inactive)
REMARK    1  A    between atoms: C_1  and  C_2
REMARK    2  A    between atoms: C_2  and  C_3
REMARK    3  A    between atoms: C_3  and  C_4
REMARK    4  A    between atoms: C_5  and  C_6
REMARK    5  A    between atoms: C_5  and  C_9
REMARK    6  A    between atoms: C_6  and  C_7
REMARK    7  A    between atoms: C_7  and  C_8
REMARK    8  A    between atoms: C_9  and  N_10
REMARK    9  A    between atoms: C_9  and  C_19
REMARK   10  A    between atoms: C_11  and  C_13
REMARK   11  A    between atoms: C_22  and  C_23
REMARK   12  A    between atoms: C_23  and  O_25
REMARK   13  A    between atoms: O_25  and  C_26
REMARK                            x       y       z     vdW  Elec       q    Type
REMARK                         _______ _______ _______ _____ _____    ______ ____
ROOT
ATOM      1  C   UNL     1       4.333   5.351  18.208  0.00  0.00    +0.000 C 
ENDROOT
BRANCH   1   2
ATOM      2  C   UNL     1       3.367   6.528  18.303  0.00  0.00    +0.000 A 
ATOM      3  C   UNL     1       3.309   7.481  17.274  0.00  0.00    +0.000 A 
ATOM      4  C   UNL     1       2.554   8.652  17.424  0.00  0.00    +0.000 A 
ATOM      5  C   UNL     1       1.862   8.895  18.615  0.00  0.00    +0.000 A 
ATOM      6  C   UNL     1       1.835   7.908  19.602  0.00  0.00    +0.000 A 
ATOM      7  C   UNL     1       2.533   6.714  19.417  0.00  0.00    +0.000 A 
BRANCH   5   8
ATOM      8  C   UNL     1       1.183  10.204  18.798  0.00  0.00    +0.000 C 
ATOM      9  O   UNL     1       1.737  11.283  18.697  0.00  0.00    +0.000 OA
BRANCH   8  10
ATOM     10  O   UNL     1      -0.124  10.008  19.129  0.00  0.00    +0.000 OA
ATOM     11  C   UNL     1      -1.038  10.151  18.039  0.00  0.00    +0.000 C 
ENDBRANCH   8  10
ENDBRANCH   5   8
ENDBRANCH   1   2
BRANCH   1  12
ATOM     12  N   UNL     1       4.794   5.165  16.848  0.00  0.00    +0.000 N 
ATOM     13  C   UNL     1       6.073   4.728  16.563  0.00  0.00    +0.000 C 
ATOM     14  O   UNL     1       6.908   4.434  17.407  0.00  0.00    +0.000 OA
ATOM     15  H   UNL     1       4.115   5.239  16.113  0.00  0.00    +0.000 HD
BRANCH  13  16
ATOM     16  C   UNL     1       6.377   4.569  15.110  0.00  0.00    +0.000 A 
ATOM     17  C   UNL     1       7.457   5.234  14.516  0.00  0.00    +0.000 A 
ATOM     18  C   UNL     1       7.677   5.127  13.143  0.00  0.00    +0.000 A 
ATOM     19  C   UNL     1       6.831   4.343  12.360  0.00  0.00    +0.000 A 
ATOM     20  C   UNL     1       5.780   3.643  12.951  0.00  0.00    +0.000 A 
ATOM     21  C   UNL     1       5.554   3.747  14.328  0.00  0.00    +0.000 A 
ENDBRANCH  13  16
ENDBRANCH   1  12
BRANCH   1  23
ATOM     22  C   UNL     1       4.232   3.510  19.912  0.00  0.00    +0.000 C 
ATOM     23  C   UNL     1       3.812   3.981  18.711  0.00  0.00    +0.000 C 
BRANCH  22  24
ATOM     24  C   UNL     1       3.819   2.223  20.580  0.00  0.00    +0.000 C 
BRANCH  24  26
ATOM     25  C   UNL     1       2.221   3.874  21.607  0.00  0.00    +0.000 C 
ATOM     26  C   UNL     1       2.666   2.419  21.566  0.00  0.00    +0.000 C 
ENDBRANCH  24  26
ENDBRANCH  22  24
BRANCH  23  27
ATOM     27  C   UNL     1       2.888   3.136  17.844  0.00  0.00    +0.000 C 
BRANCH  27  28
ATOM     28  C   UNL     1       1.400   3.490  17.974  0.00  0.00    +0.000 C 
ATOM     29  C   UNL     1       0.629   2.391  18.692  0.00  0.00    +0.000 C 
ENDBRANCH  27  28
ENDBRANCH  23  27
ENDBRANCH   1  23
TORSDOF 10
ENDMDL
