MODEL 1
REMARK VINA RESULT:      -7.9      0.000      0.000
REMARK  Name = 
REMARK  8 active torsions:
REMARK  status: ('A' for Active; 'I' for Inactive)
REMARK    1  A    between atoms: C_2  and  C_3
REMARK    2  A    between atoms: C_3  and  N_4
REMARK    3  A    between atoms: C_8  and  C_9
REMARK    4  A    between atoms: C_9  and  N_10
REMARK    5  A    between atoms: N_15  and  C_16
REMARK    6  A    between atoms: C_16  and  C_17
REMARK    7  A    between atoms: C_17  and  O_18
REMARK    8  A    between atoms: O_18  and  C_19
REMARK                            x       y       z     vdW  Elec       q    Type
REMARK                         _______ _______ _______ _____ _____    ______ ____
ROOT
ATOM      1  O   UNL     1       5.961   5.094  19.863  0.00  0.00    +0.000 OA
ATOM      2  C   UNL     1       5.635   4.188  19.102  0.00  0.00    +0.000 C 
ATOM      3  N   UNL     1       6.301   3.917  17.931  0.00  0.00    +0.000 N 
ATOM      4  H   UNL     1       5.905   3.230  17.302  0.00  0.00    +0.000 HD
ENDROOT
BRANCH   2   5
ATOM      5  C   UNL     1       4.466   3.241  19.419  0.00  0.00    +0.000 C 
BRANCH   5   6
ATOM      6  N   UNL     1       3.248   3.992  19.810  0.00  0.00    +0.000 NA
ATOM      7  C   UNL     1       2.054   3.140  19.634  0.00  0.00    +0.000 C 
ATOM      8  C   UNL     1       1.648   3.323  18.186  0.00  0.00    +0.000 C 
ATOM      9  C   UNL     1       1.866   4.805  17.975  0.00  0.00    +0.000 C 
ATOM     10  C   UNL     1       3.013   5.177  18.928  0.00  0.00    +0.000 C 
BRANCH  10  11
ATOM     11  C   UNL     1       2.696   6.414  19.788  0.00  0.00    +0.000 C 
BRANCH  11  12
ATOM     12  N   UNL     1       2.376   7.587  19.004  0.00  0.00    +0.000 N 
ATOM     13  C   UNL     1       2.828   7.919  17.765  0.00  0.00    +0.000 A 
ATOM     14  N   UNL     1       2.282   9.052  17.389  0.00  0.00    +0.000 NA
ATOM     15  C   UNL     1       1.500   9.386  18.458  0.00  0.00    +0.000 A 
ATOM     16  N   UNL     1       1.525   8.520  19.473  0.00  0.00    +0.000 NA
ENDBRANCH  11  12
ENDBRANCH  10  11
ENDBRANCH   5   6
ENDBRANCH   2   5
BRANCH   3  17
ATOM     17  C   UNL     1       7.371   4.783  17.447  0.00  0.00    +0.000 C 
BRANCH  17  18
ATOM     18  C   UNL     1       6.849   5.809  16.448  0.00  0.00    +0.000 C 
BRANCH  18  19
ATOM     19  O   UNL     1       7.591   5.731  15.229  0.00  0.00    +0.000 OA
BRANCH  19  20
ATOM     20  C   UNL     1       7.032   4.974  14.235  0.00  0.00    +0.000 A 
ATOM     21  C   UNL     1       7.651   4.634  13.026  0.00  0.00    +0.000 A 
ATOM     22  C   UNL     1       6.981   3.845  12.089  0.00  0.00    +0.000 A 
ATOM     23  C   UNL     1       5.694   3.398  12.361  0.00  0.00    +0.000 A 
ATOM     24  F   UNL     1       5.056   2.638  11.461  0.00  0.00    +0.000 F 
ATOM     25  C   UNL     1       5.062   3.731  13.552  0.00  0.00    +0.000 A 
ATOM     26  C   UNL     1       5.733   4.520  14.489  0.00  0.00    +0.000 A 
ENDBRANCH  19  20
ENDBRANCH  18  19
ENDBRANCH  17  18
ENDBRANCH   3  17
TORSDOF 8
ENDMDL
MODEL 2
REMARK VINA RESULT:      -7.5      0.982      1.569
REMARK  Name = 
REMARK  8 active torsions:
REMARK  status: ('A' for Active; 'I' for Inactive)
REMARK    1  A    between atoms: C_2  and  C_3
REMARK    2  A    between atoms: C_3  and  N_4
REMARK    3  A    between atoms: C_8  and  C_9
REMARK    4  A    between atoms: C_9  and  N_10
REMARK    5  A    between atoms: N_15  and  C_16
REMARK    6  A    between atoms: C_16  and  C_17
REMARK    7  A    between atoms: C_17  and  O_18
REMARK    8  A    between atoms: O_18  and  C_19
REMARK                            x       y       z     vdW  Elec       q    Type
REMARK                         _______ _______ _______ _____ _____    ______ ____
ROOT
ATOM      1  O   UNL     1       4.992   5.824  18.453  0.00  0.00    +0.000 OA
ATOM      2  C   UNL     1       5.119   4.604  18.408  0.00  0.00    +0.000 C 
ATOM      3  N   UNL     1       6.282   3.986  18.017  0.00  0.00    +0.000 N 
ATOM      4  H   UNL     1       6.273   2.981  17.895  0.00  0.00    +0.000 HD
ENDROOT
BRANCH   2   5
ATOM      5  C   UNL     1       3.987   3.653  18.829  0.00  0.00    +0.000 C 
BRANCH   5   6
ATOM      6  N   UNL     1       3.301   4.132  20.055  0.00  0.00    +0.000 NA
ATOM      7  C   UNL     1       2.924   2.981  20.902  0.00  0.00    +0.000 C 
ATOM      8  C   UNL     1       1.576   2.530  20.378  0.00  0.00    +0.000 C 
ATOM      9  C   UNL     1       0.882   3.846  20.100  0.00  0.00    +0.000 C 
ATOM     10  C   UNL     1       2.013   4.823  19.743  0.00  0.00    +0.000 C 
BRANCH  10  11
ATOM     11  C   UNL     1       1.926   6.147  20.525  0.00  0.00    +0.000 C 
BRANCH  11  12
ATOM     12  N   UNL     1       1.876   7.312  19.669  0.00  0.00    +0.000 N 
ATOM     13  C   UNL     1       1.488   8.575  19.990  0.00  0.00    +0.000 A 
ATOM     14  N   UNL     1       1.610   9.352  18.938  0.00  0.00    +0.000 NA
ATOM     15  C   UNL     1       2.072   8.497  17.978  0.00  0.00    +0.000 A 
ATOM     16  N   UNL     1       2.250   7.237  18.377  0.00  0.00    +0.000 NA
ENDBRANCH  11  12
ENDBRANCH  10  11
ENDBRANCH   5   6
ENDBRANCH   2   5
BRANCH   3  17
ATOM     17  C   UNL     1       7.412   4.750  17.499  0.00  0.00    +0.000 C 
BRANCH  17  18
ATOM     18  C   UNL     1       6.967   5.770  16.458  0.00  0.00    +0.000 C 
BRANCH  18  19
ATOM     19  O   UNL     1       7.632   5.530  15.217  0.00  0.00    +0.000 OA
BRANCH  19  20
ATOM     20  C   UNL     1       6.922   4.822  14.284  0.00  0.00    +0.000 A 
ATOM     21  C   UNL     1       5.648   4.276  14.475  0.00  0.00    +0.000 A 
ATOM     22  C   UNL     1       5.018   3.580  13.441  0.00  0.00    +0.000 A 
ATOM     23  C   UNL     1       5.663   3.428  12.221  0.00  0.00    +0.000 A 
ATOM     24  F   UNL     1       5.054   2.762  11.231  0.00  0.00    +0.000 F 
ATOM     25  C   UNL     1       6.931   3.957  12.016  0.00  0.00    +0.000 A 
ATOM     26  C   UNL     1       7.561   4.655  13.050  0.00  0.00    +0.000 A 
ENDBRANCH  19  20
ENDBRANCH  18  19
ENDBRANCH  17  18
ENDBRANCH   3  17
TORSDOF 8
ENDMDL
MODEL 3
REMARK VINA RESULT:      -7.2      5.241      6.875
REMARK  Name = 
REMARK  8 active torsions:
REMARK  status: ('A' for Active; 'I' for Inactive)
REMARK    1  A    between atoms: C_2  and  C_3
REMARK    2  A    between atoms: C_3  and  N_4
REMARK    3  A    between atoms: C_8  and  C_9
REMARK    4  A    between atoms: C_9  and  N_10
REMARK    5  A    between atoms: N_15  and  C_16
REMARK    6  A    between atoms: C_16  and  C_17
REMARK    7  A    between atoms: C_17  and  O_18
REMARK    8  A    between atoms: O_18  and  C_19
REMARK                            x       y       z     vdW  Elec       q    Type
REMARK                         _______ _______ _______ _____ _____    ______ ____
ROOT
ATOM      1  O   UNL     1       7.413   6.131  16.076  0.00  0.00    +0.000 OA
ATOM      2  C   UNL     1       6.519   6.561  16.798  0.00  0.00    +0.000 C 
ATOM      3  N   UNL     1       6.736   7.494  17.784  0.00  0.00    +0.000 N 
ATOM      4  H   UNL     1       5.973   7.713  18.412  0.00  0.00    +0.000 HD
ENDROOT
BRANCH   2   5
ATOM      5  C   UNL     1       5.055   6.119  16.633  0.00  0.00    +0.000 C 
BRANCH   5   6
ATOM      6  N   UNL     1       4.541   5.469  17.864  0.00  0.00    +0.000 NA
ATOM      7  C   UNL     1       5.083   4.098  17.972  0.00  0.00    +0.000 C 
ATOM      8  C   UNL     1       4.133   3.233  17.170  0.00  0.00    +0.000 C 
ATOM      9  C   UNL     1       2.784   3.813  17.535  0.00  0.00    +0.000 C 
ATOM     10  C   UNL     1       3.056   5.297  17.829  0.00  0.00    +0.000 C 
BRANCH  10  11
ATOM     11  C   UNL     1       2.444   5.764  19.162  0.00  0.00    +0.000 C 
BRANCH  11  12
ATOM     12  N   UNL     1       2.092   4.670  20.042  0.00  0.00    +0.000 N 
ATOM     13  C   UNL     1       0.929   3.968  20.087  0.00  0.00    +0.000 A 
ATOM     14  N   UNL     1       1.014   3.038  21.010  0.00  0.00    +0.000 NA
ATOM     15  C   UNL     1       2.268   3.226  21.520  0.00  0.00    +0.000 A 
ATOM     16  N   UNL     1       2.967   4.215  20.960  0.00  0.00    +0.000 NA
ENDBRANCH  11  12
ENDBRANCH  10  11
ENDBRANCH   5   6
ENDBRANCH   2   5
BRANCH   3  17
ATOM     17  C   UNL     1       8.082   7.940  18.125  0.00  0.00    +0.000 C 
BRANCH  17  18
ATOM     18  C   UNL     1       8.238   9.444  17.929  0.00  0.00    +0.000 C 
BRANCH  18  19
ATOM     19  O   UNL     1       9.158   9.973  18.886  0.00  0.00    +0.000 OA
BRANCH  19  20
ATOM     20  C   UNL     1       9.837  11.099  18.504  0.00  0.00    +0.000 A 
ATOM     21  C   UNL     1      11.219  11.293  18.619  0.00  0.00    +0.000 A 
ATOM     22  C   UNL     1      11.801  12.486  18.184  0.00  0.00    +0.000 A 
ATOM     23  C   UNL     1      11.002  13.482  17.639  0.00  0.00    +0.000 A 
ATOM     24  F   UNL     1      11.565  14.624  17.220  0.00  0.00    +0.000 F 
ATOM     25  C   UNL     1       9.629  13.310  17.523  0.00  0.00    +0.000 A 
ATOM     26  C   UNL     1       9.047  12.116  17.957  0.00  0.00    +0.000 A 
ENDBRANCH  19  20
ENDBRANCH  18  19
ENDBRANCH  17  18
ENDBRANCH   3  17
TORSDOF 8
ENDMDL
MODEL 4
REMARK VINA RESULT:      -7.2      5.284      6.996
REMARK  Name = 
REMARK  8 active torsions:
REMARK  status: ('A' for Active; 'I' for Inactive)
REMARK    1  A    between atoms: C_2  and  C_3
REMARK    2  A    between atoms: C_3  and  N_4
REMARK    3  A    between atoms: C_8  and  C_9
REMARK    4  A    between atoms: C_9  and  N_10
REMARK    5  A    between atoms: N_15  and  C_16
REMARK    6  A    between atoms: C_16  and  C_17
REMARK    7  A    between atoms: C_17  and  O_18
REMARK    8  A    between atoms: O_18  and  C_19
REMARK                            x       y       z     vdW  Elec       q    Type
REMARK                         _______ _______ _______ _____ _____    ______ ____
ROOT
ATOM      1  O   UNL     1       7.224   5.582  16.227  0.00  0.00    +0.000 OA
ATOM      2  C   UNL     1       6.351   6.233  16.795  0.00  0.00    +0.000 C 
ATOM      3  N   UNL     1       6.622   7.343  17.557  0.00  0.00    +0.000 N 
ATOM      4  H   UNL     1       5.865   7.758  18.086  0.00  0.00    +0.000 HD
ENDROOT
BRANCH   2   5
ATOM      5  C   UNL     1       4.860   5.881  16.666  0.00  0.00    +0.000 C 
BRANCH   5   6
ATOM      6  N   UNL     1       4.329   5.293  17.921  0.00  0.00    +0.000 NA
ATOM      7  C   UNL     1       4.959   3.979  18.166  0.00  0.00    +0.000 C 
ATOM      8  C   UNL     1       4.113   2.986  17.396  0.00  0.00    +0.000 C 
ATOM      9  C   UNL     1       2.710   3.493  17.649  0.00  0.00    +0.000 C 
ATOM     10  C   UNL     1       2.864   5.011  17.832  0.00  0.00    +0.000 C 
BRANCH  10  11
ATOM     11  C   UNL     1       2.152   5.536  19.092  0.00  0.00    +0.000 C 
BRANCH  11  12
ATOM     12  N   UNL     1       1.948   4.516  20.098  0.00  0.00    +0.000 N 
ATOM     13  C   UNL     1       2.728   4.229  21.174  0.00  0.00    +0.000 A 
ATOM     14  N   UNL     1       2.186   3.248  21.859  0.00  0.00    +0.000 NA
ATOM     15  C   UNL     1       1.063   2.955  21.139  0.00  0.00    +0.000 A 
ATOM     16  N   UNL     1       0.874   3.704  20.051  0.00  0.00    +0.000 NA
ENDBRANCH  11  12
ENDBRANCH  10  11
ENDBRANCH   5   6
ENDBRANCH   2   5
BRANCH   3  17
ATOM     17  C   UNL     1       7.993   7.748  17.851  0.00  0.00    +0.000 C 
BRANCH  17  18
ATOM     18  C   UNL     1       8.131   9.266  17.885  0.00  0.00    +0.000 C 
BRANCH  18  19
ATOM     19  O   UNL     1       8.907   9.665  19.016  0.00  0.00    +0.000 OA
BRANCH  19  20
ATOM     20  C   UNL     1       9.544  10.873  18.909  0.00  0.00    +0.000 A 
ATOM     21  C   UNL     1       9.293  11.840  17.929  0.00  0.00    +0.000 A 
ATOM     22  C   UNL     1      10.003  13.043  17.929  0.00  0.00    +0.000 A 
ATOM     23  C   UNL     1      10.961  13.276  18.907  0.00  0.00    +0.000 A 
ATOM     24  F   UNL     1      11.637  14.433  18.905  0.00  0.00    +0.000 F 
ATOM     25  C   UNL     1      11.228  12.325  19.883  0.00  0.00    +0.000 A 
ATOM     26  C   UNL     1      10.517  11.122  19.883  0.00  0.00    +0.000 A 
ENDBRANCH  19  20
ENDBRANCH  18  19
ENDBRANCH  17  18
ENDBRANCH   3  17
TORSDOF 8
ENDMDL
MODEL 5
REMARK VINA RESULT:      -7.1      3.481      6.474
REMARK  Name = 
REMARK  8 active torsions:
REMARK  status: ('A' for Active; 'I' for Inactive)
REMARK    1  A    between atoms: C_2  and  C_3
REMARK    2  A    between atoms: C_3  and  N_4
REMARK    3  A    between atoms: C_8  and  C_9
REMARK    4  A    between atoms: C_9  and  N_10
REMARK    5  A    between atoms: N_15  and  C_16
REMARK    6  A    between atoms: C_16  and  C_17
REMARK    7  A    between atoms: C_17  and  O_18
REMARK    8  A    between atoms: O_18  and  C_19
REMARK                            x       y       z     vdW  Elec       q    Type
REMARK                         _______ _______ _______ _____ _____    ______ ____
ROOT
ATOM      1  O   UNL     1       4.461   2.758  20.231  0.00  0.00    +0.000 OA
ATOM      2  C   UNL     1       4.747   3.405  19.228  0.00  0.00    +0.000 C 
ATOM      3  N   UNL     1       4.270   3.098  17.977  0.00  0.00    +0.000 N 
ATOM      4  H   UNL     1       4.641   3.607  17.184  0.00  0.00    +0.000 HD
ENDROOT
BRANCH   2   5
ATOM      5  C   UNL     1       5.641   4.655  19.294  0.00  0.00    +0.000 C 
BRANCH   5   6
ATOM      6  N   UNL     1       6.151   5.029  17.951  0.00  0.00    +0.000 NA
ATOM      7  C   UNL     1       7.629   5.008  17.952  0.00  0.00    +0.000 C 
ATOM      8  C   UNL     1       8.043   6.380  18.444  0.00  0.00    +0.000 C 
ATOM      9  C   UNL     1       7.050   7.285  17.748  0.00  0.00    +0.000 C 
ATOM     10  C   UNL     1       5.783   6.431  17.583  0.00  0.00    +0.000 C 
BRANCH  10  11
ATOM     11  C   UNL     1       5.223   6.466  16.149  0.00  0.00    +0.000 C 
BRANCH  11  12
ATOM     12  N   UNL     1       5.747   5.412  15.307  0.00  0.00    +0.000 N 
ATOM     13  C   UNL     1       6.899   5.408  14.584  0.00  0.00    +0.000 A 
ATOM     14  N   UNL     1       7.027   4.253  13.973  0.00  0.00    +0.000 NA
ATOM     15  C   UNL     1       5.901   3.579  14.349  0.00  0.00    +0.000 A 
ATOM     16  N   UNL     1       5.085   4.248  15.166  0.00  0.00    +0.000 NA
ENDBRANCH  11  12
ENDBRANCH  10  11
ENDBRANCH   5   6
ENDBRANCH   2   5
BRANCH   3  17
ATOM     17  C   UNL     1       3.488   1.890  17.737  0.00  0.00    +0.000 C 
BRANCH  17  18
ATOM     18  C   UNL     1       2.058   2.041  18.243  0.00  0.00    +0.000 C 
BRANCH  18  19
ATOM     19  O   UNL     1       1.487   3.254  17.749  0.00  0.00    +0.000 OA
BRANCH  19  20
ATOM     20  C   UNL     1       1.627   4.354  18.554  0.00  0.00    +0.000 A 
ATOM     21  C   UNL     1       1.345   4.399  19.924  0.00  0.00    +0.000 A 
ATOM     22  C   UNL     1       1.538   5.581  20.644  0.00  0.00    +0.000 A 
ATOM     23  C   UNL     1       2.010   6.713  19.993  0.00  0.00    +0.000 A 
ATOM     24  F   UNL     1       2.196   7.843  20.688  0.00  0.00    +0.000 F 
ATOM     25  C   UNL     1       2.288   6.688  18.632  0.00  0.00    +0.000 A 
ATOM     26  C   UNL     1       2.096   5.506  17.913  0.00  0.00    +0.000 A 
ENDBRANCH  19  20
ENDBRANCH  18  19
ENDBRANCH  17  18
ENDBRANCH   3  17
TORSDOF 8
ENDMDL
MODEL 6
REMARK VINA RESULT:      -7.0      4.335      7.816
REMARK  Name = 
REMARK  8 active torsions:
REMARK  status: ('A' for Active; 'I' for Inactive)
REMARK    1  A    between atoms: C_2  and  C_3
REMARK    2  A    between atoms: C_3  and  N_4
REMARK    3  A    between atoms: C_8  and  C_9
REMARK    4  A    between atoms: C_9  and  N_10
REMARK    5  A    between atoms: N_15  and  C_16
REMARK    6  A    between atoms: C_16  and  C_17
REMARK    7  A    between atoms: C_17  and  O_18
REMARK    8  A    between atoms: O_18  and  C_19
REMARK                            x       y       z     vdW  Elec       q    Type
REMARK                         _______ _______ _______ _____ _____    ______ ____
ROOT
ATOM      1  O   UNL     1       1.801   8.077  20.790  0.00  0.00    +0.000 OA
ATOM      2  C   UNL     1       2.006   7.126  20.042  0.00  0.00    +0.000 C 
ATOM      3  N   UNL     1       2.397   7.274  18.733  0.00  0.00    +0.000 N 
ATOM      4  H   UNL     1       2.435   6.448  18.148  0.00  0.00    +0.000 HD
ENDROOT
BRANCH   2   5
ATOM      5  C   UNL     1       1.881   5.671  20.522  0.00  0.00    +0.000 C 
BRANCH   5   6
ATOM      6  N   UNL     1       2.184   4.710  19.432  0.00  0.00    +0.000 NA
ATOM      7  C   UNL     1       1.185   3.621  19.431  0.00  0.00    +0.000 C 
ATOM      8  C   UNL     1       1.713   2.600  20.418  0.00  0.00    +0.000 C 
ATOM      9  C   UNL     1       3.197   2.605  20.124  0.00  0.00    +0.000 C 
ATOM     10  C   UNL     1       3.500   4.030  19.635  0.00  0.00    +0.000 C 
BRANCH  10  11
ATOM     11  C   UNL     1       4.308   4.052  18.325  0.00  0.00    +0.000 C 
BRANCH  11  12
ATOM     12  N   UNL     1       5.631   4.616  18.480  0.00  0.00    +0.000 N 
ATOM     13  C   UNL     1       6.619   4.710  17.550  0.00  0.00    +0.000 A 
ATOM     14  N   UNL     1       7.661   5.310  18.078  0.00  0.00    +0.000 NA
ATOM     15  C   UNL     1       7.258   5.554  19.361  0.00  0.00    +0.000 A 
ATOM     16  N   UNL     1       6.022   5.146  19.655  0.00  0.00    +0.000 NA
ENDBRANCH  11  12
ENDBRANCH  10  11
ENDBRANCH   5   6
ENDBRANCH   2   5
BRANCH   3  17
ATOM     17  C   UNL     1       2.469   8.588  18.104  0.00  0.00    +0.000 C 
BRANCH  17  18
ATOM     18  C   UNL     1       1.100   9.050  17.620  0.00  0.00    +0.000 C 
BRANCH  18  19
ATOM     19  O   UNL     1       0.645  10.153  18.407  0.00  0.00    +0.000 OA
BRANCH  19  20
ATOM     20  C   UNL     1      -0.678  10.480  18.272  0.00  0.00    +0.000 A 
ATOM     21  C   UNL     1      -1.572   9.894  17.368  0.00  0.00    +0.000 A 
ATOM     22  C   UNL     1      -2.906  10.307  17.330  0.00  0.00    +0.000 A 
ATOM     23  C   UNL     1      -3.343  11.304  18.192  0.00  0.00    +0.000 A 
ATOM     24  F   UNL     1      -4.623  11.694  18.154  0.00  0.00    +0.000 F 
ATOM     25  C   UNL     1      -2.468  11.901  19.091  0.00  0.00    +0.000 A 
ATOM     26  C   UNL     1      -1.134  11.487  19.130  0.00  0.00    +0.000 A 
ENDBRANCH  19  20
ENDBRANCH  18  19
ENDBRANCH  17  18
ENDBRANCH   3  17
TORSDOF 8
ENDMDL
MODEL 7
REMARK VINA RESULT:      -7.0      4.970      6.352
REMARK  Name = 
REMARK  8 active torsions:
REMARK  status: ('A' for Active; 'I' for Inactive)
REMARK    1  A    between atoms: C_2  and  C_3
REMARK    2  A    between atoms: C_3  and  N_4
REMARK    3  A    between atoms: C_8  and  C_9
REMARK    4  A    between atoms: C_9  and  N_10
REMARK    5  A    between atoms: N_15  and  C_16
REMARK    6  A    between atoms: C_16  and  C_17
REMARK    7  A    between atoms: C_17  and  O_18
REMARK    8  A    between atoms: O_18  and  C_19
REMARK                            x       y       z     vdW  Elec       q    Type
REMARK                         _______ _______ _______ _____ _____    ______ ____
ROOT
ATOM      1  O   UNL     1       6.392   6.006  15.503  0.00  0.00    +0.000 OA
ATOM      2  C   UNL     1       5.841   6.249  16.572  0.00  0.00    +0.000 C 
ATOM      3  N   UNL     1       6.429   6.995  17.565  0.00  0.00    +0.000 N 
ATOM      4  H   UNL     1       5.959   7.056  18.460  0.00  0.00    +0.000 HD
ENDROOT
BRANCH   2   5
ATOM      5  C   UNL     1       4.412   5.771  16.877  0.00  0.00    +0.000 C 
BRANCH   5   6
ATOM      6  N   UNL     1       4.125   5.810  18.333  0.00  0.00    +0.000 NA
ATOM      7  C   UNL     1       4.652   4.592  18.982  0.00  0.00    +0.000 C 
ATOM      8  C   UNL     1       3.551   3.560  18.837  0.00  0.00    +0.000 C 
ATOM      9  C   UNL     1       2.306   4.380  19.096  0.00  0.00    +0.000 C 
ATOM     10  C   UNL     1       2.657   5.797  18.616  0.00  0.00    +0.000 C 
BRANCH  10  11
ATOM     11  C   UNL     1       2.314   6.881  19.654  0.00  0.00    +0.000 C 
BRANCH  11  12
ATOM     12  N   UNL     1       1.984   8.157  19.058  0.00  0.00    +0.000 N 
ATOM     13  C   UNL     1       2.219   8.576  17.786  0.00  0.00    +0.000 A 
ATOM     14  N   UNL     1       1.746   9.791  17.632  0.00  0.00    +0.000 NA
ATOM     15  C   UNL     1       1.234  10.081  18.865  0.00  0.00    +0.000 A 
ATOM     16  N   UNL     1       1.357   9.111  19.773  0.00  0.00    +0.000 NA
ENDBRANCH  11  12
ENDBRANCH  10  11
ENDBRANCH   5   6
ENDBRANCH   2   5
BRANCH   3  17
ATOM     17  C   UNL     1       7.814   7.439  17.463  0.00  0.00    +0.000 C 
BRANCH  17  18
ATOM     18  C   UNL     1       7.953   8.918  17.804  0.00  0.00    +0.000 C 
BRANCH  18  19
ATOM     19  O   UNL     1       8.744   9.080  18.983  0.00  0.00    +0.000 OA
BRANCH  19  20
ATOM     20  C   UNL     1       9.287  10.323  19.173  0.00  0.00    +0.000 A 
ATOM     21  C   UNL     1       9.666  10.864  20.408  0.00  0.00    +0.000 A 
ATOM     22  C   UNL     1      10.220  12.144  20.475  0.00  0.00    +0.000 A 
ATOM     23  C   UNL     1      10.392  12.881  19.311  0.00  0.00    +0.000 A 
ATOM     24  F   UNL     1      10.928  14.107  19.381  0.00  0.00    +0.000 F 
ATOM     25  C   UNL     1      10.016  12.363  18.079  0.00  0.00    +0.000 A 
ATOM     26  C   UNL     1       9.462  11.082  18.011  0.00  0.00    +0.000 A 
ENDBRANCH  19  20
ENDBRANCH  18  19
ENDBRANCH  17  18
ENDBRANCH   3  17
TORSDOF 8
ENDMDL
MODEL 8
REMARK VINA RESULT:      -7.0      4.398      8.114
REMARK  Name = 
REMARK  8 active torsions:
REMARK  status: ('A' for Active; 'I' for Inactive)
REMARK    1  A    between atoms: C_2  and  C_3
REMARK    2  A    between atoms: C_3  and  N_4
REMARK    3  A    between atoms: C_8  and  C_9
REMARK    4  A    between atoms: C_9  and  N_10
REMARK    5  A    between atoms: N_15  and  C_16
REMARK    6  A    between atoms: C_16  and  C_17
REMARK    7  A    between atoms: C_17  and  O_18
REMARK    8  A    between atoms: O_18  and  C_19
REMARK                            x       y       z     vdW  Elec       q    Type
REMARK                         _______ _______ _______ _____ _____    ______ ____
ROOT
ATOM      1  O   UNL     1       2.313   6.225  18.123  0.00  0.00    +0.000 OA
ATOM      2  C   UNL     1       2.183   6.532  19.304  0.00  0.00    +0.000 C 
ATOM      3  N   UNL     1       1.929   7.817  19.720  0.00  0.00    +0.000 N 
ATOM      4  H   UNL     1       1.948   8.012  20.714  0.00  0.00    +0.000 HD
ENDROOT
BRANCH   2   5
ATOM      5  C   UNL     1       2.252   5.487  20.429  0.00  0.00    +0.000 C 
BRANCH   5   6
ATOM      6  N   UNL     1       2.300   4.106  19.887  0.00  0.00    +0.000 NA
ATOM      7  C   UNL     1       1.052   3.391  20.223  0.00  0.00    +0.000 C 
ATOM      8  C   UNL     1       1.289   2.810  21.603  0.00  0.00    +0.000 C 
ATOM      9  C   UNL     1       2.724   2.341  21.512  0.00  0.00    +0.000 C 
ATOM     10  C   UNL     1       3.392   3.296  20.511  0.00  0.00    +0.000 C 
BRANCH  10  11
ATOM     11  C   UNL     1       4.185   2.557  19.417  0.00  0.00    +0.000 C 
BRANCH  11  12
ATOM     12  N   UNL     1       4.794   3.447  18.454  0.00  0.00    +0.000 N 
ATOM     13  C   UNL     1       4.491   3.595  17.137  0.00  0.00    +0.000 A 
ATOM     14  N   UNL     1       5.257   4.524  16.613  0.00  0.00    +0.000 NA
ATOM     15  C   UNL     1       6.035   4.911  17.667  0.00  0.00    +0.000 A 
ATOM     16  N   UNL     1       5.789   4.279  18.816  0.00  0.00    +0.000 NA
ENDBRANCH  11  12
ENDBRANCH  10  11
ENDBRANCH   5   6
ENDBRANCH   2   5
BRANCH   3  17
ATOM     17  C   UNL     1       1.928   8.934  18.782  0.00  0.00    +0.000 C 
BRANCH  17  18
ATOM     18  C   UNL     1       0.709   9.828  18.980  0.00  0.00    +0.000 C 
BRANCH  18  19
ATOM     19  O   UNL     1      -0.077   9.861  17.788  0.00  0.00    +0.000 OA
BRANCH  19  20
ATOM     20  C   UNL     1      -1.348  10.354  17.922  0.00  0.00    +0.000 A 
ATOM     21  C   UNL     1      -2.486   9.856  17.276  0.00  0.00    +0.000 A 
ATOM     22  C   UNL     1      -3.735  10.439  17.501  0.00  0.00    +0.000 A 
ATOM     23  C   UNL     1      -3.844  11.519  18.367  0.00  0.00    +0.000 A 
ATOM     24  F   UNL     1      -5.045  12.073  18.582  0.00  0.00    +0.000 F 
ATOM     25  C   UNL     1      -2.725  12.031  19.011  0.00  0.00    +0.000 A 
ATOM     26  C   UNL     1      -1.475  11.447  18.787  0.00  0.00    +0.000 A 
ENDBRANCH  19  20
ENDBRANCH  18  19
ENDBRANCH  17  18
ENDBRANCH   3  17
TORSDOF 8
ENDMDL
MODEL 9
REMARK VINA RESULT:      -7.0      6.230      8.014
REMARK  Name = 
REMARK  8 active torsions:
REMARK  status: ('A' for Active; 'I' for Inactive)
REMARK    1  A    between atoms: C_2  and  C_3
REMARK    2  A    between atoms: C_3  and  N_4
REMARK    3  A    between atoms: C_8  and  C_9
REMARK    4  A    between atoms: C_9  and  N_10
REMARK    5  A    between atoms: N_15  and  C_16
REMARK    6  A    between atoms: C_16  and  C_17
REMARK    7  A    between atoms: C_17  and  O_18
REMARK    8  A    between atoms: O_18  and  C_19
REMARK                            x       y       z     vdW  Elec       q    Type
REMARK                         _______ _______ _______ _____ _____    ______ ____
ROOT
ATOM      1  O   UNL     1       8.012   6.570  18.688  0.00  0.00    +0.000 OA
ATOM      2  C   UNL     1       7.528   7.298  17.827  0.00  0.00    +0.000 C 
ATOM      3  N   UNL     1       7.873   8.621  17.686  0.00  0.00    +0.000 N 
ATOM      4  H   UNL     1       7.349   9.185  17.029  0.00  0.00    +0.000 HD
ENDROOT
BRANCH   2   5
ATOM      5  C   UNL     1       6.515   6.778  16.795  0.00  0.00    +0.000 C 
BRANCH   5   6
ATOM      6  N   UNL     1       6.495   5.294  16.753  0.00  0.00    +0.000 NA
ATOM      7  C   UNL     1       7.418   4.809  15.705  0.00  0.00    +0.000 C 
ATOM      8  C   UNL     1       6.602   4.812  14.429  0.00  0.00    +0.000 C 
ATOM      9  C   UNL     1       5.260   4.300  14.902  0.00  0.00    +0.000 C 
ATOM     10  C   UNL     1       5.153   4.762  16.364  0.00  0.00    +0.000 C 
BRANCH  10  11
ATOM     11  C   UNL     1       4.743   3.626  17.320  0.00  0.00    +0.000 C 
BRANCH  11  12
ATOM     12  N   UNL     1       3.336   3.642  17.654  0.00  0.00    +0.000 N 
ATOM     13  C   UNL     1       2.451   2.611  17.611  0.00  0.00    +0.000 A 
ATOM     14  N   UNL     1       1.273   3.028  18.015  0.00  0.00    +0.000 NA
ATOM     15  C   UNL     1       1.491   4.349  18.284  0.00  0.00    +0.000 A 
ATOM     16  N   UNL     1       2.739   4.773  18.078  0.00  0.00    +0.000 NA
ENDBRANCH  11  12
ENDBRANCH  10  11
ENDBRANCH   5   6
ENDBRANCH   2   5
BRANCH   3  17
ATOM     17  C   UNL     1       8.750   9.285  18.645  0.00  0.00    +0.000 C 
BRANCH  17  18
ATOM     18  C   UNL     1       8.980  10.745  18.272  0.00  0.00    +0.000 C 
BRANCH  18  19
ATOM     19  O   UNL     1       9.935  11.334  19.156  0.00  0.00    +0.000 OA
BRANCH  19  20
ATOM     20  C   UNL     1      10.502  12.507  18.731  0.00  0.00    +0.000 A 
ATOM     21  C   UNL     1      10.491  12.984  17.415  0.00  0.00    +0.000 A 
ATOM     22  C   UNL     1      11.097  14.203  17.103  0.00  0.00    +0.000 A 
ATOM     23  C   UNL     1      11.713  14.941  18.105  0.00  0.00    +0.000 A 
ATOM     24  F   UNL     1      12.290  16.111  17.802  0.00  0.00    +0.000 F 
ATOM     25  C   UNL     1      11.740  14.479  19.415  0.00  0.00    +0.000 A 
ATOM     26  C   UNL     1      11.133  13.260  19.727  0.00  0.00    +0.000 A 
ENDBRANCH  19  20
ENDBRANCH  18  19
ENDBRANCH  17  18
ENDBRANCH   3  17
TORSDOF 8
ENDMDL
