MODEL 1
REMARK VINA RESULT:      -7.5      0.000      0.000
REMARK  Name = 
REMARK  8 active torsions:
REMARK  status: ('A' for Active; 'I' for Inactive)
REMARK    1  A    between atoms: C_1  and  S_2
REMARK    2  A    between atoms: S_2  and  C_3
REMARK    3  A    between atoms: C_6  and  C_7
REMARK    4  A    between atoms: C_10  and  C_11
REMARK    5  A    between atoms: N_13  and  C_14
REMARK    6  A    between atoms: C_14  and  C_15
REMARK    7  A    between atoms: C_20  and  N_21
REMARK    8  A    between atoms: C_24  and  O_25
REMARK                            x       y       z     vdW  Elec       q    Type
REMARK                         _______ _______ _______ _____ _____    ______ ____
ROOT
ATOM      1  C   UNL     1       2.751   6.981  18.788  0.00  0.00    +0.000 A 
ATOM      2  C   UNL     1       2.656   6.540  20.105  0.00  0.00    +0.000 A 
ATOM      3  C   UNL     1       1.803   7.195  20.963  0.00  0.00    +0.000 A 
ATOM      4  C   UNL     1       1.050   8.296  20.525  0.00  0.00    +0.000 A 
ATOM      5  C   UNL     1       1.257   8.766  19.218  0.00  0.00    +0.000 A 
ATOM      6  N   UNL     1       2.087   8.071  18.362  0.00  0.00    +0.000 NA
ENDROOT
BRANCH   1  10
ATOM      7  C   UNL     1       5.076   4.843  15.833  0.00  0.00    +0.000 A 
ATOM      8  C   UNL     1       5.172   6.231  15.936  0.00  0.00    +0.000 A 
ATOM      9  C   UNL     1       4.413   6.926  16.885  0.00  0.00    +0.000 A 
ATOM     10  C   UNL     1       3.538   6.253  17.761  0.00  0.00    +0.000 A 
ATOM     11  C   UNL     1       3.452   4.858  17.641  0.00  0.00    +0.000 A 
ATOM     12  C   UNL     1       4.209   4.162  16.690  0.00  0.00    +0.000 A 
BRANCH   7  14
ATOM     13  C   UNL     1       7.336   5.222  14.296  0.00  0.00    +0.000 C 
ATOM     14  S   UNL     1       6.035   3.994  14.591  0.00  0.00    +0.000 S 
ENDBRANCH   7  14
ENDBRANCH   1  10
BRANCH   5  15
ATOM     15  N   UNL     1       0.685   9.901  18.698  0.00  0.00    +0.000 N 
ATOM     16  C   UNL     1      -0.664   9.944  18.146  0.00  0.00    +0.000 C 
ATOM     17  C   UNL     1      -1.479  11.034  18.789  0.00  0.00    +0.000 C 
ATOM     18  C   UNL     1      -0.741  12.370  18.750  0.00  0.00    +0.000 C 
ATOM     19  C   UNL     1       0.685  12.271  19.286  0.00  0.00    +0.000 C 
ATOM     20  C   UNL     1       1.472  11.128  18.662  0.00  0.00    +0.000 C 
BRANCH  18  21
ATOM     21  O   UNL     1      -0.738  12.907  17.423  0.00  0.00    +0.000 OA
ATOM     22  H   UNL     1      -0.298  12.286  16.818  0.00  0.00    +0.000 HD
ENDBRANCH  18  21
ENDBRANCH   5  15
BRANCH   4  23
ATOM     23  C   UNL     1       0.022   8.857  21.445  0.00  0.00    +0.000 C 
ATOM     24  O   UNL     1      -1.009   8.228  21.663  0.00  0.00    +0.000 OA
ATOM     25  N   UNL     1       0.239  10.097  21.984  0.00  0.00    +0.000 N 
ATOM     26  H   UNL     1       1.108  10.588  21.785  0.00  0.00    +0.000 HD
BRANCH  25  27
ATOM     27  C   UNL     1      -0.615  10.646  23.037  0.00  0.00    +0.000 C 
BRANCH  27  28
ATOM     28  C   UNL     1      -1.549  11.729  22.507  0.00  0.00    +0.000 C 
ATOM     29  C   UNL     1      -0.897  13.107  22.521  0.00  0.00    +0.000 C 
ATOM     30  C   UNL     1      -2.072  14.016  22.751  0.00  0.00    +0.000 C 
ATOM     31  C   UNL     1      -2.929  13.197  23.689  0.00  0.00    +0.000 C 
ATOM     32  O   UNL     1      -2.738  11.822  23.327  0.00  0.00    +0.000 OA
ENDBRANCH  27  28
ENDBRANCH  25  27
ENDBRANCH   4  23
TORSDOF 7
ENDMDL
MODEL 2
REMARK VINA RESULT:      -7.3      4.179      9.667
REMARK  Name = 
REMARK  8 active torsions:
REMARK  status: ('A' for Active; 'I' for Inactive)
REMARK    1  A    between atoms: C_1  and  S_2
REMARK    2  A    between atoms: S_2  and  C_3
REMARK    3  A    between atoms: C_6  and  C_7
REMARK    4  A    between atoms: C_10  and  C_11
REMARK    5  A    between atoms: N_13  and  C_14
REMARK    6  A    between atoms: C_14  and  C_15
REMARK    7  A    between atoms: C_20  and  N_21
REMARK    8  A    between atoms: C_24  and  O_25
REMARK                            x       y       z     vdW  Elec       q    Type
REMARK                         _______ _______ _______ _____ _____    ______ ____
ROOT
ATOM      1  C   UNL     1       1.721   8.596  19.087  0.00  0.00    +0.000 A 
ATOM      2  C   UNL     1       2.505   8.777  17.949  0.00  0.00    +0.000 A 
ATOM      3  C   UNL     1       3.187   7.698  17.436  0.00  0.00    +0.000 A 
ATOM      4  C   UNL     1       3.106   6.439  18.052  0.00  0.00    +0.000 A 
ATOM      5  C   UNL     1       2.387   6.330  19.253  0.00  0.00    +0.000 A 
ATOM      6  N   UNL     1       1.679   7.414  19.729  0.00  0.00    +0.000 NA
ENDROOT
BRANCH   1  10
ATOM      7  C   UNL     1      -0.789  11.747  20.659  0.00  0.00    +0.000 A 
ATOM      8  C   UNL     1      -0.293  10.754  21.504  0.00  0.00    +0.000 A 
ATOM      9  C   UNL     1       0.513   9.727  20.995  0.00  0.00    +0.000 A 
ATOM     10  C   UNL     1       0.846   9.666  19.628  0.00  0.00    +0.000 A 
ATOM     11  C   UNL     1       0.335  10.670  18.793  0.00  0.00    +0.000 A 
ATOM     12  C   UNL     1      -0.472  11.696  19.301  0.00  0.00    +0.000 A 
BRANCH   7  14
ATOM     13  C   UNL     1      -1.260  13.030  23.057  0.00  0.00    +0.000 C 
ATOM     14  S   UNL     1      -1.837  13.021  21.337  0.00  0.00    +0.000 S 
ENDBRANCH   7  14
ENDBRANCH   1  10
BRANCH   5  15
ATOM     15  N   UNL     1       2.327   5.196  20.025  0.00  0.00    +0.000 N 
ATOM     16  C   UNL     1       1.077   4.594  20.477  0.00  0.00    +0.000 C 
ATOM     17  C   UNL     1       1.012   3.137  20.104  0.00  0.00    +0.000 C 
ATOM     18  C   UNL     1       2.267   2.395  20.558  0.00  0.00    +0.000 C 
ATOM     19  C   UNL     1       3.553   3.086  20.112  0.00  0.00    +0.000 C 
ATOM     20  C   UNL     1       3.573   4.570  20.449  0.00  0.00    +0.000 C 
BRANCH  18  21
ATOM     21  O   UNL     1       2.265   2.218  21.979  0.00  0.00    +0.000 OA
ATOM     22  H   UNL     1       3.101   2.545  22.352  0.00  0.00    +0.000 HD
ENDBRANCH  18  21
ENDBRANCH   5  15
BRANCH   4  23
ATOM     23  C   UNL     1       3.726   5.275  17.358  0.00  0.00    +0.000 C 
ATOM     24  O   UNL     1       3.047   4.285  17.105  0.00  0.00    +0.000 OA
ATOM     25  N   UNL     1       5.063   5.327  17.071  0.00  0.00    +0.000 N 
ATOM     26  H   UNL     1       5.594   6.167  17.291  0.00  0.00    +0.000 HD
BRANCH  25  27
ATOM     27  C   UNL     1       5.716   4.323  16.231  0.00  0.00    +0.000 C 
BRANCH  27  28
ATOM     28  C   UNL     1       5.787   4.759  14.771  0.00  0.00    +0.000 C 
ATOM     29  C   UNL     1       5.868   3.572  13.820  0.00  0.00    +0.000 C 
ATOM     30  C   UNL     1       6.680   4.125  12.682  0.00  0.00    +0.000 C 
ATOM     31  C   UNL     1       7.659   5.027  13.400  0.00  0.00    +0.000 C 
ATOM     32  O   UNL     1       6.968   5.563  14.537  0.00  0.00    +0.000 OA
ENDBRANCH  27  28
ENDBRANCH  25  27
ENDBRANCH   4  23
TORSDOF 7
ENDMDL
MODEL 3
REMARK VINA RESULT:      -7.2      4.834     10.262
REMARK  Name = 
REMARK  8 active torsions:
REMARK  status: ('A' for Active; 'I' for Inactive)
REMARK    1  A    between atoms: C_1  and  S_2
REMARK    2  A    between atoms: S_2  and  C_3
REMARK    3  A    between atoms: C_6  and  C_7
REMARK    4  A    between atoms: C_10  and  C_11
REMARK    5  A    between atoms: N_13  and  C_14
REMARK    6  A    between atoms: C_14  and  C_15
REMARK    7  A    between atoms: C_20  and  N_21
REMARK    8  A    between atoms: C_24  and  O_25
REMARK                            x       y       z     vdW  Elec       q    Type
REMARK                         _______ _______ _______ _____ _____    ______ ____
ROOT
ATOM      1  C   UNL     1       3.334   7.502  18.029  0.00  0.00    +0.000 A 
ATOM      2  C   UNL     1       4.410   8.044  17.331  0.00  0.00    +0.000 A 
ATOM      3  C   UNL     1       5.329   7.192  16.763  0.00  0.00    +0.000 A 
ATOM      4  C   UNL     1       5.193   5.800  16.893  0.00  0.00    +0.000 A 
ATOM      5  C   UNL     1       4.151   5.305  17.693  0.00  0.00    +0.000 A 
ATOM      6  N   UNL     1       3.219   6.175  18.221  0.00  0.00    +0.000 NA
ENDROOT
BRANCH   1  10
ATOM      7  C   UNL     1       0.075   9.894  19.564  0.00  0.00    +0.000 A 
ATOM      8  C   UNL     1       0.449   9.990  18.224  0.00  0.00    +0.000 A 
ATOM      9  C   UNL     1       1.510   9.223  17.727  0.00  0.00    +0.000 A 
ATOM     10  C   UNL     1       2.226   8.337  18.555  0.00  0.00    +0.000 A 
ATOM     11  C   UNL     1       1.839   8.257  19.901  0.00  0.00    +0.000 A 
ATOM     12  C   UNL     1       0.779   9.025  20.399  0.00  0.00    +0.000 A 
BRANCH   7  14
ATOM     13  C   UNL     1      -0.757  11.106  21.900  0.00  0.00    +0.000 C 
ATOM     14  S   UNL     1      -1.262  10.909  20.169  0.00  0.00    +0.000 S 
ENDBRANCH   7  14
ENDBRANCH   1  10
BRANCH   5  15
ATOM     15  N   UNL     1       3.972   3.981  18.009  0.00  0.00    +0.000 N 
ATOM     16  C   UNL     1       4.643   3.321  19.123  0.00  0.00    +0.000 C 
ATOM     17  C   UNL     1       3.650   2.636  20.025  0.00  0.00    +0.000 C 
ATOM     18  C   UNL     1       2.715   1.729  19.227  0.00  0.00    +0.000 C 
ATOM     19  C   UNL     1       2.076   2.442  18.038  0.00  0.00    +0.000 C 
ATOM     20  C   UNL     1       3.092   3.174  17.172  0.00  0.00    +0.000 C 
BRANCH  18  21
ATOM     21  O   UNL     1       3.403   0.552  18.790  0.00  0.00    +0.000 OA
ATOM     22  H   UNL     1       2.935   0.159  18.034  0.00  0.00    +0.000 HD
ENDBRANCH  18  21
ENDBRANCH   5  15
BRANCH   4  23
ATOM     23  C   UNL     1       6.119   4.927  16.119  0.00  0.00    +0.000 C 
ATOM     24  O   UNL     1       7.079   4.408  16.680  0.00  0.00    +0.000 OA
ATOM     25  N   UNL     1       5.896   4.772  14.777  0.00  0.00    +0.000 N 
ATOM     26  H   UNL     1       5.087   5.213  14.346  0.00  0.00    +0.000 HD
BRANCH  25  27
ATOM     27  C   UNL     1       6.631   3.794  13.976  0.00  0.00    +0.000 C 
BRANCH  27  28
ATOM     28  C   UNL     1       6.133   3.746  12.535  0.00  0.00    +0.000 C 
ATOM     29  C   UNL     1       4.614   3.668  12.455  0.00  0.00    +0.000 C 
ATOM     30  C   UNL     1       4.399   2.876  11.195  0.00  0.00    +0.000 C 
ATOM     31  C   UNL     1       5.549   1.896  11.235  0.00  0.00    +0.000 C 
ATOM     32  O   UNL     1       6.648   2.576  11.857  0.00  0.00    +0.000 OA
ENDBRANCH  27  28
ENDBRANCH  25  27
ENDBRANCH   4  23
TORSDOF 7
ENDMDL
MODEL 4
REMARK VINA RESULT:      -7.2      4.204      9.611
REMARK  Name = 
REMARK  8 active torsions:
REMARK  status: ('A' for Active; 'I' for Inactive)
REMARK    1  A    between atoms: C_1  and  S_2
REMARK    2  A    between atoms: S_2  and  C_3
REMARK    3  A    between atoms: C_6  and  C_7
REMARK    4  A    between atoms: C_10  and  C_11
REMARK    5  A    between atoms: N_13  and  C_14
REMARK    6  A    between atoms: C_14  and  C_15
REMARK    7  A    between atoms: C_20  and  N_21
REMARK    8  A    between atoms: C_24  and  O_25
REMARK                            x       y       z     vdW  Elec       q    Type
REMARK                         _______ _______ _______ _____ _____    ______ ____
ROOT
ATOM      1  C   UNL     1       1.766   8.579  19.171  0.00  0.00    +0.000 A 
ATOM      2  C   UNL     1       2.530   8.753  18.020  0.00  0.00    +0.000 A 
ATOM      3  C   UNL     1       3.176   7.664  17.482  0.00  0.00    +0.000 A 
ATOM      4  C   UNL     1       3.077   6.400  18.087  0.00  0.00    +0.000 A 
ATOM      5  C   UNL     1       2.381   6.296  19.302  0.00  0.00    +0.000 A 
ATOM      6  N   UNL     1       1.709   7.392  19.803  0.00  0.00    +0.000 NA
ENDROOT
BRANCH   1  10
ATOM      7  C   UNL     1      -0.718  11.709  20.825  0.00  0.00    +0.000 A 
ATOM      8  C   UNL     1      -0.170  11.844  19.549  0.00  0.00    +0.000 A 
ATOM      9  C   UNL     1       0.642  10.836  19.016  0.00  0.00    +0.000 A 
ATOM     10  C   UNL     1       0.928   9.663  19.741  0.00  0.00    +0.000 A 
ATOM     11  C   UNL     1       0.372   9.546  21.024  0.00  0.00    +0.000 A 
ATOM     12  C   UNL     1      -0.439  10.556  21.559  0.00  0.00    +0.000 A 
BRANCH   7  14
ATOM     13  C   UNL     1      -1.009  14.445  20.605  0.00  0.00    +0.000 C 
ATOM     14  S   UNL     1      -1.722  13.028  21.484  0.00  0.00    +0.000 S 
ENDBRANCH   7  14
ENDBRANCH   1  10
BRANCH   5  15
ATOM     15  N   UNL     1       2.309   5.156  20.063  0.00  0.00    +0.000 N 
ATOM     16  C   UNL     1       1.054   4.556  20.501  0.00  0.00    +0.000 C 
ATOM     17  C   UNL     1       0.984   3.102  20.116  0.00  0.00    +0.000 C 
ATOM     18  C   UNL     1       2.232   2.351  20.572  0.00  0.00    +0.000 C 
ATOM     19  C   UNL     1       3.525   3.040  20.142  0.00  0.00    +0.000 C 
ATOM     20  C   UNL     1       3.550   4.521  20.492  0.00  0.00    +0.000 C 
BRANCH  18  21
ATOM     21  O   UNL     1       2.219   2.162  21.992  0.00  0.00    +0.000 OA
ATOM     22  H   UNL     1       1.911   1.264  22.201  0.00  0.00    +0.000 HD
ENDBRANCH  18  21
ENDBRANCH   5  15
BRANCH   4  23
ATOM     23  C   UNL     1       3.655   5.230  17.369  0.00  0.00    +0.000 C 
ATOM     24  O   UNL     1       2.946   4.262  17.113  0.00  0.00    +0.000 OA
ATOM     25  N   UNL     1       4.989   5.249  17.062  0.00  0.00    +0.000 N 
ATOM     26  H   UNL     1       5.546   6.071  17.285  0.00  0.00    +0.000 HD
BRANCH  25  27
ATOM     27  C   UNL     1       5.601   4.239  16.200  0.00  0.00    +0.000 C 
BRANCH  27  28
ATOM     28  C   UNL     1       5.720   4.717  14.756  0.00  0.00    +0.000 C 
ATOM     29  C   UNL     1       5.845   3.557  13.776  0.00  0.00    +0.000 C 
ATOM     30  C   UNL     1       6.691   4.150  12.683  0.00  0.00    +0.000 C 
ATOM     31  C   UNL     1       7.636   5.039  13.460  0.00  0.00    +0.000 C 
ATOM     32  O   UNL     1       6.900   5.537  14.587  0.00  0.00    +0.000 OA
ENDBRANCH  27  28
ENDBRANCH  25  27
ENDBRANCH   4  23
TORSDOF 7
ENDMDL
MODEL 5
REMARK VINA RESULT:      -7.1      4.867     10.209
REMARK  Name = 
REMARK  8 active torsions:
REMARK  status: ('A' for Active; 'I' for Inactive)
REMARK    1  A    between atoms: C_1  and  S_2
REMARK    2  A    between atoms: S_2  and  C_3
REMARK    3  A    between atoms: C_6  and  C_7
REMARK    4  A    between atoms: C_10  and  C_11
REMARK    5  A    between atoms: N_13  and  C_14
REMARK    6  A    between atoms: C_14  and  C_15
REMARK    7  A    between atoms: C_20  and  N_21
REMARK    8  A    between atoms: C_24  and  O_25
REMARK                            x       y       z     vdW  Elec       q    Type
REMARK                         _______ _______ _______ _____ _____    ______ ____
ROOT
ATOM      1  C   UNL     1       3.320   7.529  18.006  0.00  0.00    +0.000 A 
ATOM      2  C   UNL     1       4.326   8.137  17.259  0.00  0.00    +0.000 A 
ATOM      3  C   UNL     1       5.254   7.342  16.627  0.00  0.00    +0.000 A 
ATOM      4  C   UNL     1       5.197   5.943  16.740  0.00  0.00    +0.000 A 
ATOM      5  C   UNL     1       4.228   5.383  17.587  0.00  0.00    +0.000 A 
ATOM      6  N   UNL     1       3.283   6.195  18.181  0.00  0.00    +0.000 NA
ENDROOT
BRANCH   1  10
ATOM      7  C   UNL     1       0.090   9.812  19.756  0.00  0.00    +0.000 A 
ATOM      8  C   UNL     1       0.804   8.895  20.528  0.00  0.00    +0.000 A 
ATOM      9  C   UNL     1       1.844   8.148  19.961  0.00  0.00    +0.000 A 
ATOM     10  C   UNL     1       2.201   8.298  18.607  0.00  0.00    +0.000 A 
ATOM     11  C   UNL     1       1.470   9.221  17.845  0.00  0.00    +0.000 A 
ATOM     12  C   UNL     1       0.428   9.967  18.411  0.00  0.00    +0.000 A 
BRANCH   7  14
ATOM     13  C   UNL     1      -1.357  12.129  19.364  0.00  0.00    +0.000 C 
ATOM     14  S   UNL     1      -1.248  10.723  20.505  0.00  0.00    +0.000 S 
ENDBRANCH   7  14
ENDBRANCH   1  10
BRANCH   5  15
ATOM     15  N   UNL     1       4.135   4.047  17.890  0.00  0.00    +0.000 N 
ATOM     16  C   UNL     1       4.787   3.434  19.042  0.00  0.00    +0.000 C 
ATOM     17  C   UNL     1       3.799   2.668  19.880  0.00  0.00    +0.000 C 
ATOM     18  C   UNL     1       2.989   1.696  19.026  0.00  0.00    +0.000 C 
ATOM     19  C   UNL     1       2.368   2.364  17.801  0.00  0.00    +0.000 C 
ATOM     20  C   UNL     1       3.374   3.178  17.000  0.00  0.00    +0.000 C 
BRANCH  18  21
ATOM     21  O   UNL     1       3.793   0.579  18.629  0.00  0.00    +0.000 OA
ATOM     22  H   UNL     1       4.236   0.776  17.787  0.00  0.00    +0.000 HD
ENDBRANCH  18  21
ENDBRANCH   5  15
BRANCH   4  23
ATOM     23  C   UNL     1       6.121   5.131  15.901  0.00  0.00    +0.000 C 
ATOM     24  O   UNL     1       6.786   4.238  16.417  0.00  0.00    +0.000 OA
ATOM     25  N   UNL     1       6.241   5.445  14.574  0.00  0.00    +0.000 N 
ATOM     26  H   UNL     1       5.669   6.189  14.178  0.00  0.00    +0.000 HD
BRANCH  25  27
ATOM     27  C   UNL     1       6.972   4.593  13.637  0.00  0.00    +0.000 C 
BRANCH  27  28
ATOM     28  C   UNL     1       6.148   3.386  13.200  0.00  0.00    +0.000 C 
ATOM     29  C   UNL     1       6.702   2.740  11.936  0.00  0.00    +0.000 C 
ATOM     30  C   UNL     1       5.461   2.200  11.282  0.00  0.00    +0.000 C 
ATOM     31  C   UNL     1       4.437   3.261  11.616  0.00  0.00    +0.000 C 
ATOM     32  O   UNL     1       4.787   3.778  12.908  0.00  0.00    +0.000 OA
ENDBRANCH  27  28
ENDBRANCH  25  27
ENDBRANCH   4  23
TORSDOF 7
ENDMDL
MODEL 6
REMARK VINA RESULT:      -7.0      2.545      4.218
REMARK  Name = 
REMARK  8 active torsions:
REMARK  status: ('A' for Active; 'I' for Inactive)
REMARK    1  A    between atoms: C_1  and  S_2
REMARK    2  A    between atoms: S_2  and  C_3
REMARK    3  A    between atoms: C_6  and  C_7
REMARK    4  A    between atoms: C_10  and  C_11
REMARK    5  A    between atoms: N_13  and  C_14
REMARK    6  A    between atoms: C_14  and  C_15
REMARK    7  A    between atoms: C_20  and  N_21
REMARK    8  A    between atoms: C_24  and  O_25
REMARK                            x       y       z     vdW  Elec       q    Type
REMARK                         _______ _______ _______ _____ _____    ______ ____
ROOT
ATOM      1  C   UNL     1       0.738   9.340  21.183  0.00  0.00    +0.000 A 
ATOM      2  C   UNL     1       0.146   9.015  22.401  0.00  0.00    +0.000 A 
ATOM      3  C   UNL     1      -0.579   9.978  23.064  0.00  0.00    +0.000 A 
ATOM      4  C   UNL     1      -0.713  11.270  22.530  0.00  0.00    +0.000 A 
ATOM      5  C   UNL     1      -0.013  11.579  21.352  0.00  0.00    +0.000 A 
ATOM      6  N   UNL     1       0.677  10.588  20.684  0.00  0.00    +0.000 NA
ENDROOT
BRANCH   1  10
ATOM      7  C   UNL     1       2.684   6.393  18.687  0.00  0.00    +0.000 A 
ATOM      8  C   UNL     1       2.288   6.066  19.984  0.00  0.00    +0.000 A 
ATOM      9  C   UNL     1       1.666   7.022  20.797  0.00  0.00    +0.000 A 
ATOM     10  C   UNL     1       1.421   8.330  20.336  0.00  0.00    +0.000 A 
ATOM     11  C   UNL     1       1.830   8.642  19.031  0.00  0.00    +0.000 A 
ATOM     12  C   UNL     1       2.453   7.687  18.218  0.00  0.00    +0.000 A 
BRANCH   7  14
ATOM     13  C   UNL     1       4.392   4.244  18.980  0.00  0.00    +0.000 C 
ATOM     14  S   UNL     1       3.501   5.159  17.691  0.00  0.00    +0.000 S 
ENDBRANCH   7  14
ENDBRANCH   1  10
BRANCH   5  15
ATOM     15  N   UNL     1       0.048  12.829  20.788  0.00  0.00    +0.000 N 
ATOM     16  C   UNL     1       1.056  13.823  21.139  0.00  0.00    +0.000 C 
ATOM     17  C   UNL     1       1.769  14.330  19.914  0.00  0.00    +0.000 C 
ATOM     18  C   UNL     1       0.776  14.790  18.849  0.00  0.00    +0.000 C 
ATOM     19  C   UNL     1      -0.294  13.743  18.549  0.00  0.00    +0.000 C 
ATOM     20  C   UNL     1      -0.962  13.205  19.806  0.00  0.00    +0.000 C 
BRANCH  18  21
ATOM     21  O   UNL     1       0.166  16.029  19.227  0.00  0.00    +0.000 OA
ATOM     22  H   UNL     1       0.720  16.772  18.932  0.00  0.00    +0.000 HD
ENDBRANCH  18  21
ENDBRANCH   5  15
BRANCH   4  23
ATOM     23  C   UNL     1      -1.645  12.217  23.203  0.00  0.00    +0.000 C 
ATOM     24  O   UNL     1      -1.212  13.258  23.685  0.00  0.00    +0.000 OA
ATOM     25  N   UNL     1      -2.964  11.865  23.310  0.00  0.00    +0.000 N 
ATOM     26  H   UNL     1      -3.289  10.996  22.893  0.00  0.00    +0.000 HD
BRANCH  25  27
ATOM     27  C   UNL     1      -3.981  12.804  23.781  0.00  0.00    +0.000 C 
BRANCH  27  28
ATOM     28  C   UNL     1      -4.864  13.307  22.643  0.00  0.00    +0.000 C 
ATOM     29  C   UNL     1      -5.975  14.223  23.140  0.00  0.00    +0.000 C 
ATOM     30  C   UNL     1      -7.078  13.956  22.154  0.00  0.00    +0.000 C 
ATOM     31  C   UNL     1      -6.911  12.478  21.883  0.00  0.00    +0.000 C 
ATOM     32  O   UNL     1      -5.506  12.200  21.968  0.00  0.00    +0.000 OA
ENDBRANCH  27  28
ENDBRANCH  25  27
ENDBRANCH   4  23
TORSDOF 7
ENDMDL
MODEL 7
REMARK VINA RESULT:      -7.0      2.257      3.998
REMARK  Name = 
REMARK  8 active torsions:
REMARK  status: ('A' for Active; 'I' for Inactive)
REMARK    1  A    between atoms: C_1  and  S_2
REMARK    2  A    between atoms: S_2  and  C_3
REMARK    3  A    between atoms: C_6  and  C_7
REMARK    4  A    between atoms: C_10  and  C_11
REMARK    5  A    between atoms: N_13  and  C_14
REMARK    6  A    between atoms: C_14  and  C_15
REMARK    7  A    between atoms: C_20  and  N_21
REMARK    8  A    between atoms: C_24  and  O_25
REMARK                            x       y       z     vdW  Elec       q    Type
REMARK                         _______ _______ _______ _____ _____    ______ ____
ROOT
ATOM      1  C   UNL     1       0.739   9.326  21.146  0.00  0.00    +0.000 A 
ATOM      2  C   UNL     1       0.324   9.062  22.449  0.00  0.00    +0.000 A 
ATOM      3  C   UNL     1      -0.408  10.015  23.118  0.00  0.00    +0.000 A 
ATOM      4  C   UNL     1      -0.723  11.239  22.505  0.00  0.00    +0.000 A 
ATOM      5  C   UNL     1      -0.196  11.500  21.231  0.00  0.00    +0.000 A 
ATOM      6  N   UNL     1       0.503  10.516  20.563  0.00  0.00    +0.000 NA
ENDROOT
BRANCH   1  10
ATOM      7  C   UNL     1       2.744   6.360  18.720  0.00  0.00    +0.000 A 
ATOM      8  C   UNL     1       2.508   7.640  18.217  0.00  0.00    +0.000 A 
ATOM      9  C   UNL     1       1.851   8.599  18.998  0.00  0.00    +0.000 A 
ATOM     10  C   UNL     1       1.412   8.307  20.304  0.00  0.00    +0.000 A 
ATOM     11  C   UNL     1       1.653   7.014  20.791  0.00  0.00    +0.000 A 
ATOM     12  C   UNL     1       2.309   6.053  20.010  0.00  0.00    +0.000 A 
BRANCH   7  14
ATOM     13  C   UNL     1       4.810   6.202  16.898  0.00  0.00    +0.000 C 
ATOM     14  S   UNL     1       3.556   5.155  17.686  0.00  0.00    +0.000 S 
ENDBRANCH   7  14
ENDBRANCH   1  10
BRANCH   5  15
ATOM     15  N   UNL     1      -0.317  12.696  20.568  0.00  0.00    +0.000 N 
ATOM     16  C   UNL     1       0.446  13.890  20.912  0.00  0.00    +0.000 C 
ATOM     17  C   UNL     1       1.164  14.440  19.709  0.00  0.00    +0.000 C 
ATOM     18  C   UNL     1       0.209  14.623  18.532  0.00  0.00    +0.000 C 
ATOM     19  C   UNL     1      -0.610  13.368  18.238  0.00  0.00    +0.000 C 
ATOM     20  C   UNL     1      -1.282  12.798  19.479  0.00  0.00    +0.000 C 
BRANCH  18  21
ATOM     21  O   UNL     1      -0.657  15.742  18.752  0.00  0.00    +0.000 OA
ATOM     22  H   UNL     1      -1.056  15.680  19.636  0.00  0.00    +0.000 HD
ENDBRANCH  18  21
ENDBRANCH   5  15
BRANCH   4  23
ATOM     23  C   UNL     1      -1.658  12.159  23.211  0.00  0.00    +0.000 C 
ATOM     24  O   UNL     1      -1.225  13.178  23.740  0.00  0.00    +0.000 OA
ATOM     25  N   UNL     1      -2.978  11.808  23.295  0.00  0.00    +0.000 N 
ATOM     26  H   UNL     1      -3.303  10.958  22.839  0.00  0.00    +0.000 HD
BRANCH  25  27
ATOM     27  C   UNL     1      -3.996  12.729  23.798  0.00  0.00    +0.000 C 
BRANCH  27  28
ATOM     28  C   UNL     1      -4.902  13.243  22.683  0.00  0.00    +0.000 C 
ATOM     29  C   UNL     1      -5.944  14.228  23.198  0.00  0.00    +0.000 C 
ATOM     30  C   UNL     1      -7.101  13.988  22.269  0.00  0.00    +0.000 C 
ATOM     31  C   UNL     1      -7.019  12.496  22.038  0.00  0.00    +0.000 C 
ATOM     32  O   UNL     1      -5.627  12.150  22.072  0.00  0.00    +0.000 OA
ENDBRANCH  27  28
ENDBRANCH  25  27
ENDBRANCH   4  23
TORSDOF 7
ENDMDL
MODEL 8
REMARK VINA RESULT:      -7.0      4.145      9.344
REMARK  Name = 
REMARK  8 active torsions:
REMARK  status: ('A' for Active; 'I' for Inactive)
REMARK    1  A    between atoms: C_1  and  S_2
REMARK    2  A    between atoms: S_2  and  C_3
REMARK    3  A    between atoms: C_6  and  C_7
REMARK    4  A    between atoms: C_10  and  C_11
REMARK    5  A    between atoms: N_13  and  C_14
REMARK    6  A    between atoms: C_14  and  C_15
REMARK    7  A    between atoms: C_20  and  N_21
REMARK    8  A    between atoms: C_24  and  O_25
REMARK                            x       y       z     vdW  Elec       q    Type
REMARK                         _______ _______ _______ _____ _____    ______ ____
ROOT
ATOM      1  C   UNL     1       1.169   9.018  19.960  0.00  0.00    +0.000 A 
ATOM      2  C   UNL     1       1.711   9.507  18.774  0.00  0.00    +0.000 A 
ATOM      3  C   UNL     1       2.458   8.660  17.988  0.00  0.00    +0.000 A 
ATOM      4  C   UNL     1       2.679   7.329  18.377  0.00  0.00    +0.000 A 
ATOM      5  C   UNL     1       2.198   6.912  19.629  0.00  0.00    +0.000 A 
ATOM      6  N   UNL     1       1.420   7.766  20.383  0.00  0.00    +0.000 NA
ENDROOT
BRANCH   1  10
ATOM      7  C   UNL     1      -1.499  11.386  22.406  0.00  0.00    +0.000 A 
ATOM      8  C   UNL     1      -0.840  10.282  22.947  0.00  0.00    +0.000 A 
ATOM      9  C   UNL     1       0.017   9.509  22.154  0.00  0.00    +0.000 A 
ATOM     10  C   UNL     1       0.241   9.818  20.799  0.00  0.00    +0.000 A 
ATOM     11  C   UNL     1      -0.433  10.928  20.270  0.00  0.00    +0.000 A 
ATOM     12  C   UNL     1      -1.292  11.701  21.062  0.00  0.00    +0.000 A 
BRANCH   7  14
ATOM     13  C   UNL     1      -2.025  14.010  23.080  0.00  0.00    +0.000 C 
ATOM     14  S   UNL     1      -2.607  12.329  23.437  0.00  0.00    +0.000 S 
ENDBRANCH   7  14
ENDBRANCH   1  10
BRANCH   5  15
ATOM     15  N   UNL     1       2.447   5.684  20.189  0.00  0.00    +0.000 N 
ATOM     16  C   UNL     1       1.421   4.867  20.828  0.00  0.00    +0.000 C 
ATOM     17  C   UNL     1       1.390   3.480  20.243  0.00  0.00    +0.000 C 
ATOM     18  C   UNL     1       2.782   2.852  20.240  0.00  0.00    +0.000 C 
ATOM     19  C   UNL     1       3.836   3.760  19.612  0.00  0.00    +0.000 C 
ATOM     20  C   UNL     1       3.812   5.172  20.180  0.00  0.00    +0.000 C 
BRANCH  18  21
ATOM     21  O   UNL     1       3.172   2.480  21.567  0.00  0.00    +0.000 OA
ATOM     22  H   UNL     1       2.381   2.299  22.103  0.00  0.00    +0.000 HD
ENDBRANCH  18  21
ENDBRANCH   5  15
BRANCH   4  23
ATOM     23  C   UNL     1       3.348   6.415  17.409  0.00  0.00    +0.000 C 
ATOM     24  O   UNL     1       2.857   5.316  17.171  0.00  0.00    +0.000 OA
ATOM     25  N   UNL     1       4.532   6.813  16.850  0.00  0.00    +0.000 N 
ATOM     26  H   UNL     1       4.907   7.734  17.066  0.00  0.00    +0.000 HD
BRANCH  25  27
ATOM     27  C   UNL     1       5.161   6.074  15.756  0.00  0.00    +0.000 C 
BRANCH  27  28
ATOM     28  C   UNL     1       6.565   5.602  16.120  0.00  0.00    +0.000 C 
ATOM     29  C   UNL     1       6.543   4.380  17.030  0.00  0.00    +0.000 C 
ATOM     30  C   UNL     1       7.789   4.566  17.849  0.00  0.00    +0.000 C 
ATOM     31  C   UNL     1       7.832   6.067  18.026  0.00  0.00    +0.000 C 
ATOM     32  O   UNL     1       7.283   6.639  16.830  0.00  0.00    +0.000 OA
ENDBRANCH  27  28
ENDBRANCH  25  27
ENDBRANCH   4  23
TORSDOF 7
ENDMDL
MODEL 9
REMARK VINA RESULT:      -6.9      4.258      9.731
REMARK  Name = 
REMARK  8 active torsions:
REMARK  status: ('A' for Active; 'I' for Inactive)
REMARK    1  A    between atoms: C_1  and  S_2
REMARK    2  A    between atoms: S_2  and  C_3
REMARK    3  A    between atoms: C_6  and  C_7
REMARK    4  A    between atoms: C_10  and  C_11
REMARK    5  A    between atoms: N_13  and  C_14
REMARK    6  A    between atoms: C_14  and  C_15
REMARK    7  A    between atoms: C_20  and  N_21
REMARK    8  A    between atoms: C_24  and  O_25
REMARK                            x       y       z     vdW  Elec       q    Type
REMARK                         _______ _______ _______ _____ _____    ______ ____
ROOT
ATOM      1  C   UNL     1       2.001   8.319  18.782  0.00  0.00    +0.000 A 
ATOM      2  C   UNL     1       2.980   8.647  17.847  0.00  0.00    +0.000 A 
ATOM      3  C   UNL     1       3.772   7.644  17.336  0.00  0.00    +0.000 A 
ATOM      4  C   UNL     1       3.606   6.315  17.756  0.00  0.00    +0.000 A 
ATOM      5  C   UNL     1       2.677   6.049  18.775  0.00  0.00    +0.000 A 
ATOM      6  N   UNL     1       1.867   7.062  19.245  0.00  0.00    +0.000 NA
ENDROOT
BRANCH   1  10
ATOM      7  C   UNL     1      -0.839  11.243  20.225  0.00  0.00    +0.000 A 
ATOM      8  C   UNL     1      -0.098  10.477  21.125  0.00  0.00    +0.000 A 
ATOM      9  C   UNL     1       0.816   9.523  20.659  0.00  0.00    +0.000 A 
ATOM     10  C   UNL     1       1.016   9.309  19.282  0.00  0.00    +0.000 A 
ATOM     11  C   UNL     1       0.258  10.085  18.392  0.00  0.00    +0.000 A 
ATOM     12  C   UNL     1      -0.657  11.038  18.856  0.00  0.00    +0.000 A 
BRANCH   7  14
ATOM     13  C   UNL     1      -1.092  13.073  22.275  0.00  0.00    +0.000 C 
ATOM     14  S   UNL     1      -2.016  12.426  20.854  0.00  0.00    +0.000 S 
ENDBRANCH   7  14
ENDBRANCH   1  10
BRANCH   5  15
ATOM     15  N   UNL     1       2.499   4.824  19.367  0.00  0.00    +0.000 N 
ATOM     16  C   UNL     1       3.318   4.336  20.471  0.00  0.00    +0.000 C 
ATOM     17  C   UNL     1       2.462   3.904  21.632  0.00  0.00    +0.000 C 
ATOM     18  C   UNL     1       1.371   2.935  21.182  0.00  0.00    +0.000 C 
ATOM     19  C   UNL     1       0.573   3.459  19.991  0.00  0.00    +0.000 C 
ATOM     20  C   UNL     1       1.460   3.941  18.852  0.00  0.00    +0.000 C 
BRANCH  18  21
ATOM     21  O   UNL     1       1.928   1.651  20.882  0.00  0.00    +0.000 OA
ATOM     22  H   UNL     1       1.834   1.466  19.932  0.00  0.00    +0.000 HD
ENDBRANCH  18  21
ENDBRANCH   5  15
BRANCH   4  23
ATOM     23  C   UNL     1       4.373   5.252  17.047  0.00  0.00    +0.000 C 
ATOM     24  O   UNL     1       3.822   4.194  16.759  0.00  0.00    +0.000 OA
ATOM     25  N   UNL     1       5.698   5.472  16.785  0.00  0.00    +0.000 N 
ATOM     26  H   UNL     1       6.120   6.364  17.033  0.00  0.00    +0.000 HD
BRANCH  25  27
ATOM     27  C   UNL     1       6.480   4.575  15.934  0.00  0.00    +0.000 C 
BRANCH  27  28
ATOM     28  C   UNL     1       6.287   4.882  14.452  0.00  0.00    +0.000 C 
ATOM     29  C   UNL     1       6.116   3.616  13.621  0.00  0.00    +0.000 C 
ATOM     30  C   UNL     1       6.718   4.015  12.302  0.00  0.00    +0.000 C 
ATOM     31  C   UNL     1       7.865   4.902  12.731  0.00  0.00    +0.000 C 
ATOM     32  O   UNL     1       7.439   5.578  13.922  0.00  0.00    +0.000 OA
ENDBRANCH  27  28
ENDBRANCH  25  27
ENDBRANCH   4  23
TORSDOF 7
ENDMDL
