MODEL 1
REMARK VINA RESULT:      -8.6      0.000      0.000
REMARK  Name = 
REMARK  8 active torsions:
REMARK  status: ('A' for Active; 'I' for Inactive)
REMARK    1  A    between atoms: C_2  and  C_3
REMARK    2  A    between atoms: C_3  and  O_4
REMARK    3  A    between atoms: O_4  and  C_5
REMARK    4  A    between atoms: C_8  and  C_9
REMARK    5  A    between atoms: C_9  and  C_11
REMARK    6  A    between atoms: C_12  and  C_13
REMARK    7  A    between atoms: C_17  and  N_18
REMARK    8  A    between atoms: N_24  and  C_25
REMARK                            x       y       z     vdW  Elec       q    Type
REMARK                         _______ _______ _______ _____ _____    ______ ____
ROOT
ATOM      1  C   UNL     1       2.429   6.264  19.498  0.00  0.00    +0.000 A 
ATOM      2  C   UNL     1       1.813   6.778  20.642  0.00  0.00    +0.000 A 
ATOM      3  C   UNL     1       1.297   8.075  20.645  0.00  0.00    +0.000 A 
ATOM      4  C   UNL     1       1.418   8.891  19.517  0.00  0.00    +0.000 A 
ATOM      5  C   UNL     1       2.082   8.399  18.386  0.00  0.00    +0.000 A 
ATOM      6  C   UNL     1       2.589   7.091  18.383  0.00  0.00    +0.000 A 
ENDROOT
BRANCH   4   7
ATOM      7  C   UNL     1       0.853  10.264  19.612  0.00  0.00    +0.000 C 
ATOM      8  O   UNL     1       1.186  11.003  20.533  0.00  0.00    +0.000 OA
BRANCH   7   9
ATOM      9  C   UNL     1      -0.170  10.675  18.616  0.00  0.00    +0.000 C 
ATOM     10  C   UNL     1      -1.470  10.447  18.861  0.00  0.00    +0.000 C 
BRANCH  10  11
ATOM     11  C   UNL     1      -2.537  10.749  17.894  0.00  0.00    +0.000 A 
ATOM     12  C   UNL     1      -3.656  11.485  18.307  0.00  0.00    +0.000 A 
ATOM     13  C   UNL     1      -4.696  11.763  17.414  0.00  0.00    +0.000 A 
ATOM     14  C   UNL     1      -4.634  11.299  16.100  0.00  0.00    +0.000 A 
ATOM     15  C   UNL     1      -3.531  10.549  15.690  0.00  0.00    +0.000 A 
ATOM     16  C   UNL     1      -2.491  10.260  16.585  0.00  0.00    +0.000 A 
BRANCH  15  17
ATOM     17  N   UNL     1      -3.444  10.053  14.314  0.00  0.00    +0.000 N 
ATOM     18  O   UNL     1      -2.311   9.891  13.832  0.00  0.00    +0.000 OA
ATOM     19  O   UNL     1      -4.501   9.825  13.716  0.00  0.00    +0.000 OA
ENDBRANCH  15  17
ENDBRANCH  10  11
ENDBRANCH   7   9
ENDBRANCH   4   7
BRANCH   1  20
ATOM     20  O   UNL     1       2.895   4.978  19.374  0.00  0.00    +0.000 OA
BRANCH  20  21
ATOM     21  C   UNL     1       2.582   4.365  18.124  0.00  0.00    +0.000 C 
BRANCH  21  23
ATOM     22  O   UNL     1       3.907   2.479  17.422  0.00  0.00    +0.000 OA
ATOM     23  C   UNL     1       3.758   3.701  17.417  0.00  0.00    +0.000 C 
ATOM     24  N   UNL     1       4.596   4.540  16.732  0.00  0.00    +0.000 N 
ATOM     25  H   UNL     1       4.413   5.541  16.759  0.00  0.00    +0.000 HD
BRANCH  24  26
ATOM     26  C   UNL     1       5.680   4.020  15.914  0.00  0.00    +0.000 C 
ATOM     27  C   UNL     1       5.552   4.437  14.464  0.00  0.00    +0.000 C 
ATOM     28  C   UNL     1       6.957   4.789  14.056  0.00  0.00    +0.000 C 
ATOM     29  O   UNL     1       7.661   5.132  15.246  0.00  0.00    +0.000 OA
ATOM     30  C   UNL     1       7.018   4.603  16.325  0.00  0.00    +0.000 C 
ATOM     31  O   UNL     1       7.455   4.644  17.465  0.00  0.00    +0.000 OA
ENDBRANCH  24  26
ENDBRANCH  21  23
ENDBRANCH  20  21
ENDBRANCH   1  20
TORSDOF 8
ENDMDL
MODEL 2
REMARK VINA RESULT:      -8.5      0.733      1.294
REMARK  Name = 
REMARK  8 active torsions:
REMARK  status: ('A' for Active; 'I' for Inactive)
REMARK    1  A    between atoms: C_2  and  C_3
REMARK    2  A    between atoms: C_3  and  O_4
REMARK    3  A    between atoms: O_4  and  C_5
REMARK    4  A    between atoms: C_8  and  C_9
REMARK    5  A    between atoms: C_9  and  C_11
REMARK    6  A    between atoms: C_12  and  C_13
REMARK    7  A    between atoms: C_17  and  N_18
REMARK    8  A    between atoms: N_24  and  C_25
REMARK                            x       y       z     vdW  Elec       q    Type
REMARK                         _______ _______ _______ _____ _____    ______ ____
ROOT
ATOM      1  C   UNL     1       2.108   6.692  19.625  0.00  0.00    +0.000 A 
ATOM      2  C   UNL     1       2.258   7.497  18.493  0.00  0.00    +0.000 A 
ATOM      3  C   UNL     1       1.879   8.840  18.526  0.00  0.00    +0.000 A 
ATOM      4  C   UNL     1       1.314   9.392  19.679  0.00  0.00    +0.000 A 
ATOM      5  C   UNL     1       1.113   8.575  20.799  0.00  0.00    +0.000 A 
ATOM      6  C   UNL     1       1.505   7.229  20.766  0.00  0.00    +0.000 A 
ENDROOT
BRANCH   4   7
ATOM      7  C   UNL     1       0.926  10.827  19.621  0.00  0.00    +0.000 C 
ATOM      8  O   UNL     1       1.476  11.643  20.353  0.00  0.00    +0.000 OA
BRANCH   7   9
ATOM      9  C   UNL     1      -0.187  11.219  18.717  0.00  0.00    +0.000 C 
ATOM     10  C   UNL     1      -1.293  10.460  18.651  0.00  0.00    +0.000 C 
BRANCH  10  11
ATOM     11  C   UNL     1      -2.403  10.732  17.726  0.00  0.00    +0.000 A 
ATOM     12  C   UNL     1      -3.519  11.450  18.177  0.00  0.00    +0.000 A 
ATOM     13  C   UNL     1      -4.599  11.700  17.324  0.00  0.00    +0.000 A 
ATOM     14  C   UNL     1      -4.580  11.228  16.013  0.00  0.00    +0.000 A 
ATOM     15  C   UNL     1      -3.479  10.496  15.565  0.00  0.00    +0.000 A 
ATOM     16  C   UNL     1      -2.399  10.235  16.419  0.00  0.00    +0.000 A 
BRANCH  15  17
ATOM     17  N   UNL     1      -3.437   9.991  14.189  0.00  0.00    +0.000 N 
ATOM     18  O   UNL     1      -4.521   9.782  13.621  0.00  0.00    +0.000 OA
ATOM     19  O   UNL     1      -2.328   9.801  13.679  0.00  0.00    +0.000 OA
ENDBRANCH  15  17
ENDBRANCH  10  11
ENDBRANCH   7   9
ENDBRANCH   4   7
BRANCH   1  20
ATOM     20  O   UNL     1       2.523   5.385  19.715  0.00  0.00    +0.000 OA
BRANCH  20  21
ATOM     21  C   UNL     1       3.940   5.226  19.728  0.00  0.00    +0.000 C 
BRANCH  21  23
ATOM     22  O   UNL     1       4.157   3.175  18.483  0.00  0.00    +0.000 OA
ATOM     23  C   UNL     1       4.503   4.348  18.615  0.00  0.00    +0.000 C 
ATOM     24  N   UNL     1       5.363   4.963  17.745  0.00  0.00    +0.000 N 
ATOM     25  H   UNL     1       5.602   5.939  17.904  0.00  0.00    +0.000 HD
BRANCH  24  26
ATOM     26  C   UNL     1       5.870   4.271  16.571  0.00  0.00    +0.000 C 
ATOM     27  C   UNL     1       5.339   4.868  15.284  0.00  0.00    +0.000 C 
ATOM     28  C   UNL     1       6.530   4.880  14.365  0.00  0.00    +0.000 C 
ATOM     29  O   UNL     1       7.691   4.888  15.190  0.00  0.00    +0.000 OA
ATOM     30  C   UNL     1       7.371   4.430  16.433  0.00  0.00    +0.000 C 
ATOM     31  O   UNL     1       8.191   4.225  17.315  0.00  0.00    +0.000 OA
ENDBRANCH  24  26
ENDBRANCH  21  23
ENDBRANCH  20  21
ENDBRANCH   1  20
TORSDOF 8
ENDMDL
MODEL 3
REMARK VINA RESULT:      -8.2      2.427      3.002
REMARK  Name = 
REMARK  8 active torsions:
REMARK  status: ('A' for Active; 'I' for Inactive)
REMARK    1  A    between atoms: C_2  and  C_3
REMARK    2  A    between atoms: C_3  and  O_4
REMARK    3  A    between atoms: O_4  and  C_5
REMARK    4  A    between atoms: C_8  and  C_9
REMARK    5  A    between atoms: C_9  and  C_11
REMARK    6  A    between atoms: C_12  and  C_13
REMARK    7  A    between atoms: C_17  and  N_18
REMARK    8  A    between atoms: N_24  and  C_25
REMARK                            x       y       z     vdW  Elec       q    Type
REMARK                         _______ _______ _______ _____ _____    ______ ____
ROOT
ATOM      1  C   UNL     1       2.511   6.714  19.364  0.00  0.00    +0.000 A 
ATOM      2  C   UNL     1       2.608   7.385  18.143  0.00  0.00    +0.000 A 
ATOM      3  C   UNL     1       2.093   8.675  18.002  0.00  0.00    +0.000 A 
ATOM      4  C   UNL     1       1.444   9.302  19.070  0.00  0.00    +0.000 A 
ATOM      5  C   UNL     1       1.298   8.612  20.280  0.00  0.00    +0.000 A 
ATOM      6  C   UNL     1       1.827   7.320  20.421  0.00  0.00    +0.000 A 
ENDROOT
BRANCH   4   7
ATOM      7  C   UNL     1       0.912  10.670  18.828  0.00  0.00    +0.000 C 
ATOM      8  O   UNL     1       1.674  11.578  18.509  0.00  0.00    +0.000 OA
BRANCH   7   9
ATOM      9  C   UNL     1      -0.536  10.914  19.058  0.00  0.00    +0.000 C 
ATOM     10  C   UNL     1      -1.364  11.055  18.010  0.00  0.00    +0.000 C 
BRANCH  10  11
ATOM     11  C   UNL     1      -2.792  11.378  18.151  0.00  0.00    +0.000 A 
ATOM     12  C   UNL     1      -3.653  11.192  17.060  0.00  0.00    +0.000 A 
ATOM     13  C   UNL     1      -5.010  11.515  17.160  0.00  0.00    +0.000 A 
ATOM     14  C   UNL     1      -5.521  12.038  18.347  0.00  0.00    +0.000 A 
ATOM     15  C   UNL     1      -4.663  12.243  19.429  0.00  0.00    +0.000 A 
ATOM     16  C   UNL     1      -3.301  11.929  19.331  0.00  0.00    +0.000 A 
BRANCH  15  17
ATOM     17  N   UNL     1      -5.178  12.790  20.688  0.00  0.00    +0.000 N 
ATOM     18  O   UNL     1      -6.040  13.680  20.617  0.00  0.00    +0.000 OA
ATOM     19  O   UNL     1      -4.724  12.334  21.743  0.00  0.00    +0.000 OA
ENDBRANCH  15  17
ENDBRANCH  10  11
ENDBRANCH   7   9
ENDBRANCH   4   7
BRANCH   1  20
ATOM     20  O   UNL     1       3.056   5.479  19.622  0.00  0.00    +0.000 OA
BRANCH  20  21
ATOM     21  C   UNL     1       2.557   4.438  18.785  0.00  0.00    +0.000 C 
BRANCH  21  23
ATOM     22  O   UNL     1       3.481   2.561  17.589  0.00  0.00    +0.000 OA
ATOM     23  C   UNL     1       3.608   3.736  17.931  0.00  0.00    +0.000 C 
ATOM     24  N   UNL     1       4.661   4.510  17.522  0.00  0.00    +0.000 N 
ATOM     25  H   UNL     1       4.703   5.479  17.830  0.00  0.00    +0.000 HD
BRANCH  24  26
ATOM     26  C   UNL     1       5.663   3.995  16.602  0.00  0.00    +0.000 C 
ATOM     27  C   UNL     1       5.460   4.508  15.192  0.00  0.00    +0.000 C 
ATOM     28  C   UNL     1       6.850   4.822  14.710  0.00  0.00    +0.000 C 
ATOM     29  O   UNL     1       7.647   5.057  15.867  0.00  0.00    +0.000 OA
ATOM     30  C   UNL     1       7.051   4.490  16.954  0.00  0.00    +0.000 C 
ATOM     31  O   UNL     1       7.564   4.440  18.062  0.00  0.00    +0.000 OA
ENDBRANCH  24  26
ENDBRANCH  21  23
ENDBRANCH  20  21
ENDBRANCH   1  20
TORSDOF 8
ENDMDL
MODEL 4
REMARK VINA RESULT:      -8.1      2.385      2.657
REMARK  Name = 
REMARK  8 active torsions:
REMARK  status: ('A' for Active; 'I' for Inactive)
REMARK    1  A    between atoms: C_2  and  C_3
REMARK    2  A    between atoms: C_3  and  O_4
REMARK    3  A    between atoms: O_4  and  C_5
REMARK    4  A    between atoms: C_8  and  C_9
REMARK    5  A    between atoms: C_9  and  C_11
REMARK    6  A    between atoms: C_12  and  C_13
REMARK    7  A    between atoms: C_17  and  N_18
REMARK    8  A    between atoms: N_24  and  C_25
REMARK                            x       y       z     vdW  Elec       q    Type
REMARK                         _______ _______ _______ _____ _____    ______ ____
ROOT
ATOM      1  C   UNL     1       2.331   7.221  18.962  0.00  0.00    +0.000 A 
ATOM      2  C   UNL     1       1.807   7.688  20.169  0.00  0.00    +0.000 A 
ATOM      3  C   UNL     1       1.321   8.993  20.271  0.00  0.00    +0.000 A 
ATOM      4  C   UNL     1       1.381   9.861  19.177  0.00  0.00    +0.000 A 
ATOM      5  C   UNL     1       1.954   9.413  17.980  0.00  0.00    +0.000 A 
ATOM      6  C   UNL     1       2.431   8.098  17.879  0.00  0.00    +0.000 A 
ENDROOT
BRANCH   4   7
ATOM      7  C   UNL     1       0.854  11.239  19.378  0.00  0.00    +0.000 C 
ATOM      8  O   UNL     1       1.430  12.012  20.136  0.00  0.00    +0.000 OA
BRANCH   7   9
ATOM      9  C   UNL     1      -0.415  11.612  18.702  0.00  0.00    +0.000 C 
ATOM     10  C   UNL     1      -1.514  10.861  18.883  0.00  0.00    +0.000 C 
BRANCH  10  11
ATOM     11  C   UNL     1      -2.785  11.114  18.188  0.00  0.00    +0.000 A 
ATOM     12  C   UNL     1      -2.907  10.790  16.829  0.00  0.00    +0.000 A 
ATOM     13  C   UNL     1      -4.096  11.044  16.139  0.00  0.00    +0.000 A 
ATOM     14  C   UNL     1      -5.175  11.634  16.796  0.00  0.00    +0.000 A 
ATOM     15  C   UNL     1      -5.052  11.977  18.143  0.00  0.00    +0.000 A 
ATOM     16  C   UNL     1      -3.858  11.733  18.836  0.00  0.00    +0.000 A 
BRANCH  15  17
ATOM     17  N   UNL     1      -6.173  12.597  18.854  0.00  0.00    +0.000 N 
ATOM     18  O   UNL     1      -7.312  12.159  18.625  0.00  0.00    +0.000 OA
ATOM     19  O   UNL     1      -5.920  13.518  19.638  0.00  0.00    +0.000 OA
ENDBRANCH  15  17
ENDBRANCH  10  11
ENDBRANCH   7   9
ENDBRANCH   4   7
BRANCH   1  20
ATOM     20  O   UNL     1       2.758   5.933  18.743  0.00  0.00    +0.000 OA
BRANCH  20  21
ATOM     21  C   UNL     1       3.777   5.498  19.641  0.00  0.00    +0.000 C 
BRANCH  21  23
ATOM     22  O   UNL     1       6.058   4.720  19.644  0.00  0.00    +0.000 OA
ATOM     23  C   UNL     1       5.084   5.073  18.980  0.00  0.00    +0.000 C 
ATOM     24  N   UNL     1       5.082   5.051  17.611  0.00  0.00    +0.000 N 
ATOM     25  H   UNL     1       4.241   5.345  17.119  0.00  0.00    +0.000 HD
BRANCH  24  26
ATOM     26  C   UNL     1       6.222   4.544  16.864  0.00  0.00    +0.000 C 
ATOM     27  C   UNL     1       5.809   3.923  15.546  0.00  0.00    +0.000 C 
ATOM     28  C   UNL     1       6.851   4.400  14.571  0.00  0.00    +0.000 C 
ATOM     29  O   UNL     1       7.394   5.606  15.101  0.00  0.00    +0.000 OA
ATOM     30  C   UNL     1       7.154   5.663  16.442  0.00  0.00    +0.000 C 
ATOM     31  O   UNL     1       7.600   6.531  17.176  0.00  0.00    +0.000 OA
ENDBRANCH  24  26
ENDBRANCH  21  23
ENDBRANCH  20  21
ENDBRANCH   1  20
TORSDOF 8
ENDMDL
MODEL 5
REMARK VINA RESULT:      -8.0      3.830     10.892
REMARK  Name = 
REMARK  8 active torsions:
REMARK  status: ('A' for Active; 'I' for Inactive)
REMARK    1  A    between atoms: C_2  and  C_3
REMARK    2  A    between atoms: C_3  and  O_4
REMARK    3  A    between atoms: O_4  and  C_5
REMARK    4  A    between atoms: C_8  and  C_9
REMARK    5  A    between atoms: C_9  and  C_11
REMARK    6  A    between atoms: C_12  and  C_13
REMARK    7  A    between atoms: C_17  and  N_18
REMARK    8  A    between atoms: N_24  and  C_25
REMARK                            x       y       z     vdW  Elec       q    Type
REMARK                         _______ _______ _______ _____ _____    ______ ____
ROOT
ATOM      1  C   UNL     1      -0.531  10.266  21.809  0.00  0.00    +0.000 A 
ATOM      2  C   UNL     1       0.427   9.251  21.740  0.00  0.00    +0.000 A 
ATOM      3  C   UNL     1       1.163   9.052  20.572  0.00  0.00    +0.000 A 
ATOM      4  C   UNL     1       0.933   9.842  19.442  0.00  0.00    +0.000 A 
ATOM      5  C   UNL     1      -0.063  10.826  19.489  0.00  0.00    +0.000 A 
ATOM      6  C   UNL     1      -0.794  11.030  20.669  0.00  0.00    +0.000 A 
ENDROOT
BRANCH   4   7
ATOM      7  C   UNL     1       1.753   9.551  18.235  0.00  0.00    +0.000 C 
ATOM      8  O   UNL     1       2.015  10.448  17.440  0.00  0.00    +0.000 OA
BRANCH   7   9
ATOM      9  C   UNL     1       2.170   8.146  17.989  0.00  0.00    +0.000 C 
ATOM     10  C   UNL     1       3.464   7.862  17.770  0.00  0.00    +0.000 C 
BRANCH  10  11
ATOM     11  C   UNL     1       3.948   6.514  17.439  0.00  0.00    +0.000 A 
ATOM     12  C   UNL     1       3.171   5.398  17.781  0.00  0.00    +0.000 A 
ATOM     13  C   UNL     1       3.620   4.103  17.501  0.00  0.00    +0.000 A 
ATOM     14  C   UNL     1       4.855   3.908  16.885  0.00  0.00    +0.000 A 
ATOM     15  C   UNL     1       5.641   5.015  16.560  0.00  0.00    +0.000 A 
ATOM     16  C   UNL     1       5.199   6.314  16.848  0.00  0.00    +0.000 A 
BRANCH  15  17
ATOM     17  N   UNL     1       6.942   4.834  15.911  0.00  0.00    +0.000 N 
ATOM     18  O   UNL     1       7.058   5.226  14.739  0.00  0.00    +0.000 OA
ATOM     19  O   UNL     1       7.844   4.303  16.567  0.00  0.00    +0.000 OA
ENDBRANCH  15  17
ENDBRANCH  10  11
ENDBRANCH   7   9
ENDBRANCH   4   7
BRANCH   1  20
ATOM     20  O   UNL     1      -1.247  10.589  22.936  0.00  0.00    +0.000 OA
BRANCH  20  21
ATOM     21  C   UNL     1      -1.620  11.963  23.013  0.00  0.00    +0.000 C 
BRANCH  21  23
ATOM     22  O   UNL     1      -3.674  11.847  24.267  0.00  0.00    +0.000 OA
ATOM     23  C   UNL     1      -3.107  12.218  23.241  0.00  0.00    +0.000 C 
ATOM     24  N   UNL     1      -3.748  12.933  22.265  0.00  0.00    +0.000 N 
ATOM     25  H   UNL     1      -3.220  13.220  21.444  0.00  0.00    +0.000 HD
BRANCH  24  26
ATOM     26  C   UNL     1      -5.132  13.349  22.421  0.00  0.00    +0.000 C 
ATOM     27  C   UNL     1      -5.298  14.846  22.266  0.00  0.00    +0.000 C 
ATOM     28  C   UNL     1      -6.556  14.995  21.452  0.00  0.00    +0.000 C 
ATOM     29  O   UNL     1      -6.723  13.783  20.722  0.00  0.00    +0.000 OA
ATOM     30  C   UNL     1      -6.012  12.787  21.322  0.00  0.00    +0.000 C 
ATOM     31  O   UNL     1      -6.057  11.616  20.978  0.00  0.00    +0.000 OA
ENDBRANCH  24  26
ENDBRANCH  21  23
ENDBRANCH  20  21
ENDBRANCH   1  20
TORSDOF 8
ENDMDL
MODEL 6
REMARK VINA RESULT:      -8.0      2.870      3.291
REMARK  Name = 
REMARK  8 active torsions:
REMARK  status: ('A' for Active; 'I' for Inactive)
REMARK    1  A    between atoms: C_2  and  C_3
REMARK    2  A    between atoms: C_3  and  O_4
REMARK    3  A    between atoms: O_4  and  C_5
REMARK    4  A    between atoms: C_8  and  C_9
REMARK    5  A    between atoms: C_9  and  C_11
REMARK    6  A    between atoms: C_12  and  C_13
REMARK    7  A    between atoms: C_17  and  N_18
REMARK    8  A    between atoms: N_24  and  C_25
REMARK                            x       y       z     vdW  Elec       q    Type
REMARK                         _______ _______ _______ _____ _____    ______ ____
ROOT
ATOM      1  C   UNL     1       2.275   7.494  19.497  0.00  0.00    +0.000 A 
ATOM      2  C   UNL     1       1.500   8.112  20.481  0.00  0.00    +0.000 A 
ATOM      3  C   UNL     1       0.773   9.266  20.187  0.00  0.00    +0.000 A 
ATOM      4  C   UNL     1       0.834   9.841  18.915  0.00  0.00    +0.000 A 
ATOM      5  C   UNL     1       1.652   9.255  17.940  0.00  0.00    +0.000 A 
ATOM      6  C   UNL     1       2.373   8.088  18.236  0.00  0.00    +0.000 A 
ENDROOT
BRANCH   4   7
ATOM      7  C   UNL     1       0.039  11.079  18.693  0.00  0.00    +0.000 C 
ATOM      8  O   UNL     1       0.595  12.172  18.683  0.00  0.00    +0.000 OA
BRANCH   7   9
ATOM      9  C   UNL     1      -1.436  10.954  18.566  0.00  0.00    +0.000 C 
ATOM     10  C   UNL     1      -2.227  11.976  18.932  0.00  0.00    +0.000 C 
BRANCH  10  11
ATOM     11  C   UNL     1      -3.695  11.904  18.914  0.00  0.00    +0.000 A 
ATOM     12  C   UNL     1      -4.349  11.416  17.774  0.00  0.00    +0.000 A 
ATOM     13  C   UNL     1      -5.746  11.362  17.721  0.00  0.00    +0.000 A 
ATOM     14  C   UNL     1      -6.506  11.803  18.804  0.00  0.00    +0.000 A 
ATOM     15  C   UNL     1      -5.859  12.307  19.934  0.00  0.00    +0.000 A 
ATOM     16  C   UNL     1      -4.460  12.372  19.987  0.00  0.00    +0.000 A 
BRANCH  15  17
ATOM     17  N   UNL     1      -6.637  12.775  21.085  0.00  0.00    +0.000 N 
ATOM     18  O   UNL     1      -6.339  13.878  21.569  0.00  0.00    +0.000 OA
ATOM     19  O   UNL     1      -7.542  12.045  21.504  0.00  0.00    +0.000 OA
ENDBRANCH  15  17
ENDBRANCH  10  11
ENDBRANCH   7   9
ENDBRANCH   4   7
BRANCH   1  20
ATOM     20  O   UNL     1       2.960   6.315  19.668  0.00  0.00    +0.000 OA
BRANCH  20  21
ATOM     21  C   UNL     1       2.520   5.259  18.816  0.00  0.00    +0.000 C 
BRANCH  21  23
ATOM     22  O   UNL     1       3.778   3.226  18.516  0.00  0.00    +0.000 OA
ATOM     23  C   UNL     1       3.633   4.409  18.212  0.00  0.00    +0.000 C 
ATOM     24  N   UNL     1       4.414   5.027  17.272  0.00  0.00    +0.000 N 
ATOM     25  H   UNL     1       4.237   6.006  17.057  0.00  0.00    +0.000 HD
BRANCH  24  26
ATOM     26  C   UNL     1       5.427   4.292  16.532  0.00  0.00    +0.000 C 
ATOM     27  C   UNL     1       5.526   4.750  15.092  0.00  0.00    +0.000 C 
ATOM     28  C   UNL     1       7.005   4.786  14.817  0.00  0.00    +0.000 C 
ATOM     29  O   UNL     1       7.656   4.944  16.074  0.00  0.00    +0.000 OA
ATOM     30  C   UNL     1       6.817   4.555  17.075  0.00  0.00    +0.000 C 
ATOM     31  O   UNL     1       7.147   4.479  18.249  0.00  0.00    +0.000 OA
ENDBRANCH  24  26
ENDBRANCH  21  23
ENDBRANCH  20  21
ENDBRANCH   1  20
TORSDOF 8
ENDMDL
MODEL 7
REMARK VINA RESULT:      -8.0      2.355      9.759
REMARK  Name = 
REMARK  8 active torsions:
REMARK  status: ('A' for Active; 'I' for Inactive)
REMARK    1  A    between atoms: C_2  and  C_3
REMARK    2  A    between atoms: C_3  and  O_4
REMARK    3  A    between atoms: O_4  and  C_5
REMARK    4  A    between atoms: C_8  and  C_9
REMARK    5  A    between atoms: C_9  and  C_11
REMARK    6  A    between atoms: C_12  and  C_13
REMARK    7  A    between atoms: C_17  and  N_18
REMARK    8  A    between atoms: N_24  and  C_25
REMARK                            x       y       z     vdW  Elec       q    Type
REMARK                         _______ _______ _______ _____ _____    ______ ____
ROOT
ATOM      1  C   UNL     1       2.235   8.010  18.923  0.00  0.00    +0.000 A 
ATOM      2  C   UNL     1       3.040   7.959  17.782  0.00  0.00    +0.000 A 
ATOM      3  C   UNL     1       3.834   6.840  17.526  0.00  0.00    +0.000 A 
ATOM      4  C   UNL     1       3.861   5.767  18.422  0.00  0.00    +0.000 A 
ATOM      5  C   UNL     1       3.096   5.836  19.593  0.00  0.00    +0.000 A 
ATOM      6  C   UNL     1       2.291   6.958  19.841  0.00  0.00    +0.000 A 
ENDROOT
BRANCH   4   7
ATOM      7  C   UNL     1       4.746   4.622  18.077  0.00  0.00    +0.000 C 
ATOM      8  O   UNL     1       5.296   3.981  18.967  0.00  0.00    +0.000 OA
BRANCH   7   9
ATOM      9  C   UNL     1       4.999   4.334  16.642  0.00  0.00    +0.000 C 
ATOM     10  C   UNL     1       6.168   4.689  16.085  0.00  0.00    +0.000 C 
BRANCH  10  11
ATOM     11  C   UNL     1       6.466   4.515  14.655  0.00  0.00    +0.000 A 
ATOM     12  C   UNL     1       7.523   5.231  14.077  0.00  0.00    +0.000 A 
ATOM     13  C   UNL     1       7.811   5.103  12.714  0.00  0.00    +0.000 A 
ATOM     14  C   UNL     1       7.038   4.265  11.911  0.00  0.00    +0.000 A 
ATOM     15  C   UNL     1       5.972   3.565  12.479  0.00  0.00    +0.000 A 
ATOM     16  C   UNL     1       5.675   3.698  13.842  0.00  0.00    +0.000 A 
BRANCH  15  17
ATOM     17  N   UNL     1       5.147   2.677  11.654  0.00  0.00    +0.000 N 
ATOM     18  O   UNL     1       5.607   1.558  11.379  0.00  0.00    +0.000 OA
ATOM     19  O   UNL     1       4.046   3.095  11.282  0.00  0.00    +0.000 OA
ENDBRANCH  15  17
ENDBRANCH  10  11
ENDBRANCH   7   9
ENDBRANCH   4   7
BRANCH   1  20
ATOM     20  O   UNL     1       1.364   9.030  19.219  0.00  0.00    +0.000 OA
BRANCH  20  21
ATOM     21  C   UNL     1       0.840   9.697  18.073  0.00  0.00    +0.000 C 
BRANCH  21  23
ATOM     22  O   UNL     1      -1.362   9.980  19.011  0.00  0.00    +0.000 OA
ATOM     23  C   UNL     1      -0.683   9.770  18.007  0.00  0.00    +0.000 C 
ATOM     24  N   UNL     1      -1.234   9.649  16.759  0.00  0.00    +0.000 N 
ATOM     25  H   UNL     1      -0.617   9.487  15.967  0.00  0.00    +0.000 HD
BRANCH  24  26
ATOM     26  C   UNL     1      -2.661   9.827  16.546  0.00  0.00    +0.000 C 
ATOM     27  C   UNL     1      -3.246  10.887  17.455  0.00  0.00    +0.000 C 
ATOM     28  C   UNL     1      -4.192  11.652  16.568  0.00  0.00    +0.000 C 
ATOM     29  O   UNL     1      -3.743  11.471  15.229  0.00  0.00    +0.000 OA
ATOM     30  C   UNL     1      -2.956  10.360  15.158  0.00  0.00    +0.000 C 
ATOM     31  O   UNL     1      -2.521   9.900  14.113  0.00  0.00    +0.000 OA
ENDBRANCH  24  26
ENDBRANCH  21  23
ENDBRANCH  20  21
ENDBRANCH   1  20
TORSDOF 8
ENDMDL
MODEL 8
REMARK VINA RESULT:      -8.0      2.162      2.723
REMARK  Name = 
REMARK  8 active torsions:
REMARK  status: ('A' for Active; 'I' for Inactive)
REMARK    1  A    between atoms: C_2  and  C_3
REMARK    2  A    between atoms: C_3  and  O_4
REMARK    3  A    between atoms: O_4  and  C_5
REMARK    4  A    between atoms: C_8  and  C_9
REMARK    5  A    between atoms: C_9  and  C_11
REMARK    6  A    between atoms: C_12  and  C_13
REMARK    7  A    between atoms: C_17  and  N_18
REMARK    8  A    between atoms: N_24  and  C_25
REMARK                            x       y       z     vdW  Elec       q    Type
REMARK                         _______ _______ _______ _____ _____    ______ ____
ROOT
ATOM      1  C   UNL     1       3.386   6.705  18.273  0.00  0.00    +0.000 A 
ATOM      2  C   UNL     1       2.763   6.583  19.517  0.00  0.00    +0.000 A 
ATOM      3  C   UNL     1       1.886   7.571  19.968  0.00  0.00    +0.000 A 
ATOM      4  C   UNL     1       1.643   8.712  19.197  0.00  0.00    +0.000 A 
ATOM      5  C   UNL     1       2.306   8.863  17.972  0.00  0.00    +0.000 A 
ATOM      6  C   UNL     1       3.178   7.862  17.518  0.00  0.00    +0.000 A 
ENDROOT
BRANCH   4   7
ATOM      7  C   UNL     1       0.706   9.721  19.761  0.00  0.00    +0.000 C 
ATOM      8  O   UNL     1       0.720   9.969  20.962  0.00  0.00    +0.000 OA
BRANCH   7   9
ATOM      9  C   UNL     1      -0.284  10.349  18.848  0.00  0.00    +0.000 C 
ATOM     10  C   UNL     1      -1.519   9.833  18.744  0.00  0.00    +0.000 C 
BRANCH  10  11
ATOM     11  C   UNL     1      -2.529  10.344  17.805  0.00  0.00    +0.000 A 
ATOM     12  C   UNL     1      -2.269  10.317  16.428  0.00  0.00    +0.000 A 
ATOM     13  C   UNL     1      -3.203  10.821  15.516  0.00  0.00    +0.000 A 
ATOM     14  C   UNL     1      -4.403  11.366  15.971  0.00  0.00    +0.000 A 
ATOM     15  C   UNL     1      -4.658  11.411  17.342  0.00  0.00    +0.000 A 
ATOM     16  C   UNL     1      -3.721  10.917  18.260  0.00  0.00    +0.000 A 
BRANCH  15  17
ATOM     17  N   UNL     1      -5.913  11.979  17.843  0.00  0.00    +0.000 N 
ATOM     18  O   UNL     1      -6.868  11.203  18.008  0.00  0.00    +0.000 OA
ATOM     19  O   UNL     1      -5.947  13.192  18.070  0.00  0.00    +0.000 OA
ENDBRANCH  15  17
ENDBRANCH  10  11
ENDBRANCH   7   9
ENDBRANCH   4   7
BRANCH   1  20
ATOM     20  O   UNL     1       4.200   5.751  17.711  0.00  0.00    +0.000 OA
BRANCH  20  21
ATOM     21  C   UNL     1       5.534   6.195  17.468  0.00  0.00    +0.000 C 
BRANCH  21  23
ATOM     22  O   UNL     1       7.258   4.552  17.099  0.00  0.00    +0.000 OA
ATOM     23  C   UNL     1       6.380   5.261  16.609  0.00  0.00    +0.000 C 
ATOM     24  N   UNL     1       6.059   5.219  15.278  0.00  0.00    +0.000 N 
ATOM     25  H   UNL     1       5.315   5.823  14.936  0.00  0.00    +0.000 HD
BRANCH  24  26
ATOM     26  C   UNL     1       6.705   4.278  14.377  0.00  0.00    +0.000 C 
ATOM     27  C   UNL     1       5.714   3.596  13.458  0.00  0.00    +0.000 C 
ATOM     28  C   UNL     1       6.406   3.572  12.121  0.00  0.00    +0.000 C 
ATOM     29  O   UNL     1       7.358   4.631  12.128  0.00  0.00    +0.000 OA
ATOM     30  C   UNL     1       7.642   4.981  13.415  0.00  0.00    +0.000 C 
ATOM     31  O   UNL     1       8.507   5.786  13.726  0.00  0.00    +0.000 OA
ENDBRANCH  24  26
ENDBRANCH  21  23
ENDBRANCH  20  21
ENDBRANCH   1  20
TORSDOF 8
ENDMDL
MODEL 9
REMARK VINA RESULT:      -7.9      3.847      5.342
REMARK  Name = 
REMARK  8 active torsions:
REMARK  status: ('A' for Active; 'I' for Inactive)
REMARK    1  A    between atoms: C_2  and  C_3
REMARK    2  A    between atoms: C_3  and  O_4
REMARK    3  A    between atoms: O_4  and  C_5
REMARK    4  A    between atoms: C_8  and  C_9
REMARK    5  A    between atoms: C_9  and  C_11
REMARK    6  A    between atoms: C_12  and  C_13
REMARK    7  A    between atoms: C_17  and  N_18
REMARK    8  A    between atoms: N_24  and  C_25
REMARK                            x       y       z     vdW  Elec       q    Type
REMARK                         _______ _______ _______ _____ _____    ______ ____
ROOT
ATOM      1  C   UNL     1       2.316   7.534  19.211  0.00  0.00    +0.000 A 
ATOM      2  C   UNL     1       1.680   8.009  20.361  0.00  0.00    +0.000 A 
ATOM      3  C   UNL     1       0.877   9.149  20.304  0.00  0.00    +0.000 A 
ATOM      4  C   UNL     1       0.721   9.852  19.106  0.00  0.00    +0.000 A 
ATOM      5  C   UNL     1       1.399   9.409  17.962  0.00  0.00    +0.000 A 
ATOM      6  C   UNL     1       2.197   8.256  18.020  0.00  0.00    +0.000 A 
ENDROOT
BRANCH   4   7
ATOM      7  C   UNL     1      -0.141  11.064  19.139  0.00  0.00    +0.000 C 
ATOM      8  O   UNL     1      -1.328  10.965  19.432  0.00  0.00    +0.000 OA
BRANCH   7   9
ATOM      9  C   UNL     1       0.456  12.364  18.737  0.00  0.00    +0.000 C 
ATOM     10  C   UNL     1       1.714  12.662  19.099  0.00  0.00    +0.000 C 
BRANCH  10  11
ATOM     11  C   UNL     1       2.350  13.956  18.812  0.00  0.00    +0.000 A 
ATOM     12  C   UNL     1       1.553  15.100  18.667  0.00  0.00    +0.000 A 
ATOM     13  C   UNL     1       2.131  16.339  18.368  0.00  0.00    +0.000 A 
ATOM     14  C   UNL     1       3.511  16.446  18.201  0.00  0.00    +0.000 A 
ATOM     15  C   UNL     1       4.306  15.306  18.326  0.00  0.00    +0.000 A 
ATOM     16  C   UNL     1       3.730  14.061  18.615  0.00  0.00    +0.000 A 
BRANCH  15  17
ATOM     17  N   UNL     1       5.759  15.395  18.156  0.00  0.00    +0.000 N 
ATOM     18  O   UNL     1       6.333  14.438  17.612  0.00  0.00    +0.000 OA
ATOM     19  O   UNL     1       6.325  16.416  18.563  0.00  0.00    +0.000 OA
ENDBRANCH  15  17
ENDBRANCH  10  11
ENDBRANCH   7   9
ENDBRANCH   4   7
BRANCH   1  20
ATOM     20  O   UNL     1       3.059   6.380  19.150  0.00  0.00    +0.000 OA
BRANCH  20  21
ATOM     21  C   UNL     1       2.444   5.332  18.403  0.00  0.00    +0.000 C 
BRANCH  21  23
ATOM     22  O   UNL     1       3.117   3.254  17.386  0.00  0.00    +0.000 OA
ATOM     23  C   UNL     1       3.411   4.417  17.658  0.00  0.00    +0.000 C 
ATOM     24  N   UNL     1       4.590   4.988  17.262  0.00  0.00    +0.000 N 
ATOM     25  H   UNL     1       4.770   5.959  17.509  0.00  0.00    +0.000 HD
BRANCH  24  26
ATOM     26  C   UNL     1       5.541   4.260  16.436  0.00  0.00    +0.000 C 
ATOM     27  C   UNL     1       5.537   4.743  15.001  0.00  0.00    +0.000 C 
ATOM     28  C   UNL     1       6.992   4.776  14.619  0.00  0.00    +0.000 C 
ATOM     29  O   UNL     1       7.735   4.908  15.828  0.00  0.00    +0.000 OA
ATOM     30  C   UNL     1       6.969   4.506  16.881  0.00  0.00    +0.000 C 
ATOM     31  O   UNL     1       7.384   4.408  18.025  0.00  0.00    +0.000 OA
ENDBRANCH  24  26
ENDBRANCH  21  23
ENDBRANCH  20  21
ENDBRANCH   1  20
TORSDOF 8
ENDMDL
