MODEL 1
REMARK VINA RESULT:      -8.4      0.000      0.000
REMARK  Name = 
REMARK  7 active torsions:
REMARK  status: ('A' for Active; 'I' for Inactive)
REMARK    1  A    between atoms: C_1  and  C_2
REMARK    2  A    between atoms: C_4  and  C_5
REMARK    3  A    between atoms: C_7  and  N_8
REMARK    4  A    between atoms: N_10  and  C_11
REMARK    5  A    between atoms: N_18  and  S_19
REMARK    6  A    between atoms: S_19  and  C_22
REMARK    7  A    between atoms: C_22  and  C_23
REMARK                            x       y       z     vdW  Elec       q    Type
REMARK                         _______ _______ _______ _____ _____    ______ ____
ROOT
ATOM      1  N   UNL     1       3.016   7.472  17.652  0.00  0.00    +0.000 NA
ATOM      2  C   UNL     1       3.827   6.525  17.934  0.00  0.00    +0.000 C 
ATOM      3  N   UNL     1       3.922   5.621  18.950  0.00  0.00    +0.000 N 
ATOM      4  N   UNL     1       4.879   6.475  16.978  0.00  0.00    +0.000 N 
ATOM      5  H   UNL     1       4.833   5.161  19.024  0.00  0.00    +0.000 HD
ATOM      6  H   UNL     1       4.797   7.293  16.386  0.00  0.00    +0.000 HD
ENDROOT
BRANCH   1  13
ATOM      7  C   UNL     1      -0.283  10.684  17.810  0.00  0.00    +0.000 C 
ATOM      8  C   UNL     1       0.481   9.654  18.581  0.00  0.00    +0.000 A 
ATOM      9  C   UNL     1       0.489   9.637  19.958  0.00  0.00    +0.000 A 
ATOM     10  C   UNL     1       1.358   8.739  20.555  0.00  0.00    +0.000 A 
ATOM     11  C   UNL     1       1.423   8.655  22.053  0.00  0.00    +0.000 C 
ATOM     12  N   UNL     1       2.166   7.927  19.838  0.00  0.00    +0.000 NA
ATOM     13  C   UNL     1       2.050   7.987  18.503  0.00  0.00    +0.000 A 
ATOM     14  N   UNL     1       1.213   8.796  17.849  0.00  0.00    +0.000 NA
ENDBRANCH   1  13
BRANCH   3  15
ATOM     15  C   UNL     1       2.936   4.717  19.427  0.00  0.00    +0.000 A 
ATOM     16  C   UNL     1       2.399   4.769  20.721  0.00  0.00    +0.000 A 
ATOM     17  C   UNL     1       1.375   3.891  21.106  0.00  0.00    +0.000 A 
ATOM     18  C   UNL     1       0.890   2.935  20.216  0.00  0.00    +0.000 A 
ATOM     19  C   UNL     1       1.452   2.824  18.950  0.00  0.00    +0.000 A 
ATOM     20  C   UNL     1       2.475   3.697  18.567  0.00  0.00    +0.000 A 
ATOM     21 BR   UNL     1       3.225   3.460  16.833  0.00  0.00    +0.000 Br
ENDBRANCH   3  15
BRANCH   4  22
ATOM     22  S   UNL     1       6.477   6.089  17.316  0.00  0.00    +0.000 S 
ATOM     23  O   UNL     1       7.281   6.970  16.500  0.00  0.00    +0.000 OA
ATOM     24  O   UNL     1       6.588   6.082  18.764  0.00  0.00    +0.000 OA
BRANCH  22  25
ATOM     25  C   UNL     1       6.640   4.401  16.688  0.00  0.00    +0.000 C 
BRANCH  25  26
ATOM     26  C   UNL     1       6.716   4.443  15.177  0.00  0.00    +0.000 A 
ATOM     27  C   UNL     1       5.813   3.700  14.400  0.00  0.00    +0.000 A 
ATOM     28  C   UNL     1       5.903   3.696  13.007  0.00  0.00    +0.000 A 
ATOM     29  C   UNL     1       6.894   4.436  12.369  0.00  0.00    +0.000 A 
ATOM     30  C   UNL     1       7.790   5.189  13.123  0.00  0.00    +0.000 A 
ATOM     31  C   UNL     1       7.704   5.194  14.519  0.00  0.00    +0.000 A 
ENDBRANCH  25  26
ENDBRANCH  22  25
ENDBRANCH   4  22
TORSDOF 5
ENDMDL
MODEL 2
REMARK VINA RESULT:      -7.9      6.931     10.215
REMARK  Name = 
REMARK  7 active torsions:
REMARK  status: ('A' for Active; 'I' for Inactive)
REMARK    1  A    between atoms: C_1  and  C_2
REMARK    2  A    between atoms: C_4  and  C_5
REMARK    3  A    between atoms: C_7  and  N_8
REMARK    4  A    between atoms: N_10  and  C_11
REMARK    5  A    between atoms: N_18  and  S_19
REMARK    6  A    between atoms: S_19  and  C_22
REMARK    7  A    between atoms: C_22  and  C_23
REMARK                            x       y       z     vdW  Elec       q    Type
REMARK                         _______ _______ _______ _____ _____    ______ ____
ROOT
ATOM      1  N   UNL     1      -1.221  13.290  19.396  0.00  0.00    +0.000 NA
ATOM      2  C   UNL     1      -1.535  12.096  19.067  0.00  0.00    +0.000 C 
ATOM      3  N   UNL     1      -0.876  10.902  19.066  0.00  0.00    +0.000 N 
ATOM      4  N   UNL     1      -2.854  12.060  18.536  0.00  0.00    +0.000 N 
ATOM      5  H   UNL     1      -1.320  10.174  18.500  0.00  0.00    +0.000 HD
ATOM      6  H   UNL     1      -3.168  13.017  18.425  0.00  0.00    +0.000 HD
ENDROOT
BRANCH   1  13
ATOM      7  C   UNL     1       1.055  16.071  22.279  0.00  0.00    +0.000 C 
ATOM      8  C   UNL     1       1.149  15.200  21.067  0.00  0.00    +0.000 A 
ATOM      9  C   UNL     1       2.214  15.279  20.196  0.00  0.00    +0.000 A 
ATOM     10  C   UNL     1       2.109  14.539  19.031  0.00  0.00    +0.000 A 
ATOM     11  C   UNL     1       3.231  14.567  18.032  0.00  0.00    +0.000 C 
ATOM     12  N   UNL     1       1.024  13.786  18.745  0.00  0.00    +0.000 NA
ATOM     13  C   UNL     1       0.060  13.739  19.677  0.00  0.00    +0.000 A 
ATOM     14  N   UNL     1       0.099  14.391  20.843  0.00  0.00    +0.000 NA
ENDBRANCH   1  13
BRANCH   3  15
ATOM     15  C   UNL     1      -0.192  10.267  20.136  0.00  0.00    +0.000 A 
ATOM     16  C   UNL     1      -0.523  10.454  21.486  0.00  0.00    +0.000 A 
ATOM     17  C   UNL     1       0.145   9.741  22.492  0.00  0.00    +0.000 A 
ATOM     18  C   UNL     1       1.167   8.849  22.169  0.00  0.00    +0.000 A 
ATOM     19  C   UNL     1       1.553   8.696  20.842  0.00  0.00    +0.000 A 
ATOM     20  C   UNL     1       0.889   9.410  19.841  0.00  0.00    +0.000 A 
ATOM     21 BR   UNL     1       1.499   9.180  18.051  0.00  0.00    +0.000 Br
ENDBRANCH   3  15
BRANCH   4  22
ATOM     22  S   UNL     1      -3.367  11.071  17.282  0.00  0.00    +0.000 S 
ATOM     23  O   UNL     1      -2.500  11.363  16.164  0.00  0.00    +0.000 OA
ATOM     24  O   UNL     1      -3.463   9.734  17.841  0.00  0.00    +0.000 OA
BRANCH  22  25
ATOM     25  C   UNL     1      -5.026  11.692  16.912  0.00  0.00    +0.000 C 
BRANCH  25  26
ATOM     26  C   UNL     1      -5.843  11.699  18.186  0.00  0.00    +0.000 A 
ATOM     27  C   UNL     1      -6.017  12.887  18.912  0.00  0.00    +0.000 A 
ATOM     28  C   UNL     1      -6.729  12.895  20.113  0.00  0.00    +0.000 A 
ATOM     29  C   UNL     1      -7.282  11.715  20.605  0.00  0.00    +0.000 A 
ATOM     30  C   UNL     1      -7.130  10.530  19.891  0.00  0.00    +0.000 A 
ATOM     31  C   UNL     1      -6.415  10.518  18.690  0.00  0.00    +0.000 A 
ENDBRANCH  25  26
ENDBRANCH  22  25
ENDBRANCH   4  22
TORSDOF 5
ENDMDL
MODEL 3
REMARK VINA RESULT:      -7.9      1.142      1.263
REMARK  Name = 
REMARK  7 active torsions:
REMARK  status: ('A' for Active; 'I' for Inactive)
REMARK    1  A    between atoms: C_1  and  C_2
REMARK    2  A    between atoms: C_4  and  C_5
REMARK    3  A    between atoms: C_7  and  N_8
REMARK    4  A    between atoms: N_10  and  C_11
REMARK    5  A    between atoms: N_18  and  S_19
REMARK    6  A    between atoms: S_19  and  C_22
REMARK    7  A    between atoms: C_22  and  C_23
REMARK                            x       y       z     vdW  Elec       q    Type
REMARK                         _______ _______ _______ _____ _____    ______ ____
ROOT
ATOM      1  N   UNL     1       3.528   7.608  17.334  0.00  0.00    +0.000 NA
ATOM      2  C   UNL     1       4.239   6.557  17.484  0.00  0.00    +0.000 C 
ATOM      3  N   UNL     1       4.141   5.441  18.261  0.00  0.00    +0.000 N 
ATOM      4  N   UNL     1       5.413   6.637  16.685  0.00  0.00    +0.000 N 
ATOM      5  H   UNL     1       5.007   4.901  18.338  0.00  0.00    +0.000 HD
ATOM      6  H   UNL     1       5.460   7.573  16.298  0.00  0.00    +0.000 HD
ENDROOT
BRANCH   1  13
ATOM      7  C   UNL     1       0.628  11.119  18.032  0.00  0.00    +0.000 C 
ATOM      8  C   UNL     1       1.113   9.796  18.533  0.00  0.00    +0.000 A 
ATOM      9  C   UNL     1       0.856   9.366  19.817  0.00  0.00    +0.000 A 
ATOM     10  C   UNL     1       1.492   8.202  20.213  0.00  0.00    +0.000 A 
ATOM     11  C   UNL     1       1.260   7.664  21.596  0.00  0.00    +0.000 C 
ATOM     12  N   UNL     1       2.330   7.521  19.399  0.00  0.00    +0.000 NA
ATOM     13  C   UNL     1       2.479   7.995  18.154  0.00  0.00    +0.000 A 
ATOM     14  N   UNL     1       1.874   9.089  17.680  0.00  0.00    +0.000 NA
ENDBRANCH   1  13
BRANCH   3  15
ATOM     15  C   UNL     1       3.051   4.538  18.380  0.00  0.00    +0.000 A 
ATOM     16  C   UNL     1       1.796   4.757  17.795  0.00  0.00    +0.000 A 
ATOM     17  C   UNL     1       0.783   3.792  17.890  0.00  0.00    +0.000 A 
ATOM     18  C   UNL     1       0.999   2.606  18.590  0.00  0.00    +0.000 A 
ATOM     19  C   UNL     1       2.215   2.396  19.231  0.00  0.00    +0.000 A 
ATOM     20  C   UNL     1       3.222   3.360  19.139  0.00  0.00    +0.000 A 
ATOM     21 BR   UNL     1       4.846   3.023  20.076  0.00  0.00    +0.000 Br
ENDBRANCH   3  15
BRANCH   4  22
ATOM     22  S   UNL     1       6.924   6.052  17.121  0.00  0.00    +0.000 S 
ATOM     23  O   UNL     1       7.884   6.828  16.370  0.00  0.00    +0.000 OA
ATOM     24  O   UNL     1       6.937   6.024  18.573  0.00  0.00    +0.000 OA
BRANCH  22  25
ATOM     25  C   UNL     1       6.915   4.358  16.484  0.00  0.00    +0.000 C 
BRANCH  25  26
ATOM     26  C   UNL     1       6.865   4.403  14.972  0.00  0.00    +0.000 A 
ATOM     27  C   UNL     1       5.893   3.669  14.273  0.00  0.00    +0.000 A 
ATOM     28  C   UNL     1       5.867   3.666  12.876  0.00  0.00    +0.000 A 
ATOM     29  C   UNL     1       6.809   4.398  12.158  0.00  0.00    +0.000 A 
ATOM     30  C   UNL     1       7.771   5.140  12.836  0.00  0.00    +0.000 A 
ATOM     31  C   UNL     1       7.802   5.145  14.234  0.00  0.00    +0.000 A 
ENDBRANCH  25  26
ENDBRANCH  22  25
ENDBRANCH   4  22
TORSDOF 5
ENDMDL
MODEL 4
REMARK VINA RESULT:      -7.8      1.720      2.854
REMARK  Name = 
REMARK  7 active torsions:
REMARK  status: ('A' for Active; 'I' for Inactive)
REMARK    1  A    between atoms: C_1  and  C_2
REMARK    2  A    between atoms: C_4  and  C_5
REMARK    3  A    between atoms: C_7  and  N_8
REMARK    4  A    between atoms: N_10  and  C_11
REMARK    5  A    between atoms: N_18  and  S_19
REMARK    6  A    between atoms: S_19  and  C_22
REMARK    7  A    between atoms: C_22  and  C_23
REMARK                            x       y       z     vdW  Elec       q    Type
REMARK                         _______ _______ _______ _____ _____    ______ ____
ROOT
ATOM      1  N   UNL     1       3.916   6.846  16.938  0.00  0.00    +0.000 NA
ATOM      2  C   UNL     1       4.349   5.651  16.802  0.00  0.00    +0.000 C 
ATOM      3  N   UNL     1       4.220   4.502  17.524  0.00  0.00    +0.000 N 
ATOM      4  N   UNL     1       5.193   5.558  15.660  0.00  0.00    +0.000 N 
ATOM      5  H   UNL     1       4.900   3.775  17.288  0.00  0.00    +0.000 HD
ATOM      6  H   UNL     1       5.350   6.498  15.316  0.00  0.00    +0.000 HD
ENDROOT
BRANCH   1  13
ATOM      7  C   UNL     1       2.200   5.516  21.000  0.00  0.00    +0.000 C 
ATOM      8  C   UNL     1       2.383   6.654  20.047  0.00  0.00    +0.000 A 
ATOM      9  C   UNL     1       1.644   7.812  20.146  0.00  0.00    +0.000 A 
ATOM     10  C   UNL     1       1.789   8.723  19.114  0.00  0.00    +0.000 A 
ATOM     11  C   UNL     1       1.021  10.013  19.151  0.00  0.00    +0.000 C 
ATOM     12  N   UNL     1       2.599   8.496  18.056  0.00  0.00    +0.000 NA
ATOM     13  C   UNL     1       3.311   7.360  18.074  0.00  0.00    +0.000 A 
ATOM     14  N   UNL     1       3.259   6.446  19.048  0.00  0.00    +0.000 NA
ENDBRANCH   1  13
BRANCH   3  15
ATOM     15  C   UNL     1       3.032   3.862  17.966  0.00  0.00    +0.000 A 
ATOM     16  C   UNL     1       1.758   4.160  17.462  0.00  0.00    +0.000 A 
ATOM     17  C   UNL     1       0.633   3.440  17.889  0.00  0.00    +0.000 A 
ATOM     18  C   UNL     1       0.758   2.430  18.842  0.00  0.00    +0.000 A 
ATOM     19  C   UNL     1       2.002   2.161  19.401  0.00  0.00    +0.000 A 
ATOM     20  C   UNL     1       3.122   2.881  18.977  0.00  0.00    +0.000 A 
ATOM     21 BR   UNL     1       4.786   2.486  19.817  0.00  0.00    +0.000 Br
ENDBRANCH   3  15
BRANCH   4  22
ATOM     22  S   UNL     1       6.564   4.599  15.546  0.00  0.00    +0.000 S 
ATOM     23  O   UNL     1       7.519   5.155  16.476  0.00  0.00    +0.000 OA
ATOM     24  O   UNL     1       6.102   3.226  15.660  0.00  0.00    +0.000 OA
BRANCH  22  25
ATOM     25  C   UNL     1       7.146   4.902  13.860  0.00  0.00    +0.000 C 
BRANCH  25  26
ATOM     26  C   UNL     1       6.456   3.935  12.921  0.00  0.00    +0.000 A 
ATOM     27  C   UNL     1       7.198   2.960  12.236  0.00  0.00    +0.000 A 
ATOM     28  C   UNL     1       6.579   2.094  11.332  0.00  0.00    +0.000 A 
ATOM     29  C   UNL     1       5.210   2.186  11.102  0.00  0.00    +0.000 A 
ATOM     30  C   UNL     1       4.457   3.139  11.783  0.00  0.00    +0.000 A 
ATOM     31  C   UNL     1       5.073   4.010  12.687  0.00  0.00    +0.000 A 
ENDBRANCH  25  26
ENDBRANCH  22  25
ENDBRANCH   4  22
TORSDOF 5
ENDMDL
MODEL 5
REMARK VINA RESULT:      -7.7      7.703      9.032
REMARK  Name = 
REMARK  7 active torsions:
REMARK  status: ('A' for Active; 'I' for Inactive)
REMARK    1  A    between atoms: C_1  and  C_2
REMARK    2  A    between atoms: C_4  and  C_5
REMARK    3  A    between atoms: C_7  and  N_8
REMARK    4  A    between atoms: N_10  and  C_11
REMARK    5  A    between atoms: N_18  and  S_19
REMARK    6  A    between atoms: S_19  and  C_22
REMARK    7  A    between atoms: C_22  and  C_23
REMARK                            x       y       z     vdW  Elec       q    Type
REMARK                         _______ _______ _______ _____ _____    ______ ____
ROOT
ATOM      1  N   UNL     1      -0.542  12.633  18.311  0.00  0.00    +0.000 NA
ATOM      2  C   UNL     1       0.226  12.979  19.273  0.00  0.00    +0.000 C 
ATOM      3  N   UNL     1       0.208  12.790  20.623  0.00  0.00    +0.000 N 
ATOM      4  N   UNL     1       1.294  13.785  18.788  0.00  0.00    +0.000 N 
ATOM      5  H   UNL     1       0.830  13.412  21.146  0.00  0.00    +0.000 HD
ATOM      6  H   UNL     1       1.102  13.998  17.816  0.00  0.00    +0.000 HD
ENDROOT
BRANCH   1  13
ATOM      7  C   UNL     1      -3.894  10.679  15.828  0.00  0.00    +0.000 C 
ATOM      8  C   UNL     1      -3.495  11.211  17.168  0.00  0.00    +0.000 A 
ATOM      9  C   UNL     1      -4.427  11.509  18.138  0.00  0.00    +0.000 A 
ATOM     10  C   UNL     1      -3.950  12.143  19.272  0.00  0.00    +0.000 A 
ATOM     11  C   UNL     1      -4.902  12.497  20.379  0.00  0.00    +0.000 C 
ATOM     12  N   UNL     1      -2.647  12.469  19.427  0.00  0.00    +0.000 NA
ATOM     13  C   UNL     1      -1.812  12.095  18.447  0.00  0.00    +0.000 A 
ATOM     14  N   UNL     1      -2.183  11.448  17.338  0.00  0.00    +0.000 NA
ENDBRANCH   1  13
BRANCH   3  15
ATOM     15  C   UNL     1       0.099  11.572  21.346  0.00  0.00    +0.000 A 
ATOM     16  C   UNL     1       0.823  10.415  21.026  0.00  0.00    +0.000 A 
ATOM     17  C   UNL     1       0.724   9.266  21.824  0.00  0.00    +0.000 A 
ATOM     18  C   UNL     1      -0.114   9.247  22.938  0.00  0.00    +0.000 A 
ATOM     19  C   UNL     1      -0.888  10.363  23.237  0.00  0.00    +0.000 A 
ATOM     20  C   UNL     1      -0.792  11.506  22.438  0.00  0.00    +0.000 A 
ATOM     21 BR   UNL     1      -1.911  12.982  22.884  0.00  0.00    +0.000 Br
ENDBRANCH   3  15
BRANCH   4  22
ATOM     22  S   UNL     1       1.975  15.083  19.604  0.00  0.00    +0.000 S 
ATOM     23  O   UNL     1       0.871  15.810  20.189  0.00  0.00    +0.000 OA
ATOM     24  O   UNL     1       3.038  14.527  20.422  0.00  0.00    +0.000 OA
BRANCH  22  25
ATOM     25  C   UNL     1       2.692  16.080  18.275  0.00  0.00    +0.000 C 
BRANCH  25  26
ATOM     26  C   UNL     1       4.190  15.868  18.256  0.00  0.00    +0.000 A 
ATOM     27  C   UNL     1       4.742  14.764  17.587  0.00  0.00    +0.000 A 
ATOM     28  C   UNL     1       6.120  14.533  17.602  0.00  0.00    +0.000 A 
ATOM     29  C   UNL     1       6.966  15.403  18.284  0.00  0.00    +0.000 A 
ATOM     30  C   UNL     1       6.437  16.509  18.942  0.00  0.00    +0.000 A 
ATOM     31  C   UNL     1       5.058  16.743  18.931  0.00  0.00    +0.000 A 
ENDBRANCH  25  26
ENDBRANCH  22  25
ENDBRANCH   4  22
TORSDOF 5
ENDMDL
MODEL 6
REMARK VINA RESULT:      -7.6      2.665      7.605
REMARK  Name = 
REMARK  7 active torsions:
REMARK  status: ('A' for Active; 'I' for Inactive)
REMARK    1  A    between atoms: C_1  and  C_2
REMARK    2  A    between atoms: C_4  and  C_5
REMARK    3  A    between atoms: C_7  and  N_8
REMARK    4  A    between atoms: N_10  and  C_11
REMARK    5  A    between atoms: N_18  and  S_19
REMARK    6  A    between atoms: S_19  and  C_22
REMARK    7  A    between atoms: C_22  and  C_23
REMARK                            x       y       z     vdW  Elec       q    Type
REMARK                         _______ _______ _______ _____ _____    ______ ____
ROOT
ATOM      1  N   UNL     1       4.490   6.892  17.967  0.00  0.00    +0.000 NA
ATOM      2  C   UNL     1       3.227   7.016  18.115  0.00  0.00    +0.000 C 
ATOM      3  N   UNL     1       2.158   6.193  17.918  0.00  0.00    +0.000 N 
ATOM      4  N   UNL     1       2.905   8.340  18.524  0.00  0.00    +0.000 N 
ATOM      5  H   UNL     1       1.255   6.674  17.882  0.00  0.00    +0.000 HD
ATOM      6  H   UNL     1       3.751   8.895  18.465  0.00  0.00    +0.000 HD
ENDROOT
BRANCH   1  13
ATOM      7  C   UNL     1       8.361   4.399  18.120  0.00  0.00    +0.000 C 
ATOM      8  C   UNL     1       7.103   4.686  17.364  0.00  0.00    +0.000 A 
ATOM      9  C   UNL     1       6.937   4.296  16.054  0.00  0.00    +0.000 A 
ATOM     10  C   UNL     1       5.800   4.758  15.414  0.00  0.00    +0.000 A 
ATOM     11  C   UNL     1       5.544   4.373  13.985  0.00  0.00    +0.000 C 
ATOM     12  N   UNL     1       4.900   5.560  16.027  0.00  0.00    +0.000 NA
ATOM     13  C   UNL     1       5.127   5.846  17.317  0.00  0.00    +0.000 A 
ATOM     14  N   UNL     1       6.178   5.411  18.018  0.00  0.00    +0.000 NA
ENDBRANCH   1  13
BRANCH   3  15
ATOM     15  C   UNL     1       1.938   4.887  18.431  0.00  0.00    +0.000 A 
ATOM     16  C   UNL     1       1.996   3.727  17.646  0.00  0.00    +0.000 A 
ATOM     17  C   UNL     1       1.840   2.461  18.228  0.00  0.00    +0.000 A 
ATOM     18  C   UNL     1       1.601   2.335  19.596  0.00  0.00    +0.000 A 
ATOM     19  C   UNL     1       1.477   3.475  20.381  0.00  0.00    +0.000 A 
ATOM     20  C   UNL     1       1.628   4.737  19.799  0.00  0.00    +0.000 A 
ATOM     21 BR   UNL     1       1.404   6.254  20.929  0.00  0.00    +0.000 Br
ENDBRANCH   3  15
BRANCH   4  22
ATOM     22  S   UNL     1       1.544   9.197  18.047  0.00  0.00    +0.000 S 
ATOM     23  O   UNL     1       2.031  10.431  17.474  0.00  0.00    +0.000 OA
ATOM     24  O   UNL     1       0.736   8.268  17.278  0.00  0.00    +0.000 OA
BRANCH  22  25
ATOM     25  C   UNL     1       0.715   9.568  19.612  0.00  0.00    +0.000 C 
BRANCH  25  26
ATOM     26  C   UNL     1      -0.507  10.416  19.331  0.00  0.00    +0.000 A 
ATOM     27  C   UNL     1      -0.808  11.519  20.146  0.00  0.00    +0.000 A 
ATOM     28  C   UNL     1      -1.958  12.280  19.925  0.00  0.00    +0.000 A 
ATOM     29  C   UNL     1      -2.822  11.953  18.884  0.00  0.00    +0.000 A 
ATOM     30  C   UNL     1      -2.532  10.870  18.058  0.00  0.00    +0.000 A 
ATOM     31  C   UNL     1      -1.383  10.104  18.278  0.00  0.00    +0.000 A 
ENDBRANCH  25  26
ENDBRANCH  22  25
ENDBRANCH   4  22
TORSDOF 5
ENDMDL
MODEL 7
REMARK VINA RESULT:      -7.6      9.683     12.777
REMARK  Name = 
REMARK  7 active torsions:
REMARK  status: ('A' for Active; 'I' for Inactive)
REMARK    1  A    between atoms: C_1  and  C_2
REMARK    2  A    between atoms: C_4  and  C_5
REMARK    3  A    between atoms: C_7  and  N_8
REMARK    4  A    between atoms: N_10  and  C_11
REMARK    5  A    between atoms: N_18  and  S_19
REMARK    6  A    between atoms: S_19  and  C_22
REMARK    7  A    between atoms: C_22  and  C_23
REMARK                            x       y       z     vdW  Elec       q    Type
REMARK                         _______ _______ _______ _____ _____    ______ ____
ROOT
ATOM      1  N   UNL     1       7.644  14.147  17.604  0.00  0.00    +0.000 NA
ATOM      2  C   UNL     1       7.537  15.194  18.330  0.00  0.00    +0.000 C 
ATOM      3  N   UNL     1       8.403  15.916  19.097  0.00  0.00    +0.000 N 
ATOM      4  N   UNL     1       6.186  15.638  18.359  0.00  0.00    +0.000 N 
ATOM      5  H   UNL     1       7.952  16.552  19.759  0.00  0.00    +0.000 HD
ATOM      6  H   UNL     1       5.619  14.931  17.905  0.00  0.00    +0.000 HD
ENDROOT
BRANCH   1  13
ATOM      7  C   UNL     1       9.372  10.465  19.767  0.00  0.00    +0.000 C 
ATOM      8  C   UNL     1       9.612  11.519  18.733  0.00  0.00    +0.000 A 
ATOM      9  C   UNL     1      10.875  11.795  18.256  0.00  0.00    +0.000 A 
ATOM     10  C   UNL     1      10.989  12.896  17.425  0.00  0.00    +0.000 A 
ATOM     11  C   UNL     1      12.332  13.261  16.859  0.00  0.00    +0.000 C 
ATOM     12  N   UNL     1       9.931  13.672  17.100  0.00  0.00    +0.000 NA
ATOM     13  C   UNL     1       8.736  13.293  17.578  0.00  0.00    +0.000 A 
ATOM     14  N   UNL     1       8.533  12.225  18.354  0.00  0.00    +0.000 NA
ENDBRANCH   1  13
BRANCH   3  15
ATOM     15  C   UNL     1       9.653  16.482  18.729  0.00  0.00    +0.000 A 
ATOM     16  C   UNL     1       9.806  17.411  17.690  0.00  0.00    +0.000 A 
ATOM     17  C   UNL     1      11.056  17.987  17.424  0.00  0.00    +0.000 A 
ATOM     18  C   UNL     1      12.176  17.627  18.173  0.00  0.00    +0.000 A 
ATOM     19  C   UNL     1      12.058  16.661  19.166  0.00  0.00    +0.000 A 
ATOM     20  C   UNL     1      10.812  16.085  19.428  0.00  0.00    +0.000 A 
ATOM     21 BR   UNL     1      10.735  14.739  20.774  0.00  0.00    +0.000 Br
ENDBRANCH   3  15
BRANCH   4  22
ATOM     22  S   UNL     1       5.418  16.316  19.688  0.00  0.00    +0.000 S 
ATOM     23  O   UNL     1       6.097  15.793  20.851  0.00  0.00    +0.000 OA
ATOM     24  O   UNL     1       5.350  17.743  19.425  0.00  0.00    +0.000 OA
BRANCH  22  25
ATOM     25  C   UNL     1       3.755  15.608  19.615  0.00  0.00    +0.000 C 
BRANCH  25  26
ATOM     26  C   UNL     1       2.876  16.503  18.769  0.00  0.00    +0.000 A 
ATOM     27  C   UNL     1       3.062  16.573  17.379  0.00  0.00    +0.000 A 
ATOM     28  C   UNL     1       2.288  17.431  16.595  0.00  0.00    +0.000 A 
ATOM     29  C   UNL     1       1.315  18.230  17.188  0.00  0.00    +0.000 A 
ATOM     30  C   UNL     1       1.109  18.165  18.563  0.00  0.00    +0.000 A 
ATOM     31  C   UNL     1       1.883  17.309  19.351  0.00  0.00    +0.000 A 
ENDBRANCH  25  26
ENDBRANCH  22  25
ENDBRANCH   4  22
TORSDOF 5
ENDMDL
MODEL 8
REMARK VINA RESULT:      -7.5      7.400     11.578
REMARK  Name = 
REMARK  7 active torsions:
REMARK  status: ('A' for Active; 'I' for Inactive)
REMARK    1  A    between atoms: C_1  and  C_2
REMARK    2  A    between atoms: C_4  and  C_5
REMARK    3  A    between atoms: C_7  and  N_8
REMARK    4  A    between atoms: N_10  and  C_11
REMARK    5  A    between atoms: N_18  and  S_19
REMARK    6  A    between atoms: S_19  and  C_22
REMARK    7  A    between atoms: C_22  and  C_23
REMARK                            x       y       z     vdW  Elec       q    Type
REMARK                         _______ _______ _______ _____ _____    ______ ____
ROOT
ATOM      1  N   UNL     1      -2.405  11.227  19.057  0.00  0.00    +0.000 NA
ATOM      2  C   UNL     1      -2.693  12.333  19.630  0.00  0.00    +0.000 C 
ATOM      3  N   UNL     1      -2.011  13.195  20.436  0.00  0.00    +0.000 N 
ATOM      4  N   UNL     1      -4.054  12.672  19.393  0.00  0.00    +0.000 N 
ATOM      5  H   UNL     1      -2.604  13.860  20.941  0.00  0.00    +0.000 HD
ATOM      6  H   UNL     1      -4.495  11.880  18.940  0.00  0.00    +0.000 HD
ENDROOT
BRANCH   1  13
ATOM      7  C   UNL     1       0.208   9.701  22.530  0.00  0.00    +0.000 C 
ATOM      8  C   UNL     1       0.056   9.797  21.045  0.00  0.00    +0.000 A 
ATOM      9  C   UNL     1       1.112   9.573  20.190  0.00  0.00    +0.000 A 
ATOM     10  C   UNL     1       0.888   9.848  18.852  0.00  0.00    +0.000 A 
ATOM     11  C   UNL     1       1.988   9.625  17.854  0.00  0.00    +0.000 C 
ATOM     12  N   UNL     1      -0.294  10.322  18.398  0.00  0.00    +0.000 NA
ATOM     13  C   UNL     1      -1.275  10.463  19.302  0.00  0.00    +0.000 A 
ATOM     14  N   UNL     1      -1.154  10.185  20.604  0.00  0.00    +0.000 NA
ENDBRANCH   1  13
BRANCH   3  15
ATOM     15  C   UNL     1      -0.754  13.815  20.209  0.00  0.00    +0.000 A 
ATOM     16  C   UNL     1      -0.094  13.795  18.972  0.00  0.00    +0.000 A 
ATOM     17  C   UNL     1       1.112  14.488  18.793  0.00  0.00    +0.000 A 
ATOM     18  C   UNL     1       1.689  15.190  19.851  0.00  0.00    +0.000 A 
ATOM     19  C   UNL     1       1.084  15.170  21.102  0.00  0.00    +0.000 A 
ATOM     20  C   UNL     1      -0.117  14.476  21.280  0.00  0.00    +0.000 A 
ATOM     21 BR   UNL     1      -0.867  14.459  23.031  0.00  0.00    +0.000 Br
ENDBRANCH   3  15
BRANCH   4  22
ATOM     22  S   UNL     1      -5.071  13.422  20.496  0.00  0.00    +0.000 S 
ATOM     23  O   UNL     1      -4.880  12.730  21.750  0.00  0.00    +0.000 OA
ATOM     24  O   UNL     1      -4.819  14.847  20.368  0.00  0.00    +0.000 OA
BRANCH  22  25
ATOM     25  C   UNL     1      -6.724  13.042  19.866  0.00  0.00    +0.000 C 
BRANCH  25  26
ATOM     26  C   UNL     1      -6.970  11.555  19.996  0.00  0.00    +0.000 A 
ATOM     27  C   UNL     1      -6.541  10.674  18.991  0.00  0.00    +0.000 A 
ATOM     28  C   UNL     1      -6.803   9.305  19.079  0.00  0.00    +0.000 A 
ATOM     29  C   UNL     1      -7.495   8.796  20.175  0.00  0.00    +0.000 A 
ATOM     30  C   UNL     1      -7.916   9.654  21.187  0.00  0.00    +0.000 A 
ATOM     31  C   UNL     1      -7.658  11.025  21.101  0.00  0.00    +0.000 A 
ENDBRANCH  25  26
ENDBRANCH  22  25
ENDBRANCH   4  22
TORSDOF 5
ENDMDL
MODEL 9
REMARK VINA RESULT:      -7.5      7.803     11.266
REMARK  Name = 
REMARK  7 active torsions:
REMARK  status: ('A' for Active; 'I' for Inactive)
REMARK    1  A    between atoms: C_1  and  C_2
REMARK    2  A    between atoms: C_4  and  C_5
REMARK    3  A    between atoms: C_7  and  N_8
REMARK    4  A    between atoms: N_10  and  C_11
REMARK    5  A    between atoms: N_18  and  S_19
REMARK    6  A    between atoms: S_19  and  C_22
REMARK    7  A    between atoms: C_22  and  C_23
REMARK                            x       y       z     vdW  Elec       q    Type
REMARK                         _______ _______ _______ _____ _____    ______ ____
ROOT
ATOM      1  N   UNL     1      -0.074  14.298  22.244  0.00  0.00    +0.000 NA
ATOM      2  C   UNL     1      -0.933  13.366  22.408  0.00  0.00    +0.000 C 
ATOM      3  N   UNL     1      -1.328  12.291  21.668  0.00  0.00    +0.000 N 
ATOM      4  N   UNL     1      -1.654  13.566  23.618  0.00  0.00    +0.000 N 
ATOM      5  H   UNL     1      -2.220  11.883  21.957  0.00  0.00    +0.000 HD
ATOM      6  H   UNL     1      -1.398  14.476  23.983  0.00  0.00    +0.000 HD
ENDROOT
BRANCH   1  13
ATOM      7  C   UNL     1      -0.498  16.777  18.385  0.00  0.00    +0.000 C 
ATOM      8  C   UNL     1       0.310  15.752  19.115  0.00  0.00    +0.000 A 
ATOM      9  C   UNL     1       1.230  14.956  18.468  0.00  0.00    +0.000 A 
ATOM     10  C   UNL     1       1.796  13.939  19.217  0.00  0.00    +0.000 A 
ATOM     11  C   UNL     1       2.812  13.030  18.587  0.00  0.00    +0.000 C 
ATOM     12  N   UNL     1       1.466  13.722  20.510  0.00  0.00    +0.000 NA
ATOM     13  C   UNL     1       0.595  14.579  21.063  0.00  0.00    +0.000 A 
ATOM     14  N   UNL     1       0.031  15.607  20.422  0.00  0.00    +0.000 NA
ENDBRANCH   1  13
BRANCH   3  15
ATOM     15  C   UNL     1      -0.530  11.253  21.118  0.00  0.00    +0.000 A 
ATOM     16  C   UNL     1       0.283  10.410  21.889  0.00  0.00    +0.000 A 
ATOM     17  C   UNL     1       0.991   9.357  21.293  0.00  0.00    +0.000 A 
ATOM     18  C   UNL     1       0.918   9.144  19.917  0.00  0.00    +0.000 A 
ATOM     19  C   UNL     1       0.169  10.007  19.126  0.00  0.00    +0.000 A 
ATOM     20  C   UNL     1      -0.534  11.058  19.720  0.00  0.00    +0.000 A 
ATOM     21 BR   UNL     1      -1.506  12.224  18.569  0.00  0.00    +0.000 Br
ENDBRANCH   3  15
BRANCH   4  22
ATOM     22  S   UNL     1      -3.280  13.222  23.845  0.00  0.00    +0.000 S 
ATOM     23  O   UNL     1      -3.417  11.796  23.651  0.00  0.00    +0.000 OA
ATOM     24  O   UNL     1      -3.652  13.858  25.097  0.00  0.00    +0.000 OA
BRANCH  22  25
ATOM     25  C   UNL     1      -4.084  14.078  22.469  0.00  0.00    +0.000 C 
BRANCH  25  26
ATOM     26  C   UNL     1      -5.202  13.209  21.936  0.00  0.00    +0.000 A 
ATOM     27  C   UNL     1      -5.082  12.587  20.684  0.00  0.00    +0.000 A 
ATOM     28  C   UNL     1      -6.127  11.821  20.162  0.00  0.00    +0.000 A 
ATOM     29  C   UNL     1      -7.305  11.662  20.885  0.00  0.00    +0.000 A 
ATOM     30  C   UNL     1      -7.437  12.262  22.134  0.00  0.00    +0.000 A 
ATOM     31  C   UNL     1      -6.394  13.032  22.659  0.00  0.00    +0.000 A 
ENDBRANCH  25  26
ENDBRANCH  22  25
ENDBRANCH   4  22
TORSDOF 5
ENDMDL
