MODEL 1
REMARK VINA RESULT:      -8.0      0.000      0.000
REMARK  Name = 
REMARK  3 active torsions:
REMARK  status: ('A' for Active; 'I' for Inactive)
REMARK    1  A    between atoms: C_1  and  C_2
REMARK    2  A    between atoms: C_6  and  C_7
REMARK    3  A    between atoms: C_11  and  C_12
REMARK                            x       y       z     vdW  Elec       q    Type
REMARK                         _______ _______ _______ _____ _____    ______ ____
ROOT
ATOM      1  C   UNL     1       1.646   8.994  19.235  0.00  0.00    +0.000 C 
ATOM      2  C   UNL     1       2.095   7.571  19.382  0.00  0.00    +0.000 A 
ATOM      3  C   UNL     1       1.723   6.840  20.501  0.00  0.00    +0.000 A 
ATOM      4  C   UNL     1       2.138   5.517  20.614  0.00  0.00    +0.000 A 
ATOM      5  C   UNL     1       2.922   4.918  19.606  0.00  0.00    +0.000 A 
ATOM      6  C   UNL     1       3.391   3.580  19.608  0.00  0.00    +0.000 A 
ATOM      7  C   UNL     1       3.107   2.616  20.727  0.00  0.00    +0.000 C 
ATOM      8  N   UNL     1       4.138   3.034  18.623  0.00  0.00    +0.000 NA
ATOM      9  C   UNL     1       4.412   3.877  17.620  0.00  0.00    +0.000 A 
ATOM     10  O   UNL     1       5.149   3.517  16.537  0.00  0.00    +0.000 OA
ATOM     11  C   UNL     1       5.198   4.642  15.761  0.00  0.00    +0.000 A 
ATOM     12  N   UNL     1       4.552   5.682  16.269  0.00  0.00    +0.000 NA
ATOM     13  C   UNL     1       4.037   5.200  17.468  0.00  0.00    +0.000 A 
ATOM     14  C   UNL     1       3.252   5.746  18.509  0.00  0.00    +0.000 A 
ATOM     15  N   UNL     1       2.854   7.046  18.388  0.00  0.00    +0.000 NA
ENDROOT
BRANCH  11  16
ATOM     16  C   UNL     1       5.947   4.498  14.508  0.00  0.00    +0.000 A 
ATOM     17  C   UNL     1       5.501   3.635  13.490  0.00  0.00    +0.000 A 
ATOM     18  C   UNL     1       6.207   3.502  12.291  0.00  0.00    +0.000 A 
ATOM     19  C   UNL     1       7.376   4.229  12.092  0.00  0.00    +0.000 A 
ATOM     20  C   UNL     1       7.838   5.085  13.092  0.00  0.00    +0.000 A 
ATOM     21  C   UNL     1       7.128   5.219  14.291  0.00  0.00    +0.000 A 
ENDBRANCH  11  16
TORSDOF 1
ENDMDL
MODEL 2
REMARK VINA RESULT:      -8.0      0.059      1.053
REMARK  Name = 
REMARK  3 active torsions:
REMARK  status: ('A' for Active; 'I' for Inactive)
REMARK    1  A    between atoms: C_1  and  C_2
REMARK    2  A    between atoms: C_6  and  C_7
REMARK    3  A    between atoms: C_11  and  C_12
REMARK                            x       y       z     vdW  Elec       q    Type
REMARK                         _______ _______ _______ _____ _____    ______ ____
ROOT
ATOM      1  C   UNL     1       1.694   8.985  19.213  0.00  0.00    +0.000 C 
ATOM      2  C   UNL     1       2.146   7.562  19.357  0.00  0.00    +0.000 A 
ATOM      3  C   UNL     1       1.784   6.832  20.480  0.00  0.00    +0.000 A 
ATOM      4  C   UNL     1       2.201   5.509  20.590  0.00  0.00    +0.000 A 
ATOM      5  C   UNL     1       2.977   4.911  19.576  0.00  0.00    +0.000 A 
ATOM      6  C   UNL     1       3.448   3.573  19.575  0.00  0.00    +0.000 A 
ATOM      7  C   UNL     1       3.174   2.610  20.697  0.00  0.00    +0.000 C 
ATOM      8  N   UNL     1       4.188   3.027  18.584  0.00  0.00    +0.000 NA
ATOM      9  C   UNL     1       4.453   3.870  17.579  0.00  0.00    +0.000 A 
ATOM     10  O   UNL     1       5.181   3.510  16.491  0.00  0.00    +0.000 OA
ATOM     11  C   UNL     1       5.223   4.635  15.714  0.00  0.00    +0.000 A 
ATOM     12  N   UNL     1       4.580   5.675  16.227  0.00  0.00    +0.000 NA
ATOM     13  C   UNL     1       4.075   5.193  17.430  0.00  0.00    +0.000 A 
ATOM     14  C   UNL     1       3.297   5.739  18.477  0.00  0.00    +0.000 A 
ATOM     15  N   UNL     1       2.898   7.039  18.357  0.00  0.00    +0.000 NA
ENDROOT
BRANCH  11  16
ATOM     16  C   UNL     1       5.963   4.492  14.455  0.00  0.00    +0.000 A 
ATOM     17  C   UNL     1       7.144   5.221  14.220  0.00  0.00    +0.000 A 
ATOM     18  C   UNL     1       7.857   5.081  13.025  0.00  0.00    +0.000 A 
ATOM     19  C   UNL     1       7.397   4.210  12.043  0.00  0.00    +0.000 A 
ATOM     20  C   UNL     1       6.224   3.483  12.256  0.00  0.00    +0.000 A 
ATOM     21  C   UNL     1       5.513   3.623  13.454  0.00  0.00    +0.000 A 
ENDBRANCH  11  16
TORSDOF 1
ENDMDL
MODEL 3
REMARK VINA RESULT:      -7.9      2.666      7.523
REMARK  Name = 
REMARK  3 active torsions:
REMARK  status: ('A' for Active; 'I' for Inactive)
REMARK    1  A    between atoms: C_1  and  C_2
REMARK    2  A    between atoms: C_6  and  C_7
REMARK    3  A    between atoms: C_11  and  C_12
REMARK                            x       y       z     vdW  Elec       q    Type
REMARK                         _______ _______ _______ _____ _____    ______ ____
ROOT
ATOM      1  C   UNL     1       5.271   6.058  15.615  0.00  0.00    +0.000 C 
ATOM      2  C   UNL     1       4.608   5.443  16.812  0.00  0.00    +0.000 A 
ATOM      3  C   UNL     1       4.792   4.096  17.088  0.00  0.00    +0.000 A 
ATOM      4  C   UNL     1       4.180   3.545  18.211  0.00  0.00    +0.000 A 
ATOM      5  C   UNL     1       3.388   4.342  19.063  0.00  0.00    +0.000 A 
ATOM      6  C   UNL     1       2.728   3.894  20.236  0.00  0.00    +0.000 A 
ATOM      7  C   UNL     1       2.790   2.470  20.715  0.00  0.00    +0.000 C 
ATOM      8  N   UNL     1       1.977   4.684  21.035  0.00  0.00    +0.000 NA
ATOM      9  C   UNL     1       1.899   5.955  20.622  0.00  0.00    +0.000 A 
ATOM     10  O   UNL     1       1.192   6.902  21.290  0.00  0.00    +0.000 OA
ATOM     11  C   UNL     1       1.361   8.044  20.555  0.00  0.00    +0.000 A 
ATOM     12  N   UNL     1       2.117   7.889  19.477  0.00  0.00    +0.000 NA
ATOM     13  C   UNL     1       2.473   6.545  19.511  0.00  0.00    +0.000 A 
ATOM     14  C   UNL     1       3.258   5.699  18.693  0.00  0.00    +0.000 A 
ATOM     15  N   UNL     1       3.850   6.251  17.594  0.00  0.00    +0.000 NA
ENDROOT
BRANCH  11  16
ATOM     16  C   UNL     1       0.686   9.231  21.089  0.00  0.00    +0.000 A 
ATOM     17  C   UNL     1       0.575  10.409  20.326  0.00  0.00    +0.000 A 
ATOM     18  C   UNL     1      -0.075  11.540  20.828  0.00  0.00    +0.000 A 
ATOM     19  C   UNL     1      -0.624  11.512  22.106  0.00  0.00    +0.000 A 
ATOM     20  C   UNL     1      -0.520  10.355  22.880  0.00  0.00    +0.000 A 
ATOM     21  C   UNL     1       0.130   9.223  22.375  0.00  0.00    +0.000 A 
ENDBRANCH  11  16
TORSDOF 1
ENDMDL
MODEL 4
REMARK VINA RESULT:      -7.9      2.623      7.462
REMARK  Name = 
REMARK  3 active torsions:
REMARK  status: ('A' for Active; 'I' for Inactive)
REMARK    1  A    between atoms: C_1  and  C_2
REMARK    2  A    between atoms: C_6  and  C_7
REMARK    3  A    between atoms: C_11  and  C_12
REMARK                            x       y       z     vdW  Elec       q    Type
REMARK                         _______ _______ _______ _____ _____    ______ ____
ROOT
ATOM      1  C   UNL     1       5.410   6.019  15.617  0.00  0.00    +0.000 C 
ATOM      2  C   UNL     1       4.718   5.397  16.793  0.00  0.00    +0.000 A 
ATOM      3  C   UNL     1       4.884   4.045  17.057  0.00  0.00    +0.000 A 
ATOM      4  C   UNL     1       4.245   3.487  18.160  0.00  0.00    +0.000 A 
ATOM      5  C   UNL     1       3.443   4.281  19.006  0.00  0.00    +0.000 A 
ATOM      6  C   UNL     1       2.756   3.826  20.160  0.00  0.00    +0.000 A 
ATOM      7  C   UNL     1       2.795   2.396  20.624  0.00  0.00    +0.000 C 
ATOM      8  N   UNL     1       1.996   4.614  20.954  0.00  0.00    +0.000 NA
ATOM      9  C   UNL     1       1.938   5.890  20.554  0.00  0.00    +0.000 A 
ATOM     10  O   UNL     1       1.227   6.837  21.219  0.00  0.00    +0.000 OA
ATOM     11  C   UNL     1       1.421   7.985  20.501  0.00  0.00    +0.000 A 
ATOM     12  N   UNL     1       2.197   7.836  19.436  0.00  0.00    +0.000 NA
ATOM     13  C   UNL     1       2.540   6.488  19.461  0.00  0.00    +0.000 A 
ATOM     14  C   UNL     1       3.333   5.644  18.650  0.00  0.00    +0.000 A 
ATOM     15  N   UNL     1       3.952   6.203  17.569  0.00  0.00    +0.000 NA
ENDROOT
BRANCH  11  16
ATOM     16  C   UNL     1       0.746   9.172  21.036  0.00  0.00    +0.000 A 
ATOM     17  C   UNL     1       0.174   9.165  22.322  0.00  0.00    +0.000 A 
ATOM     18  C   UNL     1      -0.463  10.296  22.839  0.00  0.00    +0.000 A 
ATOM     19  C   UNL     1      -0.541  11.456  22.075  0.00  0.00    +0.000 A 
ATOM     20  C   UNL     1       0.016  11.481  20.796  0.00  0.00    +0.000 A 
ATOM     21  C   UNL     1       0.655  10.347  20.280  0.00  0.00    +0.000 A 
ENDBRANCH  11  16
TORSDOF 1
ENDMDL
MODEL 5
REMARK VINA RESULT:      -7.5      3.234      5.735
REMARK  Name = 
REMARK  3 active torsions:
REMARK  status: ('A' for Active; 'I' for Inactive)
REMARK    1  A    between atoms: C_1  and  C_2
REMARK    2  A    between atoms: C_6  and  C_7
REMARK    3  A    between atoms: C_11  and  C_12
REMARK                            x       y       z     vdW  Elec       q    Type
REMARK                         _______ _______ _______ _____ _____    ______ ____
ROOT
ATOM      1  C   UNL     1      -0.465  13.331  18.003  0.00  0.00    +0.000 C 
ATOM      2  C   UNL     1      -0.241  12.328  19.095  0.00  0.00    +0.000 A 
ATOM      3  C   UNL     1      -0.753  12.561  20.363  0.00  0.00    +0.000 A 
ATOM      4  C   UNL     1      -0.547  11.612  21.361  0.00  0.00    +0.000 A 
ATOM      5  C   UNL     1       0.168  10.427  21.092  0.00  0.00    +0.000 A 
ATOM      6  C   UNL     1       0.429   9.390  22.023  0.00  0.00    +0.000 A 
ATOM      7  C   UNL     1      -0.032   9.441  23.453  0.00  0.00    +0.000 C 
ATOM      8  N   UNL     1       1.115   8.261  21.733  0.00  0.00    +0.000 NA
ATOM      9  C   UNL     1       1.544   8.199  20.466  0.00  0.00    +0.000 A 
ATOM     10  O   UNL     1       2.251   7.146  19.981  0.00  0.00    +0.000 OA
ATOM     11  C   UNL     1       2.494   7.464  18.673  0.00  0.00    +0.000 A 
ATOM     12  N   UNL     1       1.997   8.634  18.297  0.00  0.00    +0.000 NA
ATOM     13  C   UNL     1       1.379   9.117  19.445  0.00  0.00    +0.000 A 
ATOM     14  C   UNL     1       0.653  10.286  19.772  0.00  0.00    +0.000 A 
ATOM     15  N   UNL     1       0.461  11.209  18.785  0.00  0.00    +0.000 NA
ENDROOT
BRANCH  11  16
ATOM     16  C   UNL     1       3.251   6.458  17.921  0.00  0.00    +0.000 A 
ATOM     17  C   UNL     1       4.371   6.820  17.148  0.00  0.00    +0.000 A 
ATOM     18  C   UNL     1       5.101   5.864  16.436  0.00  0.00    +0.000 A 
ATOM     19  C   UNL     1       4.720   4.526  16.483  0.00  0.00    +0.000 A 
ATOM     20  C   UNL     1       3.609   4.149  17.239  0.00  0.00    +0.000 A 
ATOM     21  C   UNL     1       2.880   5.109  17.953  0.00  0.00    +0.000 A 
ENDBRANCH  11  16
TORSDOF 1
ENDMDL
MODEL 6
REMARK VINA RESULT:      -7.5      3.213      5.620
REMARK  Name = 
REMARK  3 active torsions:
REMARK  status: ('A' for Active; 'I' for Inactive)
REMARK    1  A    between atoms: C_1  and  C_2
REMARK    2  A    between atoms: C_6  and  C_7
REMARK    3  A    between atoms: C_11  and  C_12
REMARK                            x       y       z     vdW  Elec       q    Type
REMARK                         _______ _______ _______ _____ _____    ______ ____
ROOT
ATOM      1  C   UNL     1      -0.538  13.245  17.942  0.00  0.00    +0.000 C 
ATOM      2  C   UNL     1      -0.284  12.260  19.044  0.00  0.00    +0.000 A 
ATOM      3  C   UNL     1      -0.784  12.502  20.316  0.00  0.00    +0.000 A 
ATOM      4  C   UNL     1      -0.550  11.571  21.323  0.00  0.00    +0.000 A 
ATOM      5  C   UNL     1       0.180  10.393  21.061  0.00  0.00    +0.000 A 
ATOM      6  C   UNL     1       0.470   9.373  22.002  0.00  0.00    +0.000 A 
ATOM      7  C   UNL     1       0.027   9.436  23.438  0.00  0.00    +0.000 C 
ATOM      8  N   UNL     1       1.170   8.252  21.718  0.00  0.00    +0.000 NA
ATOM      9  C   UNL     1       1.584   8.179  20.447  0.00  0.00    +0.000 A 
ATOM     10  O   UNL     1       2.301   7.130  19.967  0.00  0.00    +0.000 OA
ATOM     11  C   UNL     1       2.522   7.435  18.652  0.00  0.00    +0.000 A 
ATOM     12  N   UNL     1       2.002   8.592  18.267  0.00  0.00    +0.000 NA
ATOM     13  C   UNL     1       1.391   9.081  19.416  0.00  0.00    +0.000 A 
ATOM     14  C   UNL     1       0.651  10.242  19.737  0.00  0.00    +0.000 A 
ATOM     15  N   UNL     1       0.431  11.149  18.741  0.00  0.00    +0.000 NA
ENDROOT
BRANCH  11  16
ATOM     16  C   UNL     1       3.285   6.431  17.903  0.00  0.00    +0.000 A 
ATOM     17  C   UNL     1       2.902   5.076  17.907  0.00  0.00    +0.000 A 
ATOM     18  C   UNL     1       3.622   4.117  17.188  0.00  0.00    +0.000 A 
ATOM     19  C   UNL     1       4.741   4.498  16.454  0.00  0.00    +0.000 A 
ATOM     20  C   UNL     1       5.139   5.835  16.443  0.00  0.00    +0.000 A 
ATOM     21  C   UNL     1       4.416   6.795  17.162  0.00  0.00    +0.000 A 
ENDBRANCH  11  16
TORSDOF 1
ENDMDL
MODEL 7
REMARK VINA RESULT:      -7.4      3.350      8.240
REMARK  Name = 
REMARK  3 active torsions:
REMARK  status: ('A' for Active; 'I' for Inactive)
REMARK    1  A    between atoms: C_1  and  C_2
REMARK    2  A    between atoms: C_6  and  C_7
REMARK    3  A    between atoms: C_11  and  C_12
REMARK                            x       y       z     vdW  Elec       q    Type
REMARK                         _______ _______ _______ _____ _____    ______ ____
ROOT
ATOM      1  C   UNL     1       2.436   2.497  21.608  0.00  0.00    +0.000 C 
ATOM      2  C   UNL     1       2.773   3.584  20.631  0.00  0.00    +0.000 A 
ATOM      3  C   UNL     1       3.636   3.323  19.577  0.00  0.00    +0.000 A 
ATOM      4  C   UNL     1       3.927   4.340  18.672  0.00  0.00    +0.000 A 
ATOM      5  C   UNL     1       3.352   5.619  18.817  0.00  0.00    +0.000 A 
ATOM      6  C   UNL     1       3.566   6.724  17.954  0.00  0.00    +0.000 A 
ATOM      7  C   UNL     1       4.469   6.660  16.753  0.00  0.00    +0.000 C 
ATOM      8  N   UNL     1       2.996   7.939  18.118  0.00  0.00    +0.000 NA
ATOM      9  C   UNL     1       2.195   8.022  19.187  0.00  0.00    +0.000 A 
ATOM     10  O   UNL     1       1.532   9.159  19.522  0.00  0.00    +0.000 OA
ATOM     11  C   UNL     1       0.839   8.835  20.656  0.00  0.00    +0.000 A 
ATOM     12  N   UNL     1       1.015   7.586  21.063  0.00  0.00    +0.000 NA
ATOM     13  C   UNL     1       1.887   7.049  20.121  0.00  0.00    +0.000 A 
ATOM     14  C   UNL     1       2.491   5.786  19.925  0.00  0.00    +0.000 A 
ATOM     15  N   UNL     1       2.200   4.798  20.821  0.00  0.00    +0.000 NA
ENDROOT
BRANCH  11  16
ATOM     16  C   UNL     1       0.023   9.918  21.215  0.00  0.00    +0.000 A 
ATOM     17  C   UNL     1      -0.444   9.865  22.542  0.00  0.00    +0.000 A 
ATOM     18  C   UNL     1      -1.214  10.900  23.081  0.00  0.00    +0.000 A 
ATOM     19  C   UNL     1      -1.533  12.006  22.300  0.00  0.00    +0.000 A 
ATOM     20  C   UNL     1      -1.083  12.073  20.980  0.00  0.00    +0.000 A 
ATOM     21  C   UNL     1      -0.310  11.037  20.442  0.00  0.00    +0.000 A 
ENDBRANCH  11  16
TORSDOF 1
ENDMDL
MODEL 8
REMARK VINA RESULT:      -7.4      3.287      8.198
REMARK  Name = 
REMARK  3 active torsions:
REMARK  status: ('A' for Active; 'I' for Inactive)
REMARK    1  A    between atoms: C_1  and  C_2
REMARK    2  A    between atoms: C_6  and  C_7
REMARK    3  A    between atoms: C_11  and  C_12
REMARK                            x       y       z     vdW  Elec       q    Type
REMARK                         _______ _______ _______ _____ _____    ______ ____
ROOT
ATOM      1  C   UNL     1       2.186   2.323  21.696  0.00  0.00    +0.000 C 
ATOM      2  C   UNL     1       2.567   3.384  20.706  0.00  0.00    +0.000 A 
ATOM      3  C   UNL     1       3.389   3.065  19.634  0.00  0.00    +0.000 A 
ATOM      4  C   UNL     1       3.722   4.059  18.719  0.00  0.00    +0.000 A 
ATOM      5  C   UNL     1       3.231   5.372  18.869  0.00  0.00    +0.000 A 
ATOM      6  C   UNL     1       3.494   6.458  17.996  0.00  0.00    +0.000 A 
ATOM      7  C   UNL     1       4.364   6.334  16.776  0.00  0.00    +0.000 C 
ATOM      8  N   UNL     1       3.004   7.707  18.166  0.00  0.00    +0.000 NA
ATOM      9  C   UNL     1       2.235   7.844  19.253  0.00  0.00    +0.000 A 
ATOM     10  O   UNL     1       1.650   9.021  19.596  0.00  0.00    +0.000 OA
ATOM     11  C   UNL     1       0.964   8.745  20.747  0.00  0.00    +0.000 A 
ATOM     12  N   UNL     1       1.071   7.488  21.156  0.00  0.00    +0.000 NA
ATOM     13  C   UNL     1       1.887   6.895  20.198  0.00  0.00    +0.000 A 
ATOM     14  C   UNL     1       2.407   5.596  19.995  0.00  0.00    +0.000 A 
ATOM     15  N   UNL     1       2.075   4.632  20.903  0.00  0.00    +0.000 NA
ENDROOT
BRANCH  11  16
ATOM     16  C   UNL     1       0.230   9.879  21.318  0.00  0.00    +0.000 A 
ATOM     17  C   UNL     1       0.186  11.122  20.657  0.00  0.00    +0.000 A 
ATOM     18  C   UNL     1      -0.520  12.203  21.193  0.00  0.00    +0.000 A 
ATOM     19  C   UNL     1      -1.190  12.060  22.404  0.00  0.00    +0.000 A 
ATOM     20  C   UNL     1      -1.153  10.838  23.076  0.00  0.00    +0.000 A 
ATOM     21  C   UNL     1      -0.448   9.755  22.536  0.00  0.00    +0.000 A 
ENDBRANCH  11  16
TORSDOF 1
ENDMDL
MODEL 9
REMARK VINA RESULT:      -7.4      2.562      6.954
REMARK  Name = 
REMARK  3 active torsions:
REMARK  status: ('A' for Active; 'I' for Inactive)
REMARK    1  A    between atoms: C_1  and  C_2
REMARK    2  A    between atoms: C_6  and  C_7
REMARK    3  A    between atoms: C_11  and  C_12
REMARK                            x       y       z     vdW  Elec       q    Type
REMARK                         _______ _______ _______ _____ _____    ______ ____
ROOT
ATOM      1  C   UNL     1       2.131   3.029  21.541  0.00  0.00    +0.000 C 
ATOM      2  C   UNL     1       2.812   3.715  20.393  0.00  0.00    +0.000 A 
ATOM      3  C   UNL     1       3.789   3.046  19.670  0.00  0.00    +0.000 A 
ATOM      4  C   UNL     1       4.401   3.692  18.600  0.00  0.00    +0.000 A 
ATOM      5  C   UNL     1       4.033   5.007  18.247  0.00  0.00    +0.000 A 
ATOM      6  C   UNL     1       4.578   5.757  17.174  0.00  0.00    +0.000 A 
ATOM      7  C   UNL     1       5.652   5.225  16.266  0.00  0.00    +0.000 C 
ATOM      8  N   UNL     1       4.201   7.017  16.857  0.00  0.00    +0.000 NA
ATOM      9  C   UNL     1       3.252   7.515  17.659  0.00  0.00    +0.000 A 
ATOM     10  O   UNL     1       2.741   8.764  17.504  0.00  0.00    +0.000 OA
ATOM     11  C   UNL     1       1.816   8.887  18.505  0.00  0.00    +0.000 A 
ATOM     12  N   UNL     1       1.705   7.816  19.278  0.00  0.00    +0.000 NA
ATOM     13  C   UNL     1       2.625   6.922  18.740  0.00  0.00    +0.000 A 
ATOM     14  C   UNL     1       3.033   5.603  19.047  0.00  0.00    +0.000 A 
ATOM     15  N   UNL     1       2.427   4.982  20.101  0.00  0.00    +0.000 NA
ENDROOT
BRANCH  11  16
ATOM     16  C   UNL     1       1.110  10.172  18.541  0.00  0.00    +0.000 A 
ATOM     17  C   UNL     1       1.817  11.390  18.527  0.00  0.00    +0.000 A 
ATOM     18  C   UNL     1       1.148  12.617  18.553  0.00  0.00    +0.000 A 
ATOM     19  C   UNL     1      -0.242  12.647  18.598  0.00  0.00    +0.000 A 
ATOM     20  C   UNL     1      -0.960  11.450  18.619  0.00  0.00    +0.000 A 
ATOM     21  C   UNL     1      -0.288  10.222  18.590  0.00  0.00    +0.000 A 
ENDBRANCH  11  16
TORSDOF 1
ENDMDL
