MODEL 1
REMARK VINA RESULT:      -9.5      0.000      0.000
REMARK  Name = 
REMARK  8 active torsions:
REMARK  status: ('A' for Active; 'I' for Inactive)
REMARK    1  A    between atoms: C_2  and  C_7
REMARK    2  A    between atoms: N_3  and  C_4
REMARK    3  A    between atoms: C_4  and  C_5
REMARK    4  A    between atoms: C_5  and  O_6
REMARK    5  A    between atoms: C_11  and  C_12
REMARK    6  A    between atoms: C_18  and  C_19
REMARK    7  A    between atoms: C_23  and  O_24
REMARK    8  A    between atoms: O_24  and  C_25
REMARK                            x       y       z     vdW  Elec       q    Type
REMARK                         _______ _______ _______ _____ _____    ______ ____
ROOT
ATOM      1  C   UNL     1       2.208   6.231  19.856  0.00  0.00    +0.000 A 
ATOM      2  C   UNL     1       1.594   5.391  20.933  0.00  0.00    +0.000 A 
ATOM      3  C   UNL     1       1.910   4.095  20.958  0.00  0.00    +0.000 A 
ATOM      4  C   UNL     1       2.808   3.575  20.009  0.00  0.00    +0.000 A 
ATOM      5  N   UNL     1       3.261   2.354  19.853  0.00  0.00    +0.000 NA
ATOM      6  C   UNL     1       4.126   2.438  18.799  0.00  0.00    +0.000 A 
ATOM      7  C   UNL     1       4.210   3.724  18.283  0.00  0.00    +0.000 A 
ATOM      8  N   UNL     1       3.343   4.457  19.080  0.00  0.00    +0.000 N 
ATOM      9  N   UNL     1       3.068   5.802  18.979  0.00  0.00    +0.000 NA
ENDROOT
BRANCH   1  14
ATOM     10  C   UNL     1       0.807   9.555  20.988  0.00  0.00    +0.000 A 
ATOM     11  C   UNL     1       0.898  10.315  19.813  0.00  0.00    +0.000 A 
ATOM     12  C   UNL     1       1.475   9.766  18.668  0.00  0.00    +0.000 A 
ATOM     13  C   UNL     1       1.935   8.450  18.684  0.00  0.00    +0.000 A 
ATOM     14  C   UNL     1       1.801   7.669  19.841  0.00  0.00    +0.000 A 
ATOM     15  C   UNL     1       1.262   8.231  21.003  0.00  0.00    +0.000 A 
BRANCH  10  17
ATOM     16  O   UNL     1       0.503   9.819  23.306  0.00  0.00    +0.000 OA
ATOM     17  C   UNL     1       0.172  10.173  22.182  0.00  0.00    +0.000 C 
ATOM     18  N   UNL     1      -0.796  11.119  21.929  0.00  0.00    +0.000 N 
ATOM     19  H   UNL     1      -1.129  11.263  20.985  0.00  0.00    +0.000 HD
BRANCH  18  20
ATOM     20  C   UNL     1      -1.525  11.766  23.011  0.00  0.00    +0.000 C 
BRANCH  20  21
ATOM     21  C   UNL     1      -1.240  13.265  23.081  0.00  0.00    +0.000 C 
BRANCH  21  22
ATOM     22  O   UNL     1      -2.269  13.926  23.818  0.00  0.00    +0.000 OA
ATOM     23  H   UNL     1      -1.817  14.577  24.384  0.00  0.00    +0.000 HD
ENDBRANCH  21  22
ENDBRANCH  20  21
ENDBRANCH  18  20
ENDBRANCH  10  17
ENDBRANCH   1  14
BRANCH   7  24
ATOM     24  C   UNL     1       5.032   4.229  17.178  0.00  0.00    +0.000 A 
ATOM     25  C   UNL     1       4.890   3.763  15.865  0.00  0.00    +0.000 A 
ATOM     26  C   UNL     1       5.719   4.239  14.848  0.00  0.00    +0.000 A 
ATOM     27  C   UNL     1       6.691   5.195  15.133  0.00  0.00    +0.000 A 
ATOM     28  C   UNL     1       6.833   5.698  16.428  0.00  0.00    +0.000 A 
ATOM     29  C   UNL     1       6.028   5.187  17.445  0.00  0.00    +0.000 A 
BRANCH  28  30
ATOM     30  O   UNL     1       7.824   6.616  16.583  0.00  0.00    +0.000 OA
BRANCH  30  31
ATOM     31  C   UNL     1       7.693   7.640  17.562  0.00  0.00    +0.000 C 
ATOM     32  F   UNL     1       8.424   8.747  17.320  0.00  0.00    +0.000 F 
ATOM     33  F   UNL     1       6.393   7.995  17.661  0.00  0.00    +0.000 F 
ATOM     34  F   UNL     1       8.084   7.143  18.757  0.00  0.00    +0.000 F 
ENDBRANCH  30  31
ENDBRANCH  28  30
ENDBRANCH   7  24
TORSDOF 8
ENDMDL
MODEL 2
REMARK VINA RESULT:      -9.5      0.864      1.100
REMARK  Name = 
REMARK  8 active torsions:
REMARK  status: ('A' for Active; 'I' for Inactive)
REMARK    1  A    between atoms: C_2  and  C_7
REMARK    2  A    between atoms: N_3  and  C_4
REMARK    3  A    between atoms: C_4  and  C_5
REMARK    4  A    between atoms: C_5  and  O_6
REMARK    5  A    between atoms: C_11  and  C_12
REMARK    6  A    between atoms: C_18  and  C_19
REMARK    7  A    between atoms: C_23  and  O_24
REMARK    8  A    between atoms: O_24  and  C_25
REMARK                            x       y       z     vdW  Elec       q    Type
REMARK                         _______ _______ _______ _____ _____    ______ ____
ROOT
ATOM      1  C   UNL     1       2.264   6.591  19.606  0.00  0.00    +0.000 A 
ATOM      2  C   UNL     1       1.594   5.894  20.749  0.00  0.00    +0.000 A 
ATOM      3  C   UNL     1       1.901   4.611  20.952  0.00  0.00    +0.000 A 
ATOM      4  C   UNL     1       2.839   3.976  20.120  0.00  0.00    +0.000 A 
ATOM      5  N   UNL     1       3.292   2.745  20.141  0.00  0.00    +0.000 NA
ATOM      6  C   UNL     1       4.207   2.695  19.128  0.00  0.00    +0.000 A 
ATOM      7  C   UNL     1       4.323   3.905  18.459  0.00  0.00    +0.000 A 
ATOM      8  N   UNL     1       3.424   4.734  19.115  0.00  0.00    +0.000 N 
ATOM      9  N   UNL     1       3.162   6.055  18.832  0.00  0.00    +0.000 NA
ENDROOT
BRANCH   1  14
ATOM     10  C   UNL     1       0.956  10.073  20.285  0.00  0.00    +0.000 A 
ATOM     11  C   UNL     1       0.982  10.640  19.003  0.00  0.00    +0.000 A 
ATOM     12  C   UNL     1       1.487   9.911  17.926  0.00  0.00    +0.000 A 
ATOM     13  C   UNL     1       1.938   8.606  18.120  0.00  0.00    +0.000 A 
ATOM     14  C   UNL     1       1.867   8.016  19.391  0.00  0.00    +0.000 A 
ATOM     15  C   UNL     1       1.402   8.760  20.480  0.00  0.00    +0.000 A 
BRANCH  10  17
ATOM     16  O   UNL     1       0.922  11.936  21.722  0.00  0.00    +0.000 OA
ATOM     17  C   UNL     1       0.396  10.878  21.403  0.00  0.00    +0.000 C 
ATOM     18  N   UNL     1      -0.704  10.346  22.038  0.00  0.00    +0.000 N 
ATOM     19  H   UNL     1      -1.003   9.403  21.828  0.00  0.00    +0.000 HD
BRANCH  18  20
ATOM     20  C   UNL     1      -1.319  11.013  23.176  0.00  0.00    +0.000 C 
BRANCH  20  21
ATOM     21  C   UNL     1      -2.449  11.949  22.752  0.00  0.00    +0.000 C 
BRANCH  21  22
ATOM     22  O   UNL     1      -3.510  11.903  23.707  0.00  0.00    +0.000 OA
ATOM     23  H   UNL     1      -3.405  12.696  24.262  0.00  0.00    +0.000 HD
ENDBRANCH  21  22
ENDBRANCH  20  21
ENDBRANCH  18  20
ENDBRANCH  10  17
ENDBRANCH   1  14
BRANCH   7  24
ATOM     24  C   UNL     1       5.200   4.267  17.341  0.00  0.00    +0.000 A 
ATOM     25  C   UNL     1       5.221   3.545  16.141  0.00  0.00    +0.000 A 
ATOM     26  C   UNL     1       6.099   3.896  15.115  0.00  0.00    +0.000 A 
ATOM     27  C   UNL     1       6.958   4.982  15.274  0.00  0.00    +0.000 A 
ATOM     28  C   UNL     1       6.935   5.737  16.448  0.00  0.00    +0.000 A 
ATOM     29  C   UNL     1       6.083   5.354  17.483  0.00  0.00    +0.000 A 
BRANCH  28  30
ATOM     30  O   UNL     1       7.827   6.762  16.490  0.00  0.00    +0.000 OA
BRANCH  30  31
ATOM     31  C   UNL     1       7.793   7.687  17.570  0.00  0.00    +0.000 C 
ATOM     32  F   UNL     1       8.211   7.188  18.751  0.00  0.00    +0.000 F 
ATOM     33  F   UNL     1       8.555   8.759  17.260  0.00  0.00    +0.000 F 
ATOM     34  F   UNL     1       6.519   8.110  17.731  0.00  0.00    +0.000 F 
ENDBRANCH  30  31
ENDBRANCH  28  30
ENDBRANCH   7  24
TORSDOF 8
ENDMDL
MODEL 3
REMARK VINA RESULT:      -9.2      2.307      2.748
REMARK  Name = 
REMARK  8 active torsions:
REMARK  status: ('A' for Active; 'I' for Inactive)
REMARK    1  A    between atoms: C_2  and  C_7
REMARK    2  A    between atoms: N_3  and  C_4
REMARK    3  A    between atoms: C_4  and  C_5
REMARK    4  A    between atoms: C_5  and  O_6
REMARK    5  A    between atoms: C_11  and  C_12
REMARK    6  A    between atoms: C_18  and  C_19
REMARK    7  A    between atoms: C_23  and  O_24
REMARK    8  A    between atoms: O_24  and  C_25
REMARK                            x       y       z     vdW  Elec       q    Type
REMARK                         _______ _______ _______ _____ _____    ______ ____
ROOT
ATOM      1  C   UNL     1       2.132   6.168  19.941  0.00  0.00    +0.000 A 
ATOM      2  C   UNL     1       1.359   5.306  20.891  0.00  0.00    +0.000 A 
ATOM      3  C   UNL     1       1.646   4.003  20.912  0.00  0.00    +0.000 A 
ATOM      4  C   UNL     1       2.659   3.497  20.079  0.00  0.00    +0.000 A 
ATOM      5  N   UNL     1       3.109   2.272  19.943  0.00  0.00    +0.000 NA
ATOM      6  C   UNL     1       4.114   2.372  19.023  0.00  0.00    +0.000 A 
ATOM      7  C   UNL     1       4.290   3.672  18.571  0.00  0.00    +0.000 A 
ATOM      8  N   UNL     1       3.333   4.397  19.267  0.00  0.00    +0.000 N 
ATOM      9  N   UNL     1       3.099   5.751  19.177  0.00  0.00    +0.000 NA
ENDROOT
BRANCH   1  14
ATOM     10  C   UNL     1       0.776   9.518  21.054  0.00  0.00    +0.000 A 
ATOM     11  C   UNL     1       0.908  10.279  19.884  0.00  0.00    +0.000 A 
ATOM     12  C   UNL     1       1.498   9.722  18.749  0.00  0.00    +0.000 A 
ATOM     13  C   UNL     1       1.930   8.396  18.771  0.00  0.00    +0.000 A 
ATOM     14  C   UNL     1       1.755   7.614  19.923  0.00  0.00    +0.000 A 
ATOM     15  C   UNL     1       1.204   8.185  21.075  0.00  0.00    +0.000 A 
BRANCH  10  17
ATOM     16  O   UNL     1       0.487   9.841  23.367  0.00  0.00    +0.000 OA
ATOM     17  C   UNL     1       0.129  10.145  22.236  0.00  0.00    +0.000 C 
ATOM     18  N   UNL     1      -0.881  11.042  21.967  0.00  0.00    +0.000 N 
ATOM     19  H   UNL     1      -1.231  11.141  21.023  0.00  0.00    +0.000 HD
BRANCH  18  20
ATOM     20  C   UNL     1      -1.625  11.690  23.037  0.00  0.00    +0.000 C 
BRANCH  20  21
ATOM     21  C   UNL     1      -2.615  12.724  22.504  0.00  0.00    +0.000 C 
BRANCH  21  22
ATOM     22  O   UNL     1      -3.953  12.250  22.659  0.00  0.00    +0.000 OA
ATOM     23  H   UNL     1      -4.226  11.925  21.783  0.00  0.00    +0.000 HD
ENDBRANCH  21  22
ENDBRANCH  20  21
ENDBRANCH  18  20
ENDBRANCH  10  17
ENDBRANCH   1  14
BRANCH   7  24
ATOM     24  C   UNL     1       5.268   4.196  17.611  0.00  0.00    +0.000 A 
ATOM     25  C   UNL     1       6.536   4.645  18.002  0.00  0.00    +0.000 A 
ATOM     26  C   UNL     1       7.423   5.175  17.064  0.00  0.00    +0.000 A 
ATOM     27  C   UNL     1       7.055   5.250  15.723  0.00  0.00    +0.000 A 
ATOM     28  C   UNL     1       5.809   4.782  15.302  0.00  0.00    +0.000 A 
ATOM     29  C   UNL     1       4.914   4.292  16.252  0.00  0.00    +0.000 A 
BRANCH  28  30
ATOM     30  O   UNL     1       5.561   4.921  13.973  0.00  0.00    +0.000 OA
BRANCH  30  31
ATOM     31  C   UNL     1       5.908   3.875  13.074  0.00  0.00    +0.000 C 
ATOM     32  F   UNL     1       4.905   3.466  12.271  0.00  0.00    +0.000 F 
ATOM     33  F   UNL     1       6.942   4.279  12.303  0.00  0.00    +0.000 F 
ATOM     34  F   UNL     1       6.317   2.807  13.797  0.00  0.00    +0.000 F 
ENDBRANCH  30  31
ENDBRANCH  28  30
ENDBRANCH   7  24
TORSDOF 8
ENDMDL
MODEL 4
REMARK VINA RESULT:      -9.0      2.577      3.021
REMARK  Name = 
REMARK  8 active torsions:
REMARK  status: ('A' for Active; 'I' for Inactive)
REMARK    1  A    between atoms: C_2  and  C_7
REMARK    2  A    between atoms: N_3  and  C_4
REMARK    3  A    between atoms: C_4  and  C_5
REMARK    4  A    between atoms: C_5  and  O_6
REMARK    5  A    between atoms: C_11  and  C_12
REMARK    6  A    between atoms: C_18  and  C_19
REMARK    7  A    between atoms: C_23  and  O_24
REMARK    8  A    between atoms: O_24  and  C_25
REMARK                            x       y       z     vdW  Elec       q    Type
REMARK                         _______ _______ _______ _____ _____    ______ ____
ROOT
ATOM      1  C   UNL     1       2.140   6.573  19.760  0.00  0.00    +0.000 A 
ATOM      2  C   UNL     1       1.649   5.740  20.904  0.00  0.00    +0.000 A 
ATOM      3  C   UNL     1       1.993   4.451  20.919  0.00  0.00    +0.000 A 
ATOM      4  C   UNL     1       2.808   3.932  19.897  0.00  0.00    +0.000 A 
ATOM      5  N   UNL     1       3.270   2.718  19.719  0.00  0.00    +0.000 NA
ATOM      6  C   UNL     1       4.029   2.799  18.586  0.00  0.00    +0.000 A 
ATOM      7  C   UNL     1       4.036   4.077  18.044  0.00  0.00    +0.000 A 
ATOM      8  N   UNL     1       3.233   4.808  18.908  0.00  0.00    +0.000 N 
ATOM      9  N   UNL     1       2.922   6.145  18.812  0.00  0.00    +0.000 NA
ENDROOT
BRANCH   1  14
ATOM     10  C   UNL     1       0.718   9.869  20.946  0.00  0.00    +0.000 A 
ATOM     11  C   UNL     1       0.744  10.628  19.769  0.00  0.00    +0.000 A 
ATOM     12  C   UNL     1       1.285  10.090  18.601  0.00  0.00    +0.000 A 
ATOM     13  C   UNL     1       1.772   8.784  18.598  0.00  0.00    +0.000 A 
ATOM     14  C   UNL     1       1.703   8.002  19.761  0.00  0.00    +0.000 A 
ATOM     15  C   UNL     1       1.201   8.554  20.944  0.00  0.00    +0.000 A 
BRANCH  10  17
ATOM     16  O   UNL     1       0.325   9.976  23.264  0.00  0.00    +0.000 OA
ATOM     17  C   UNL     1       0.120  10.475  22.165  0.00  0.00    +0.000 C 
ATOM     18  N   UNL     1      -0.671  11.584  21.962  0.00  0.00    +0.000 N 
ATOM     19  H   UNL     1      -0.922  11.861  21.023  0.00  0.00    +0.000 HD
BRANCH  18  20
ATOM     20  C   UNL     1      -1.351  12.243  23.068  0.00  0.00    +0.000 C 
BRANCH  20  21
ATOM     21  C   UNL     1      -2.730  12.764  22.667  0.00  0.00    +0.000 C 
BRANCH  21  22
ATOM     22  O   UNL     1      -3.750  11.970  23.274  0.00  0.00    +0.000 OA
ATOM     23  H   UNL     1      -3.801  11.151  22.749  0.00  0.00    +0.000 HD
ENDBRANCH  21  22
ENDBRANCH  20  21
ENDBRANCH  18  20
ENDBRANCH  10  17
ENDBRANCH   1  14
BRANCH   7  24
ATOM     24  C   UNL     1       4.739   4.579  16.858  0.00  0.00    +0.000 A 
ATOM     25  C   UNL     1       4.908   5.947  16.610  0.00  0.00    +0.000 A 
ATOM     26  C   UNL     1       5.547   6.385  15.450  0.00  0.00    +0.000 A 
ATOM     27  C   UNL     1       6.035   5.459  14.530  0.00  0.00    +0.000 A 
ATOM     28  C   UNL     1       5.906   4.090  14.769  0.00  0.00    +0.000 A 
ATOM     29  C   UNL     1       5.230   3.661  15.910  0.00  0.00    +0.000 A 
BRANCH  28  30
ATOM     30  O   UNL     1       6.409   3.286  13.794  0.00  0.00    +0.000 OA
BRANCH  30  31
ATOM     31  C   UNL     1       5.833   3.305  12.494  0.00  0.00    +0.000 C 
ATOM     32  F   UNL     1       5.781   2.103  11.884  0.00  0.00    +0.000 F 
ATOM     33  F   UNL     1       4.580   3.804  12.572  0.00  0.00    +0.000 F 
ATOM     34  F   UNL     1       6.565   4.130  11.712  0.00  0.00    +0.000 F 
ENDBRANCH  30  31
ENDBRANCH  28  30
ENDBRANCH   7  24
TORSDOF 8
ENDMDL
MODEL 5
REMARK VINA RESULT:      -9.0      2.037      2.526
REMARK  Name = 
REMARK  8 active torsions:
REMARK  status: ('A' for Active; 'I' for Inactive)
REMARK    1  A    between atoms: C_2  and  C_7
REMARK    2  A    between atoms: N_3  and  C_4
REMARK    3  A    between atoms: C_4  and  C_5
REMARK    4  A    between atoms: C_5  and  O_6
REMARK    5  A    between atoms: C_11  and  C_12
REMARK    6  A    between atoms: C_18  and  C_19
REMARK    7  A    between atoms: C_23  and  O_24
REMARK    8  A    between atoms: O_24  and  C_25
REMARK                            x       y       z     vdW  Elec       q    Type
REMARK                         _______ _______ _______ _____ _____    ______ ____
ROOT
ATOM      1  C   UNL     1       2.021   6.488  20.160  0.00  0.00    +0.000 A 
ATOM      2  C   UNL     1       1.195   5.540  20.972  0.00  0.00    +0.000 A 
ATOM      3  C   UNL     1       1.568   4.259  20.991  0.00  0.00    +0.000 A 
ATOM      4  C   UNL     1       2.714   3.854  20.283  0.00  0.00    +0.000 A 
ATOM      5  N   UNL     1       3.262   2.668  20.170  0.00  0.00    +0.000 NA
ATOM      6  C   UNL     1       4.368   2.870  19.394  0.00  0.00    +0.000 A 
ATOM      7  C   UNL     1       4.510   4.197  19.010  0.00  0.00    +0.000 A 
ATOM      8  N   UNL     1       3.422   4.829  19.595  0.00  0.00    +0.000 N 
ATOM      9  N   UNL     1       3.106   6.166  19.517  0.00  0.00    +0.000 NA
ENDROOT
BRANCH   1  14
ATOM     10  C   UNL     1       0.448   9.745  21.263  0.00  0.00    +0.000 A 
ATOM     11  C   UNL     1       0.527  10.508  20.090  0.00  0.00    +0.000 A 
ATOM     12  C   UNL     1       1.151   9.987  18.956  0.00  0.00    +0.000 A 
ATOM     13  C   UNL     1       1.670   8.693  18.982  0.00  0.00    +0.000 A 
ATOM     14  C   UNL     1       1.550   7.906  20.136  0.00  0.00    +0.000 A 
ATOM     15  C   UNL     1       0.963   8.443  21.287  0.00  0.00    +0.000 A 
BRANCH  10  17
ATOM     16  O   UNL     1       0.086   9.992  23.575  0.00  0.00    +0.000 OA
ATOM     17  C   UNL     1      -0.238  10.331  22.444  0.00  0.00    +0.000 C 
ATOM     18  N   UNL     1      -1.241  11.235  22.172  0.00  0.00    +0.000 N 
ATOM     19  H   UNL     1      -1.562  11.364  21.222  0.00  0.00    +0.000 HD
BRANCH  18  20
ATOM     20  C   UNL     1      -2.020  11.847  23.239  0.00  0.00    +0.000 C 
BRANCH  20  21
ATOM     21  C   UNL     1      -3.285  12.522  22.712  0.00  0.00    +0.000 C 
BRANCH  21  22
ATOM     22  O   UNL     1      -3.802  13.427  23.689  0.00  0.00    +0.000 OA
ATOM     23  H   UNL     1      -4.027  14.242  23.207  0.00  0.00    +0.000 HD
ENDBRANCH  21  22
ENDBRANCH  20  21
ENDBRANCH  18  20
ENDBRANCH  10  17
ENDBRANCH   1  14
BRANCH   7  24
ATOM     24  C   UNL     1       5.564   4.822  18.204  0.00  0.00    +0.000 A 
ATOM     25  C   UNL     1       6.693   5.420  18.780  0.00  0.00    +0.000 A 
ATOM     26  C   UNL     1       7.654   6.040  17.981  0.00  0.00    +0.000 A 
ATOM     27  C   UNL     1       7.503   6.059  16.597  0.00  0.00    +0.000 A 
ATOM     28  C   UNL     1       6.403   5.444  15.996  0.00  0.00    +0.000 A 
ATOM     29  C   UNL     1       5.427   4.862  16.804  0.00  0.00    +0.000 A 
BRANCH  28  30
ATOM     30  O   UNL     1       6.360   5.540  14.640  0.00  0.00    +0.000 OA
BRANCH  30  31
ATOM     31  C   UNL     1       6.301   4.360  13.848  0.00  0.00    +0.000 C 
ATOM     32  F   UNL     1       7.046   4.398  12.725  0.00  0.00    +0.000 F 
ATOM     33  F   UNL     1       6.699   3.306  14.594  0.00  0.00    +0.000 F 
ATOM     34  F   UNL     1       5.016   4.153  13.482  0.00  0.00    +0.000 F 
ENDBRANCH  30  31
ENDBRANCH  28  30
ENDBRANCH   7  24
TORSDOF 8
ENDMDL
MODEL 6
REMARK VINA RESULT:      -8.9      1.071      1.102
REMARK  Name = 
REMARK  8 active torsions:
REMARK  status: ('A' for Active; 'I' for Inactive)
REMARK    1  A    between atoms: C_2  and  C_7
REMARK    2  A    between atoms: N_3  and  C_4
REMARK    3  A    between atoms: C_4  and  C_5
REMARK    4  A    between atoms: C_5  and  O_6
REMARK    5  A    between atoms: C_11  and  C_12
REMARK    6  A    between atoms: C_18  and  C_19
REMARK    7  A    between atoms: C_23  and  O_24
REMARK    8  A    between atoms: O_24  and  C_25
REMARK                            x       y       z     vdW  Elec       q    Type
REMARK                         _______ _______ _______ _____ _____    ______ ____
ROOT
ATOM      1  C   UNL     1       2.253   6.758  19.543  0.00  0.00    +0.000 A 
ATOM      2  C   UNL     1       1.564   6.106  20.702  0.00  0.00    +0.000 A 
ATOM      3  C   UNL     1       1.860   4.830  20.956  0.00  0.00    +0.000 A 
ATOM      4  C   UNL     1       2.807   4.160  20.161  0.00  0.00    +0.000 A 
ATOM      5  N   UNL     1       3.252   2.928  20.233  0.00  0.00    +0.000 NA
ATOM      6  C   UNL     1       4.180   2.837  19.235  0.00  0.00    +0.000 A 
ATOM      7  C   UNL     1       4.312   4.022  18.524  0.00  0.00    +0.000 A 
ATOM      8  N   UNL     1       3.409   4.878  19.137  0.00  0.00    +0.000 N 
ATOM      9  N   UNL     1       3.159   6.190  18.802  0.00  0.00    +0.000 NA
ENDROOT
BRANCH   1  14
ATOM     10  C   UNL     1       0.523  10.106  19.844  0.00  0.00    +0.000 A 
ATOM     11  C   UNL     1       1.012  10.779  18.716  0.00  0.00    +0.000 A 
ATOM     12  C   UNL     1       1.956  10.167  17.890  0.00  0.00    +0.000 A 
ATOM     13  C   UNL     1       2.390   8.873  18.172  0.00  0.00    +0.000 A 
ATOM     14  C   UNL     1       1.867   8.176  19.271  0.00  0.00    +0.000 A 
ATOM     15  C   UNL     1       0.953   8.803  20.124  0.00  0.00    +0.000 A 
BRANCH  10  17
ATOM     16  O   UNL     1      -1.505  11.253  20.180  0.00  0.00    +0.000 OA
ATOM     17  C   UNL     1      -0.493  10.788  20.689  0.00  0.00    +0.000 C 
ATOM     18  N   UNL     1      -0.204  10.870  22.033  0.00  0.00    +0.000 N 
ATOM     19  H   UNL     1       0.710  10.600  22.371  0.00  0.00    +0.000 HD
BRANCH  18  20
ATOM     20  C   UNL     1      -1.095  11.552  22.960  0.00  0.00    +0.000 C 
BRANCH  20  21
ATOM     21  C   UNL     1      -1.092  13.065  22.753  0.00  0.00    +0.000 C 
BRANCH  21  22
ATOM     22  O   UNL     1       0.245  13.532  22.567  0.00  0.00    +0.000 OA
ATOM     23  H   UNL     1       0.813  12.931  23.080  0.00  0.00    +0.000 HD
ENDBRANCH  21  22
ENDBRANCH  20  21
ENDBRANCH  18  20
ENDBRANCH  10  17
ENDBRANCH   1  14
BRANCH   7  24
ATOM     24  C   UNL     1       5.207   4.338  17.405  0.00  0.00    +0.000 A 
ATOM     25  C   UNL     1       5.249   3.565  16.238  0.00  0.00    +0.000 A 
ATOM     26  C   UNL     1       6.143   3.875  15.212  0.00  0.00    +0.000 A 
ATOM     27  C   UNL     1       6.996   4.969  15.338  0.00  0.00    +0.000 A 
ATOM     28  C   UNL     1       6.953   5.774  16.479  0.00  0.00    +0.000 A 
ATOM     29  C   UNL     1       6.085   5.432  17.516  0.00  0.00    +0.000 A 
BRANCH  28  30
ATOM     30  O   UNL     1       7.841   6.802  16.491  0.00  0.00    +0.000 OA
BRANCH  30  31
ATOM     31  C   UNL     1       7.806   7.756  17.546  0.00  0.00    +0.000 C 
ATOM     32  F   UNL     1       8.586   8.839  17.352  0.00  0.00    +0.000 F 
ATOM     33  F   UNL     1       6.532   8.168  17.728  0.00  0.00    +0.000 F 
ATOM     34  F   UNL     1       8.217   7.152  18.683  0.00  0.00    +0.000 F 
ENDBRANCH  30  31
ENDBRANCH  28  30
ENDBRANCH   7  24
TORSDOF 8
ENDMDL
MODEL 7
REMARK VINA RESULT:      -8.7      4.952      7.015
REMARK  Name = 
REMARK  8 active torsions:
REMARK  status: ('A' for Active; 'I' for Inactive)
REMARK    1  A    between atoms: C_2  and  C_7
REMARK    2  A    between atoms: N_3  and  C_4
REMARK    3  A    between atoms: C_4  and  C_5
REMARK    4  A    between atoms: C_5  and  O_6
REMARK    5  A    between atoms: C_11  and  C_12
REMARK    6  A    between atoms: C_18  and  C_19
REMARK    7  A    between atoms: C_23  and  O_24
REMARK    8  A    between atoms: O_24  and  C_25
REMARK                            x       y       z     vdW  Elec       q    Type
REMARK                         _______ _______ _______ _____ _____    ______ ____
ROOT
ATOM      1  C   UNL     1      -1.483  10.645  19.485  0.00  0.00    +0.000 A 
ATOM      2  C   UNL     1      -1.772  11.597  20.604  0.00  0.00    +0.000 A 
ATOM      3  C   UNL     1      -1.069  11.456  21.730  0.00  0.00    +0.000 A 
ATOM      4  C   UNL     1      -0.085  10.455  21.819  0.00  0.00    +0.000 A 
ATOM      5  N   UNL     1       0.719  10.146  22.808  0.00  0.00    +0.000 NA
ATOM      6  C   UNL     1       1.482   9.120  22.326  0.00  0.00    +0.000 A 
ATOM      7  C   UNL     1       1.146   8.777  21.023  0.00  0.00    +0.000 A 
ATOM      8  N   UNL     1       0.121   9.655  20.704  0.00  0.00    +0.000 N 
ATOM      9  N   UNL     1      -0.561   9.728  19.510  0.00  0.00    +0.000 NA
ENDROOT
BRANCH   1  14
ATOM     10  C   UNL     1      -4.395  11.527  17.241  0.00  0.00    +0.000 A 
ATOM     11  C   UNL     1      -3.963  11.023  16.007  0.00  0.00    +0.000 A 
ATOM     12  C   UNL     1      -2.696  10.453  15.888  0.00  0.00    +0.000 A 
ATOM     13  C   UNL     1      -1.869  10.357  17.008  0.00  0.00    +0.000 A 
ATOM     14  C   UNL     1      -2.316  10.814  18.256  0.00  0.00    +0.000 A 
ATOM     15  C   UNL     1      -3.569  11.425  18.367  0.00  0.00    +0.000 A 
BRANCH  10  17
ATOM     16  O   UNL     1      -6.675  11.468  17.821  0.00  0.00    +0.000 OA
ATOM     17  C   UNL     1      -5.759  12.113  17.328  0.00  0.00    +0.000 C 
ATOM     18  N   UNL     1      -5.905  13.381  16.809  0.00  0.00    +0.000 N 
ATOM     19  H   UNL     1      -5.151  13.803  16.285  0.00  0.00    +0.000 HD
BRANCH  18  20
ATOM     20  C   UNL     1      -7.199  14.048  16.792  0.00  0.00    +0.000 C 
BRANCH  20  21
ATOM     21  C   UNL     1      -7.380  14.982  17.987  0.00  0.00    +0.000 C 
BRANCH  21  22
ATOM     22  O   UNL     1      -6.116  15.500  18.402  0.00  0.00    +0.000 OA
ATOM     23  H   UNL     1      -5.888  15.028  19.222  0.00  0.00    +0.000 HD
ENDBRANCH  21  22
ENDBRANCH  20  21
ENDBRANCH  18  20
ENDBRANCH  10  17
ENDBRANCH   1  14
BRANCH   7  24
ATOM     24  C   UNL     1       1.736   7.756  20.151  0.00  0.00    +0.000 A 
ATOM     25  C   UNL     1       2.129   8.031  18.835  0.00  0.00    +0.000 A 
ATOM     26  C   UNL     1       2.648   7.022  18.023  0.00  0.00    +0.000 A 
ATOM     27  C   UNL     1       2.793   5.730  18.522  0.00  0.00    +0.000 A 
ATOM     28  C   UNL     1       2.438   5.437  19.841  0.00  0.00    +0.000 A 
ATOM     29  C   UNL     1       1.881   6.441  20.632  0.00  0.00    +0.000 A 
BRANCH  28  30
ATOM     30  O   UNL     1       2.612   4.139  20.208  0.00  0.00    +0.000 OA
BRANCH  30  31
ATOM     31  C   UNL     1       1.483   3.340  20.540  0.00  0.00    +0.000 C 
ATOM     32  F   UNL     1       0.308   3.797  20.061  0.00  0.00    +0.000 F 
ATOM     33  F   UNL     1       1.678   2.085  20.079  0.00  0.00    +0.000 F 
ATOM     34  F   UNL     1       1.382   3.280  21.887  0.00  0.00    +0.000 F 
ENDBRANCH  30  31
ENDBRANCH  28  30
ENDBRANCH   7  24
TORSDOF 8
ENDMDL
MODEL 8
REMARK VINA RESULT:      -8.6      2.363      2.849
REMARK  Name = 
REMARK  8 active torsions:
REMARK  status: ('A' for Active; 'I' for Inactive)
REMARK    1  A    between atoms: C_2  and  C_7
REMARK    2  A    between atoms: N_3  and  C_4
REMARK    3  A    between atoms: C_4  and  C_5
REMARK    4  A    between atoms: C_5  and  O_6
REMARK    5  A    between atoms: C_11  and  C_12
REMARK    6  A    between atoms: C_18  and  C_19
REMARK    7  A    between atoms: C_23  and  O_24
REMARK    8  A    between atoms: O_24  and  C_25
REMARK                            x       y       z     vdW  Elec       q    Type
REMARK                         _______ _______ _______ _____ _____    ______ ____
ROOT
ATOM      1  C   UNL     1       2.295   6.547  19.676  0.00  0.00    +0.000 A 
ATOM      2  C   UNL     1       1.589   5.805  20.768  0.00  0.00    +0.000 A 
ATOM      3  C   UNL     1       1.917   4.524  20.954  0.00  0.00    +0.000 A 
ATOM      4  C   UNL     1       2.910   3.933  20.153  0.00  0.00    +0.000 A 
ATOM      5  N   UNL     1       3.391   2.713  20.165  0.00  0.00    +0.000 NA
ATOM      6  C   UNL     1       4.354   2.710  19.196  0.00  0.00    +0.000 A 
ATOM      7  C   UNL     1       4.472   3.940  18.564  0.00  0.00    +0.000 A 
ATOM      8  N   UNL     1       3.522   4.730  19.196  0.00  0.00    +0.000 N 
ATOM      9  N   UNL     1       3.242   6.052  18.934  0.00  0.00    +0.000 NA
ENDROOT
BRANCH   1  14
ATOM     10  C   UNL     1       0.857   9.973  20.373  0.00  0.00    +0.000 A 
ATOM     11  C   UNL     1       0.945  10.578  19.111  0.00  0.00    +0.000 A 
ATOM     12  C   UNL     1       1.532   9.895  18.047  0.00  0.00    +0.000 A 
ATOM     13  C   UNL     1       2.005   8.596  18.231  0.00  0.00    +0.000 A 
ATOM     14  C   UNL     1       1.874   7.967  19.478  0.00  0.00    +0.000 A 
ATOM     15  C   UNL     1       1.325   8.667  20.557  0.00  0.00    +0.000 A 
BRANCH  10  17
ATOM     16  O   UNL     1       0.346  10.363  22.637  0.00  0.00    +0.000 OA
ATOM     17  C   UNL     1       0.211  10.731  21.477  0.00  0.00    +0.000 C 
ATOM     18  N   UNL     1      -0.540  11.823  21.102  0.00  0.00    +0.000 N 
ATOM     19  H   UNL     1      -0.735  11.991  20.124  0.00  0.00    +0.000 HD
BRANCH  18  20
ATOM     20  C   UNL     1      -1.260  12.621  22.083  0.00  0.00    +0.000 C 
BRANCH  20  21
ATOM     21  C   UNL     1      -0.956  14.112  21.946  0.00  0.00    +0.000 C 
BRANCH  21  22
ATOM     22  O   UNL     1       0.189  14.454  22.728  0.00  0.00    +0.000 OA
ATOM     23  H   UNL     1       0.316  13.719  23.354  0.00  0.00    +0.000 HD
ENDBRANCH  21  22
ENDBRANCH  20  21
ENDBRANCH  18  20
ENDBRANCH  10  17
ENDBRANCH   1  14
BRANCH   7  24
ATOM     24  C   UNL     1       5.392   4.352  17.498  0.00  0.00    +0.000 A 
ATOM     25  C   UNL     1       6.151   5.527  17.576  0.00  0.00    +0.000 A 
ATOM     26  C   UNL     1       6.985   5.905  16.523  0.00  0.00    +0.000 A 
ATOM     27  C   UNL     1       7.079   5.106  15.387  0.00  0.00    +0.000 A 
ATOM     28  C   UNL     1       6.358   3.914  15.298  0.00  0.00    +0.000 A 
ATOM     29  C   UNL     1       5.495   3.565  16.336  0.00  0.00    +0.000 A 
BRANCH  28  30
ATOM     30  O   UNL     1       6.522   3.227  14.136  0.00  0.00    +0.000 OA
BRANCH  30  31
ATOM     31  C   UNL     1       5.873   3.673  12.952  0.00  0.00    +0.000 C 
ATOM     32  F   UNL     1       5.461   2.687  12.130  0.00  0.00    +0.000 F 
ATOM     33  F   UNL     1       4.804   4.428  13.290  0.00  0.00    +0.000 F 
ATOM     34  F   UNL     1       6.733   4.453  12.259  0.00  0.00    +0.000 F 
ENDBRANCH  30  31
ENDBRANCH  28  30
ENDBRANCH   7  24
TORSDOF 8
ENDMDL
MODEL 9
REMARK VINA RESULT:      -8.6      2.284      2.766
REMARK  Name = 
REMARK  8 active torsions:
REMARK  status: ('A' for Active; 'I' for Inactive)
REMARK    1  A    between atoms: C_2  and  C_7
REMARK    2  A    between atoms: N_3  and  C_4
REMARK    3  A    between atoms: C_4  and  C_5
REMARK    4  A    between atoms: C_5  and  O_6
REMARK    5  A    between atoms: C_11  and  C_12
REMARK    6  A    between atoms: C_18  and  C_19
REMARK    7  A    between atoms: C_23  and  O_24
REMARK    8  A    between atoms: O_24  and  C_25
REMARK                            x       y       z     vdW  Elec       q    Type
REMARK                         _______ _______ _______ _____ _____    ______ ____
ROOT
ATOM      1  C   UNL     1       2.212   6.492  19.812  0.00  0.00    +0.000 A 
ATOM      2  C   UNL     1       1.354   5.820  20.839  0.00  0.00    +0.000 A 
ATOM      3  C   UNL     1       1.623   4.544  21.126  0.00  0.00    +0.000 A 
ATOM      4  C   UNL     1       2.694   3.895  20.488  0.00  0.00    +0.000 A 
ATOM      5  N   UNL     1       3.138   2.667  20.620  0.00  0.00    +0.000 NA
ATOM      6  C   UNL     1       4.216   2.598  19.783  0.00  0.00    +0.000 A 
ATOM      7  C   UNL     1       4.445   3.792  19.113  0.00  0.00    +0.000 A 
ATOM      8  N   UNL     1       3.443   4.630  19.580  0.00  0.00    +0.000 N 
ATOM      9  N   UNL     1       3.233   5.943  19.222  0.00  0.00    +0.000 NA
ENDROOT
BRANCH   1  14
ATOM     10  C   UNL     1       0.802   9.983  20.163  0.00  0.00    +0.000 A 
ATOM     11  C   UNL     1       1.047  10.516  18.890  0.00  0.00    +0.000 A 
ATOM     12  C   UNL     1       1.729   9.762  17.935  0.00  0.00    +0.000 A 
ATOM     13  C   UNL     1       2.142   8.465  18.239  0.00  0.00    +0.000 A 
ATOM     14  C   UNL     1       1.856   7.908  19.494  0.00  0.00    +0.000 A 
ATOM     15  C   UNL     1       1.210   8.678  20.467  0.00  0.00    +0.000 A 
BRANCH  10  17
ATOM     16  O   UNL     1       0.345  10.762  22.336  0.00  0.00    +0.000 OA
ATOM     17  C   UNL     1       0.059  10.814  21.147  0.00  0.00    +0.000 C 
ATOM     18  N   UNL     1      -0.951  11.597  20.634  0.00  0.00    +0.000 N 
ATOM     19  H   UNL     1      -1.237  11.487  19.670  0.00  0.00    +0.000 HD
BRANCH  18  20
ATOM     20  C   UNL     1      -1.784  12.422  21.497  0.00  0.00    +0.000 C 
BRANCH  20  21
ATOM     21  C   UNL     1      -3.173  12.655  20.905  0.00  0.00    +0.000 C 
BRANCH  21  22
ATOM     22  O   UNL     1      -3.067  12.979  19.519  0.00  0.00    +0.000 OA
ATOM     23  H   UNL     1      -3.297  13.922  19.445  0.00  0.00    +0.000 HD
ENDBRANCH  21  22
ENDBRANCH  20  21
ENDBRANCH  18  20
ENDBRANCH  10  17
ENDBRANCH   1  14
BRANCH   7  24
ATOM     24  C   UNL     1       5.503   4.131  18.156  0.00  0.00    +0.000 A 
ATOM     25  C   UNL     1       6.574   4.970  18.490  0.00  0.00    +0.000 A 
ATOM     26  C   UNL     1       7.540   5.302  17.539  0.00  0.00    +0.000 A 
ATOM     27  C   UNL     1       7.452   4.788  16.247  0.00  0.00    +0.000 A 
ATOM     28  C   UNL     1       6.412   3.925  15.898  0.00  0.00    +0.000 A 
ATOM     29  C   UNL     1       5.429   3.632  16.842  0.00  0.00    +0.000 A 
BRANCH  28  30
ATOM     30  O   UNL     1       6.426   3.500  14.607  0.00  0.00    +0.000 OA
BRANCH  30  31
ATOM     31  C   UNL     1       5.844   4.306  13.590  0.00  0.00    +0.000 C 
ATOM     32  F   UNL     1       4.838   3.717  12.911  0.00  0.00    +0.000 F 
ATOM     33  F   UNL     1       5.381   5.449  14.141  0.00  0.00    +0.000 F 
ATOM     34  F   UNL     1       6.807   4.631  12.697  0.00  0.00    +0.000 F 
ENDBRANCH  30  31
ENDBRANCH  28  30
ENDBRANCH   7  24
TORSDOF 8
ENDMDL
