MODEL 1
REMARK VINA RESULT:      -7.9      0.000      0.000
REMARK  Name = 
REMARK  3 active torsions:
REMARK  status: ('A' for Active; 'I' for Inactive)
REMARK    1  A    between atoms: N_10  and  C_11
REMARK    2  A    between atoms: C_11  and  C_12
REMARK    3  A    between atoms: N_14  and  C_15
REMARK                            x       y       z     vdW  Elec       q    Type
REMARK                         _______ _______ _______ _____ _____    ______ ____
ROOT
ATOM      1 CL   UNL     1       6.442   4.052  15.147  0.00  0.00    +0.000 Cl
ATOM      2  C   UNL     1       5.368   4.905  16.190  0.00  0.00    +0.000 A 
ATOM      3  C   UNL     1       5.348   6.300  16.149  0.00  0.00    +0.000 A 
ATOM      4  C   UNL     1       4.483   7.025  16.978  0.00  0.00    +0.000 A 
ATOM      5  C   UNL     1       3.625   6.322  17.848  0.00  0.00    +0.000 A 
ATOM      6  C   UNL     1       2.619   6.627  18.815  0.00  0.00    +0.000 A 
ATOM      7  N   UNL     1       2.158   7.880  19.086  0.00  0.00    +0.000 N 
ATOM      8  C   UNL     1       2.071   8.930  18.072  0.00  0.00    +0.000 C 
ATOM      9  C   UNL     1       0.729   9.696  18.158  0.00  0.00    +0.000 C 
ATOM     10  N   UNL     1       0.348  10.165  19.509  0.00  0.00    +0.000 NA
ATOM     11  C   UNL     1       0.390   8.988  20.417  0.00  0.00    +0.000 C 
ATOM     12  C   UNL     1       1.736   8.238  20.447  0.00  0.00    +0.000 C 
ATOM     13  N   UNL     1       2.199   5.508  19.422  0.00  0.00    +0.000 NA
ATOM     14  O   UNL     1       2.855   4.459  18.809  0.00  0.00    +0.000 OA
ATOM     15  C   UNL     1       3.708   4.941  17.872  0.00  0.00    +0.000 A 
ATOM     16  C   UNL     1       4.548   4.183  17.060  0.00  0.00    +0.000 A 
ENDROOT
BRANCH  10  17
ATOM     17  C   UNL     1       1.255  11.248  19.934  0.00  0.00    +0.000 C 
BRANCH  17  18
ATOM     18  C   UNL     1       0.583  12.207  20.849  0.00  0.00    +0.000 A 
ATOM     19  C   UNL     1      -0.751  12.338  21.162  0.00  0.00    +0.000 A 
ATOM     20  N   UNL     1      -0.817  13.445  21.971  0.00  0.00    +0.000 N 
ATOM     21  N   UNL     1       0.436  13.908  22.204  0.00  0.00    +0.000 NA
ATOM     22  N   UNL     1       1.292  13.167  21.516  0.00  0.00    +0.000 NA
BRANCH  20  23
ATOM     23  C   UNL     1      -1.970  14.106  22.465  0.00  0.00    +0.000 A 
ATOM     24  C   UNL     1      -2.477  13.800  23.736  0.00  0.00    +0.000 A 
ATOM     25  C   UNL     1      -3.660  14.397  24.179  0.00  0.00    +0.000 A 
ATOM     26  C   UNL     1      -4.333  15.300  23.358  0.00  0.00    +0.000 A 
ATOM     27 BR   UNL     1      -5.957  16.063  23.947  0.00  0.00    +0.000 Br
ATOM     28  C   UNL     1      -3.822  15.631  22.105  0.00  0.00    +0.000 A 
ATOM     29  C   UNL     1      -2.640  15.037  21.656  0.00  0.00    +0.000 A 
ENDBRANCH  20  23
ENDBRANCH  17  18
ENDBRANCH  10  17
TORSDOF 3
ENDMDL
MODEL 2
REMARK VINA RESULT:      -7.2      0.987      1.037
REMARK  Name = 
REMARK  3 active torsions:
REMARK  status: ('A' for Active; 'I' for Inactive)
REMARK    1  A    between atoms: N_10  and  C_11
REMARK    2  A    between atoms: C_11  and  C_12
REMARK    3  A    between atoms: N_14  and  C_15
REMARK                            x       y       z     vdW  Elec       q    Type
REMARK                         _______ _______ _______ _____ _____    ______ ____
ROOT
ATOM      1 CL   UNL     1       6.400   4.507  15.082  0.00  0.00    +0.000 Cl
ATOM      2  C   UNL     1       5.306   5.254  16.182  0.00  0.00    +0.000 A 
ATOM      3  C   UNL     1       5.217   6.647  16.210  0.00  0.00    +0.000 A 
ATOM      4  C   UNL     1       4.334   7.288  17.088  0.00  0.00    +0.000 A 
ATOM      5  C   UNL     1       3.527   6.503  17.937  0.00  0.00    +0.000 A 
ATOM      6  C   UNL     1       2.526   6.712  18.934  0.00  0.00    +0.000 A 
ATOM      7  N   UNL     1       2.010   7.925  19.273  0.00  0.00    +0.000 N 
ATOM      8  C   UNL     1       1.853   9.017  18.312  0.00  0.00    +0.000 C 
ATOM      9  C   UNL     1       0.476   9.710  18.457  0.00  0.00    +0.000 C 
ATOM     10  N   UNL     1       0.099  10.096  19.836  0.00  0.00    +0.000 NA
ATOM     11  C   UNL     1       0.215   8.879  20.685  0.00  0.00    +0.000 C 
ATOM     12  C   UNL     1       1.597   8.197  20.656  0.00  0.00    +0.000 C 
ATOM     13  N   UNL     1       2.172   5.545  19.492  0.00  0.00    +0.000 NA
ATOM     14  O   UNL     1       2.867   4.560  18.818  0.00  0.00    +0.000 OA
ATOM     15  C   UNL     1       3.678   5.128  17.892  0.00  0.00    +0.000 A 
ATOM     16  C   UNL     1       4.538   4.453  17.030  0.00  0.00    +0.000 A 
ENDROOT
BRANCH  10  17
ATOM     17  C   UNL     1       0.960  11.201  20.298  0.00  0.00    +0.000 C 
BRANCH  17  18
ATOM     18  C   UNL     1       0.176  12.427  20.595  0.00  0.00    +0.000 A 
ATOM     19  C   UNL     1      -0.190  12.967  21.807  0.00  0.00    +0.000 A 
ATOM     20  N   UNL     1      -0.989  14.038  21.491  0.00  0.00    +0.000 N 
ATOM     21  N   UNL     1      -1.031  14.185  20.143  0.00  0.00    +0.000 NA
ATOM     22  N   UNL     1      -0.334  13.203  19.591  0.00  0.00    +0.000 NA
BRANCH  20  23
ATOM     23  C   UNL     1      -1.744  14.861  22.365  0.00  0.00    +0.000 A 
ATOM     24  C   UNL     1      -2.119  14.396  23.634  0.00  0.00    +0.000 A 
ATOM     25  C   UNL     1      -2.932  15.182  24.453  0.00  0.00    +0.000 A 
ATOM     26  C   UNL     1      -3.367  16.430  24.010  0.00  0.00    +0.000 A 
ATOM     27 BR   UNL     1      -4.508  17.463  25.105  0.00  0.00    +0.000 Br
ATOM     28  C   UNL     1      -2.977  16.911  22.762  0.00  0.00    +0.000 A 
ATOM     29  C   UNL     1      -2.164  16.130  21.937  0.00  0.00    +0.000 A 
ENDBRANCH  20  23
ENDBRANCH  17  18
ENDBRANCH  10  17
TORSDOF 3
ENDMDL
MODEL 3
REMARK VINA RESULT:      -7.1      1.928      2.607
REMARK  Name = 
REMARK  3 active torsions:
REMARK  status: ('A' for Active; 'I' for Inactive)
REMARK    1  A    between atoms: N_10  and  C_11
REMARK    2  A    between atoms: C_11  and  C_12
REMARK    3  A    between atoms: N_14  and  C_15
REMARK                            x       y       z     vdW  Elec       q    Type
REMARK                         _______ _______ _______ _____ _____    ______ ____
ROOT
ATOM      1 CL   UNL     1       3.768   1.448  18.851  0.00  0.00    +0.000 Cl
ATOM      2  C   UNL     1       3.357   3.120  18.786  0.00  0.00    +0.000 A 
ATOM      3  C   UNL     1       2.330   3.598  19.603  0.00  0.00    +0.000 A 
ATOM      4  C   UNL     1       1.973   4.952  19.580  0.00  0.00    +0.000 A 
ATOM      5  C   UNL     1       2.675   5.827  18.726  0.00  0.00    +0.000 A 
ATOM      6  C   UNL     1       2.665   7.217  18.399  0.00  0.00    +0.000 A 
ATOM      7  N   UNL     1       1.882   8.152  19.005  0.00  0.00    +0.000 N 
ATOM      8  C   UNL     1       1.493   8.069  20.413  0.00  0.00    +0.000 C 
ATOM      9  C   UNL     1       1.631   9.438  21.123  0.00  0.00    +0.000 C 
ATOM     10  N   UNL     1       1.015  10.585  20.421  0.00  0.00    +0.000 NA
ATOM     11  C   UNL     1       1.561  10.606  19.037  0.00  0.00    +0.000 C 
ATOM     12  C   UNL     1       1.368   9.298  18.244  0.00  0.00    +0.000 C 
ATOM     13  N   UNL     1       3.529   7.470  17.406  0.00  0.00    +0.000 NA
ATOM     14  O   UNL     1       4.171   6.278  17.131  0.00  0.00    +0.000 OA
ATOM     15  C   UNL     1       3.662   5.296  17.916  0.00  0.00    +0.000 A 
ATOM     16  C   UNL     1       4.051   3.959  17.912  0.00  0.00    +0.000 A 
ENDROOT
BRANCH  10  17
ATOM     17  C   UNL     1      -0.455  10.460  20.454  0.00  0.00    +0.000 C 
BRANCH  17  18
ATOM     18  C   UNL     1      -1.054  11.251  21.560  0.00  0.00    +0.000 A 
ATOM     19  C   UNL     1      -2.076  12.171  21.532  0.00  0.00    +0.000 A 
ATOM     20  N   UNL     1      -2.145  12.664  22.811  0.00  0.00    +0.000 N 
ATOM     21  N   UNL     1      -1.256  12.004  23.595  0.00  0.00    +0.000 NA
ATOM     22  N   UNL     1      -0.582  11.150  22.840  0.00  0.00    +0.000 NA
BRANCH  20  23
ATOM     23  C   UNL     1      -2.932  13.737  23.300  0.00  0.00    +0.000 A 
ATOM     24  C   UNL     1      -4.164  14.045  22.706  0.00  0.00    +0.000 A 
ATOM     25  C   UNL     1      -4.892  15.154  23.142  0.00  0.00    +0.000 A 
ATOM     26  C   UNL     1      -4.394  15.952  24.170  0.00  0.00    +0.000 A 
ATOM     27 BR   UNL     1      -5.363  17.479  24.717  0.00  0.00    +0.000 Br
ATOM     28  C   UNL     1      -3.184  15.639  24.784  0.00  0.00    +0.000 A 
ATOM     29  C   UNL     1      -2.451  14.531  24.353  0.00  0.00    +0.000 A 
ENDBRANCH  20  23
ENDBRANCH  17  18
ENDBRANCH  10  17
TORSDOF 3
ENDMDL
MODEL 4
REMARK VINA RESULT:      -7.1      1.127      1.307
REMARK  Name = 
REMARK  3 active torsions:
REMARK  status: ('A' for Active; 'I' for Inactive)
REMARK    1  A    between atoms: N_10  and  C_11
REMARK    2  A    between atoms: C_11  and  C_12
REMARK    3  A    between atoms: N_14  and  C_15
REMARK                            x       y       z     vdW  Elec       q    Type
REMARK                         _______ _______ _______ _____ _____    ______ ____
ROOT
ATOM      1 CL   UNL     1       7.363   4.589  15.526  0.00  0.00    +0.000 Cl
ATOM      2  C   UNL     1       6.056   5.243  16.437  0.00  0.00    +0.000 A 
ATOM      3  C   UNL     1       5.969   6.627  16.601  0.00  0.00    +0.000 A 
ATOM      4  C   UNL     1       4.917   7.193  17.331  0.00  0.00    +0.000 A 
ATOM      5  C   UNL     1       3.940   6.343  17.889  0.00  0.00    +0.000 A 
ATOM      6  C   UNL     1       2.744   6.471  18.659  0.00  0.00    +0.000 A 
ATOM      7  N   UNL     1       2.170   7.654  19.012  0.00  0.00    +0.000 N 
ATOM      8  C   UNL     1       2.233   8.848  18.169  0.00  0.00    +0.000 C 
ATOM      9  C   UNL     1       0.861   9.561  18.087  0.00  0.00    +0.000 C 
ATOM     10  N   UNL     1       0.191   9.804  19.384  0.00  0.00    +0.000 NA
ATOM     11  C   UNL     1       0.112   8.500  20.096  0.00  0.00    +0.000 C 
ATOM     12  C   UNL     1       1.464   7.786  20.293  0.00  0.00    +0.000 C 
ATOM     13  N   UNL     1       2.271   5.261  18.992  0.00  0.00    +0.000 NA
ATOM     14  O   UNL     1       3.093   4.336  18.380  0.00  0.00    +0.000 OA
ATOM     15  C   UNL     1       4.091   4.978  17.723  0.00  0.00    +0.000 A 
ATOM     16  C   UNL     1       5.118   4.376  17.000  0.00  0.00    +0.000 A 
ENDROOT
BRANCH  10  17
ATOM     17  C   UNL     1       0.933  10.827  20.145  0.00  0.00    +0.000 C 
BRANCH  17  18
ATOM     18  C   UNL     1       0.130  11.372  21.270  0.00  0.00    +0.000 A 
ATOM     19  C   UNL     1      -0.719  12.455  21.304  0.00  0.00    +0.000 A 
ATOM     20  N   UNL     1      -1.107  12.559  22.616  0.00  0.00    +0.000 N 
ATOM     21  N   UNL     1      -0.581  11.529  23.324  0.00  0.00    +0.000 NA
ATOM     22  N   UNL     1       0.182  10.809  22.515  0.00  0.00    +0.000 NA
BRANCH  20  23
ATOM     23  C   UNL     1      -1.870  13.585  23.229  0.00  0.00    +0.000 A 
ATOM     24  C   UNL     1      -3.265  13.615  23.092  0.00  0.00    +0.000 A 
ATOM     25  C   UNL     1      -3.998  14.675  23.630  0.00  0.00    +0.000 A 
ATOM     26  C   UNL     1      -3.342  15.700  24.308  0.00  0.00    +0.000 A 
ATOM     27 BR   UNL     1      -4.337  17.155  24.988  0.00  0.00    +0.000 Br
ATOM     28  C   UNL     1      -1.959  15.666  24.473  0.00  0.00    +0.000 A 
ATOM     29  C   UNL     1      -1.220  14.609  23.937  0.00  0.00    +0.000 A 
ENDBRANCH  20  23
ENDBRANCH  17  18
ENDBRANCH  10  17
TORSDOF 3
ENDMDL
MODEL 5
REMARK VINA RESULT:      -7.1      1.703      2.045
REMARK  Name = 
REMARK  3 active torsions:
REMARK  status: ('A' for Active; 'I' for Inactive)
REMARK    1  A    between atoms: N_10  and  C_11
REMARK    2  A    between atoms: C_11  and  C_12
REMARK    3  A    between atoms: N_14  and  C_15
REMARK                            x       y       z     vdW  Elec       q    Type
REMARK                         _______ _______ _______ _____ _____    ______ ____
ROOT
ATOM      1 CL   UNL     1       6.428   4.421  15.034  0.00  0.00    +0.000 Cl
ATOM      2  C   UNL     1       5.340   5.196  16.121  0.00  0.00    +0.000 A 
ATOM      3  C   UNL     1       5.214   6.585  16.081  0.00  0.00    +0.000 A 
ATOM      4  C   UNL     1       4.335   7.247  16.946  0.00  0.00    +0.000 A 
ATOM      5  C   UNL     1       3.569   6.486  17.853  0.00  0.00    +0.000 A 
ATOM      6  C   UNL     1       2.585   6.720  18.862  0.00  0.00    +0.000 A 
ATOM      7  N   UNL     1       2.045   7.935  19.152  0.00  0.00    +0.000 N 
ATOM      8  C   UNL     1       1.837   8.973  18.142  0.00  0.00    +0.000 C 
ATOM      9  C   UNL     1       0.446   9.637  18.285  0.00  0.00    +0.000 C 
ATOM     10  N   UNL     1       0.091  10.082  19.651  0.00  0.00    +0.000 NA
ATOM     11  C   UNL     1       0.259   8.914  20.558  0.00  0.00    +0.000 C 
ATOM     12  C   UNL     1       1.657   8.267  20.529  0.00  0.00    +0.000 C 
ATOM     13  N   UNL     1       2.276   5.574  19.487  0.00  0.00    +0.000 NA
ATOM     14  O   UNL     1       2.981   4.574  18.847  0.00  0.00    +0.000 OA
ATOM     15  C   UNL     1       3.755   5.115  17.873  0.00  0.00    +0.000 A 
ATOM     16  C   UNL     1       4.613   4.419  17.026  0.00  0.00    +0.000 A 
ENDROOT
BRANCH  10  17
ATOM     17  C   UNL     1       0.932  11.231  20.036  0.00  0.00    +0.000 C 
BRANCH  17  18
ATOM     18  C   UNL     1       0.133  12.320  20.656  0.00  0.00    +0.000 A 
ATOM     19  C   UNL     1       0.521  13.308  21.533  0.00  0.00    +0.000 A 
ATOM     20  N   UNL     1      -0.638  13.969  21.855  0.00  0.00    +0.000 N 
ATOM     21  N   UNL     1      -1.665  13.454  21.135  0.00  0.00    +0.000 NA
ATOM     22  N   UNL     1      -1.206  12.444  20.411  0.00  0.00    +0.000 NA
BRANCH  20  23
ATOM     23  C   UNL     1      -0.831  14.984  22.826  0.00  0.00    +0.000 A 
ATOM     24  C   UNL     1      -0.615  16.331  22.501  0.00  0.00    +0.000 A 
ATOM     25  C   UNL     1      -0.728  17.315  23.486  0.00  0.00    +0.000 A 
ATOM     26  C   UNL     1      -1.060  16.956  24.791  0.00  0.00    +0.000 A 
ATOM     27 BR   UNL     1      -1.160  18.288  26.127  0.00  0.00    +0.000 Br
ATOM     28  C   UNL     1      -1.302  15.624  25.118  0.00  0.00    +0.000 A 
ATOM     29  C   UNL     1      -1.191  14.635  24.137  0.00  0.00    +0.000 A 
ENDBRANCH  20  23
ENDBRANCH  17  18
ENDBRANCH  10  17
TORSDOF 3
ENDMDL
MODEL 6
REMARK VINA RESULT:      -7.1      2.141      2.983
REMARK  Name = 
REMARK  3 active torsions:
REMARK  status: ('A' for Active; 'I' for Inactive)
REMARK    1  A    between atoms: N_10  and  C_11
REMARK    2  A    between atoms: C_11  and  C_12
REMARK    3  A    between atoms: N_14  and  C_15
REMARK                            x       y       z     vdW  Elec       q    Type
REMARK                         _______ _______ _______ _____ _____    ______ ____
ROOT
ATOM      1 CL   UNL     1       2.777   1.626  19.204  0.00  0.00    +0.000 Cl
ATOM      2  C   UNL     1       2.456   3.310  19.369  0.00  0.00    +0.000 A 
ATOM      3  C   UNL     1       1.587   3.739  20.374  0.00  0.00    +0.000 A 
ATOM      4  C   UNL     1       1.307   5.101  20.540  0.00  0.00    +0.000 A 
ATOM      5  C   UNL     1       1.927   6.033  19.682  0.00  0.00    +0.000 A 
ATOM      6  C   UNL     1       1.947   7.450  19.500  0.00  0.00    +0.000 A 
ATOM      7  N   UNL     1       1.314   8.346  20.307  0.00  0.00    +0.000 N 
ATOM      8  C   UNL     1       1.130   8.129  21.742  0.00  0.00    +0.000 C 
ATOM      9  C   UNL     1       1.447   9.407  22.557  0.00  0.00    +0.000 C 
ATOM     10  N   UNL     1       0.801  10.647  22.073  0.00  0.00    +0.000 NA
ATOM     11  C   UNL     1       1.141  10.793  20.632  0.00  0.00    +0.000 C 
ATOM     12  C   UNL     1       0.762   9.587  19.750  0.00  0.00    +0.000 C 
ATOM     13  N   UNL     1       2.672   7.771  18.419  0.00  0.00    +0.000 NA
ATOM     14  O   UNL     1       3.198   6.591  17.933  0.00  0.00    +0.000 OA
ATOM     15  C   UNL     1       2.754   5.552  18.684  0.00  0.00    +0.000 A 
ATOM     16  C   UNL     1       3.062   4.209  18.489  0.00  0.00    +0.000 A 
ENDROOT
BRANCH  10  17
ATOM     17  C   UNL     1      -0.653  10.579  22.314  0.00  0.00    +0.000 C 
BRANCH  17  18
ATOM     18  C   UNL     1      -1.217  11.905  22.676  0.00  0.00    +0.000 A 
ATOM     19  C   UNL     1      -2.523  12.339  22.668  0.00  0.00    +0.000 A 
ATOM     20  N   UNL     1      -2.456  13.671  22.993  0.00  0.00    +0.000 N 
ATOM     21  N   UNL     1      -1.169  14.002  23.269  0.00  0.00    +0.000 NA
ATOM     22  N   UNL     1      -0.409  12.936  23.068  0.00  0.00    +0.000 NA
BRANCH  20  23
ATOM     23  C   UNL     1      -3.499  14.631  22.991  0.00  0.00    +0.000 A 
ATOM     24  C   UNL     1      -4.579  14.512  23.877  0.00  0.00    +0.000 A 
ATOM     25  C   UNL     1      -5.641  15.416  23.810  0.00  0.00    +0.000 A 
ATOM     26  C   UNL     1      -5.624  16.440  22.865  0.00  0.00    +0.000 A 
ATOM     27 BR   UNL     1      -7.088  17.628  22.749  0.00  0.00    +0.000 Br
ATOM     28  C   UNL     1      -4.543  16.583  21.998  0.00  0.00    +0.000 A 
ATOM     29  C   UNL     1      -3.477  15.681  22.059  0.00  0.00    +0.000 A 
ENDBRANCH  20  23
ENDBRANCH  17  18
ENDBRANCH  10  17
TORSDOF 3
ENDMDL
MODEL 7
REMARK VINA RESULT:      -7.1      2.050      2.817
REMARK  Name = 
REMARK  3 active torsions:
REMARK  status: ('A' for Active; 'I' for Inactive)
REMARK    1  A    between atoms: N_10  and  C_11
REMARK    2  A    between atoms: C_11  and  C_12
REMARK    3  A    between atoms: N_14  and  C_15
REMARK                            x       y       z     vdW  Elec       q    Type
REMARK                         _______ _______ _______ _____ _____    ______ ____
ROOT
ATOM      1 CL   UNL     1       3.608   1.775  18.797  0.00  0.00    +0.000 Cl
ATOM      2  C   UNL     1       3.149   3.427  18.964  0.00  0.00    +0.000 A 
ATOM      3  C   UNL     1       2.220   3.777  19.945  0.00  0.00    +0.000 A 
ATOM      4  C   UNL     1       1.829   5.112  20.112  0.00  0.00    +0.000 A 
ATOM      5  C   UNL     1       2.397   6.097  19.279  0.00  0.00    +0.000 A 
ATOM      6  C   UNL     1       2.310   7.513  19.106  0.00  0.00    +0.000 A 
ATOM      7  N   UNL     1       1.585   8.348  19.900  0.00  0.00    +0.000 N 
ATOM      8  C   UNL     1       1.377   8.105  21.327  0.00  0.00    +0.000 C 
ATOM      9  C   UNL     1       1.567   9.397  22.159  0.00  0.00    +0.000 C 
ATOM     10  N   UNL     1       0.839  10.586  21.664  0.00  0.00    +0.000 NA
ATOM     11  C   UNL     1       1.209  10.771  20.235  0.00  0.00    +0.000 C 
ATOM     12  C   UNL     1       0.952   9.547  19.334  0.00  0.00    +0.000 C 
ATOM     13  N   UNL     1       3.038   7.900  18.049  0.00  0.00    +0.000 NA
ATOM     14  O   UNL     1       3.671   6.769  17.572  0.00  0.00    +0.000 OA
ATOM     15  C   UNL     1       3.288   5.692  18.302  0.00  0.00    +0.000 A 
ATOM     16  C   UNL     1       3.708   4.378  18.108  0.00  0.00    +0.000 A 
ENDROOT
BRANCH  10  17
ATOM     17  C   UNL     1      -0.611  10.401  21.861  0.00  0.00    +0.000 C 
BRANCH  17  18
ATOM     18  C   UNL     1      -1.331  11.699  21.929  0.00  0.00    +0.000 A 
ATOM     19  C   UNL     1      -1.220  12.722  22.844  0.00  0.00    +0.000 A 
ATOM     20  N   UNL     1      -2.189  13.625  22.484  0.00  0.00    +0.000 N 
ATOM     21  N   UNL     1      -2.799  13.202  21.349  0.00  0.00    +0.000 NA
ATOM     22  N   UNL     1      -2.290  12.027  21.011  0.00  0.00    +0.000 NA
BRANCH  20  23
ATOM     23  C   UNL     1      -2.601  14.795  23.173  0.00  0.00    +0.000 A 
ATOM     24  C   UNL     1      -2.898  14.747  24.542  0.00  0.00    +0.000 A 
ATOM     25  C   UNL     1      -3.382  15.885  25.191  0.00  0.00    +0.000 A 
ATOM     26  C   UNL     1      -3.564  17.068  24.478  0.00  0.00    +0.000 A 
ATOM     27 BR   UNL     1      -4.266  18.587  25.355  0.00  0.00    +0.000 Br
ATOM     28  C   UNL     1      -3.245  17.133  23.123  0.00  0.00    +0.000 A 
ATOM     29  C   UNL     1      -2.761  15.998  22.468  0.00  0.00    +0.000 A 
ENDBRANCH  20  23
ENDBRANCH  17  18
ENDBRANCH  10  17
TORSDOF 3
ENDMDL
MODEL 8
REMARK VINA RESULT:      -7.0      8.317      9.653
REMARK  Name = 
REMARK  3 active torsions:
REMARK  status: ('A' for Active; 'I' for Inactive)
REMARK    1  A    between atoms: N_10  and  C_11
REMARK    2  A    between atoms: C_11  and  C_12
REMARK    3  A    between atoms: N_14  and  C_15
REMARK                            x       y       z     vdW  Elec       q    Type
REMARK                         _______ _______ _______ _____ _____    ______ ____
ROOT
ATOM      1 CL   UNL     1       0.784   2.282  22.125  0.00  0.00    +0.000 Cl
ATOM      2  C   UNL     1       1.870   2.939  20.961  0.00  0.00    +0.000 A 
ATOM      3  C   UNL     1       2.394   4.217  21.167  0.00  0.00    +0.000 A 
ATOM      4  C   UNL     1       3.284   4.780  20.244  0.00  0.00    +0.000 A 
ATOM      5  C   UNL     1       3.651   4.031  19.107  0.00  0.00    +0.000 A 
ATOM      6  C   UNL     1       4.494   4.189  17.965  0.00  0.00    +0.000 A 
ATOM      7  N   UNL     1       5.310   5.257  17.745  0.00  0.00    +0.000 N 
ATOM      8  C   UNL     1       5.959   5.997  18.827  0.00  0.00    +0.000 C 
ATOM      9  C   UNL     1       7.443   6.295  18.504  0.00  0.00    +0.000 C 
ATOM     10  N   UNL     1       7.699   6.882  17.169  0.00  0.00    +0.000 NA
ATOM     11  C   UNL     1       7.066   5.988  16.161  0.00  0.00    +0.000 C 
ATOM     12  C   UNL     1       5.562   5.729  16.377  0.00  0.00    +0.000 C 
ATOM     13  N   UNL     1       4.362   3.141  17.139  0.00  0.00    +0.000 NA
ATOM     14  O   UNL     1       3.506   2.255  17.762  0.00  0.00    +0.000 OA
ATOM     15  C   UNL     1       3.078   2.784  18.935  0.00  0.00    +0.000 A 
ATOM     16  C   UNL     1       2.196   2.186  19.831  0.00  0.00    +0.000 A 
ENDROOT
BRANCH  10  17
ATOM     17  C   UNL     1       7.174   8.260  17.121  0.00  0.00    +0.000 C 
BRANCH  17  18
ATOM     18  C   UNL     1       8.045   9.210  17.861  0.00  0.00    +0.000 A 
ATOM     19  C   UNL     1       8.281  10.547  17.635  0.00  0.00    +0.000 A 
ATOM     20  N   UNL     1       9.242  10.896  18.551  0.00  0.00    +0.000 N 
ATOM     21  N   UNL     1       9.508   9.833  19.351  0.00  0.00    +0.000 NA
ATOM     22  N   UNL     1       8.792   8.801  18.930  0.00  0.00    +0.000 NA
BRANCH  20  23
ATOM     23  C   UNL     1       9.947  12.122  18.664  0.00  0.00    +0.000 A 
ATOM     24  C   UNL     1       9.261  13.344  18.622  0.00  0.00    +0.000 A 
ATOM     25  C   UNL     1       9.973  14.545  18.650  0.00  0.00    +0.000 A 
ATOM     26  C   UNL     1      11.364  14.528  18.725  0.00  0.00    +0.000 A 
ATOM     27 BR   UNL     1      12.320  16.157  18.713  0.00  0.00    +0.000 Br
ATOM     28  C   UNL     1      12.052  13.319  18.795  0.00  0.00    +0.000 A 
ATOM     29  C   UNL     1      11.346  12.113  18.766  0.00  0.00    +0.000 A 
ENDBRANCH  20  23
ENDBRANCH  17  18
ENDBRANCH  10  17
TORSDOF 3
ENDMDL
MODEL 9
REMARK VINA RESULT:      -6.9      2.068      2.800
REMARK  Name = 
REMARK  3 active torsions:
REMARK  status: ('A' for Active; 'I' for Inactive)
REMARK    1  A    between atoms: N_10  and  C_11
REMARK    2  A    between atoms: C_11  and  C_12
REMARK    3  A    between atoms: N_14  and  C_15
REMARK                            x       y       z     vdW  Elec       q    Type
REMARK                         _______ _______ _______ _____ _____    ______ ____
ROOT
ATOM      1 CL   UNL     1       4.686   1.739  20.325  0.00  0.00    +0.000 Cl
ATOM      2  C   UNL     1       4.147   3.300  19.835  0.00  0.00    +0.000 A 
ATOM      3  C   UNL     1       2.915   3.767  20.295  0.00  0.00    +0.000 A 
ATOM      4  C   UNL     1       2.448   5.033  19.922  0.00  0.00    +0.000 A 
ATOM      5  C   UNL     1       3.248   5.834  19.081  0.00  0.00    +0.000 A 
ATOM      6  C   UNL     1       3.186   7.130  18.484  0.00  0.00    +0.000 A 
ATOM      7  N   UNL     1       2.196   8.039  18.703  0.00  0.00    +0.000 N 
ATOM      8  C   UNL     1       1.492   8.152  19.980  0.00  0.00    +0.000 C 
ATOM      9  C   UNL     1       1.327   9.630  20.411  0.00  0.00    +0.000 C 
ATOM     10  N   UNL     1       0.791  10.540  19.374  0.00  0.00    +0.000 NA
ATOM     11  C   UNL     1       1.648  10.392  18.166  0.00  0.00    +0.000 C 
ATOM     12  C   UNL     1       1.774   8.952  17.633  0.00  0.00    +0.000 C 
ATOM     13  N   UNL     1       4.235   7.321  17.671  0.00  0.00    +0.000 NA
ATOM     14  O   UNL     1       5.033   6.200  17.790  0.00  0.00    +0.000 OA
ATOM     15  C   UNL     1       4.445   5.310  18.628  0.00  0.00    +0.000 A 
ATOM     16  C   UNL     1       4.948   4.060  18.981  0.00  0.00    +0.000 A 
ENDROOT
BRANCH  10  17
ATOM     17  C   UNL     1      -0.625  10.220  19.113  0.00  0.00    +0.000 C 
BRANCH  17  18
ATOM     18  C   UNL     1      -1.535  11.284  19.612  0.00  0.00    +0.000 A 
ATOM     19  C   UNL     1      -1.335  12.222  20.598  0.00  0.00    +0.000 A 
ATOM     20  N   UNL     1      -2.535  12.878  20.711  0.00  0.00    +0.000 N 
ATOM     21  N   UNL     1      -3.394  12.409  19.772  0.00  0.00    +0.000 NA
ATOM     22  N   UNL     1      -2.796  11.432  19.106  0.00  0.00    +0.000 NA
BRANCH  20  23
ATOM     23  C   UNL     1      -2.923  13.845  21.674  0.00  0.00    +0.000 A 
ATOM     24  C   UNL     1      -2.660  13.639  23.035  0.00  0.00    +0.000 A 
ATOM     25  C   UNL     1      -3.119  14.558  23.982  0.00  0.00    +0.000 A 
ATOM     26  C   UNL     1      -3.835  15.681  23.571  0.00  0.00    +0.000 A 
ATOM     27 BR   UNL     1      -4.495  16.891  24.863  0.00  0.00    +0.000 Br
ATOM     28  C   UNL     1      -4.078  15.908  22.218  0.00  0.00    +0.000 A 
ATOM     29  C   UNL     1      -3.622  14.992  21.266  0.00  0.00    +0.000 A 
ENDBRANCH  20  23
ENDBRANCH  17  18
ENDBRANCH  10  17
TORSDOF 3
ENDMDL
