MODEL 1
REMARK VINA RESULT:      -6.8      0.000      0.000
REMARK  Name = 
REMARK  10 active torsions:
REMARK  status: ('A' for Active; 'I' for Inactive)
REMARK    1  A    between atoms: C_1  and  C_2
REMARK    2  A    between atoms: C_2  and  C_3
REMARK    3  A    between atoms: C_3  and  N_4
REMARK    4  A    between atoms: N_4  and  C_5
REMARK    5  A    between atoms: C_5  and  C_6
REMARK    6  A    between atoms: C_6  and  C_7
REMARK    7  A    between atoms: C_7  and  O_8
REMARK    8  A    between atoms: O_8  and  C_9
REMARK    9  A    between atoms: C_12  and  O_13
REMARK   10  A    between atoms: O_13  and  C_14
REMARK                            x       y       z     vdW  Elec       q    Type
REMARK                         _______ _______ _______ _____ _____    ______ ____
ROOT
ATOM      1  C   UNL     1       4.965   5.473  18.689  0.00  0.00    +0.000 A 
ATOM      2  C   UNL     1       6.173   4.773  18.611  0.00  0.00    +0.000 A 
ATOM      3  C   UNL     1       6.987   4.869  17.489  0.00  0.00    +0.000 A 
ATOM      4  C   UNL     1       6.596   5.667  16.421  0.00  0.00    +0.000 A 
ATOM      5  C   UNL     1       5.418   6.415  16.509  0.00  0.00    +0.000 A 
ATOM      6  C   UNL     1       4.589   6.301  17.630  0.00  0.00    +0.000 A 
ENDROOT
BRANCH   1   7
ATOM      7  O   UNL     1       4.095   5.414  19.758  0.00  0.00    +0.000 OA
BRANCH   7   8
ATOM      8  C   UNL     1       2.919   6.195  19.549  0.00  0.00    +0.000 C 
BRANCH   8   9
ATOM      9  C   UNL     1       1.788   5.820  20.491  0.00  0.00    +0.000 C 
BRANCH   9  10
ATOM     10  C   UNL     1       1.785   4.310  20.758  0.00  0.00    +0.000 C 
BRANCH  10  11
ATOM     11  N   UNL     1       1.341   3.544  19.591  0.00  0.00    +0.000 NA
ATOM     12  H   UNL     1       0.334   3.359  19.638  0.00  0.00    +0.000 HD
BRANCH  11  13
ATOM     13  C   UNL     1       2.029   2.260  19.495  0.00  0.00    +0.000 C 
BRANCH  13  15
ATOM     14  C   UNL     1       2.533   3.215  17.230  0.00  0.00    +0.000 C 
ATOM     15  C   UNL     1       3.028   2.304  18.338  0.00  0.00    +0.000 C 
ENDBRANCH  13  15
ENDBRANCH  11  13
ENDBRANCH  10  11
ENDBRANCH   9  10
ENDBRANCH   8   9
ENDBRANCH   7   8
ENDBRANCH   1   7
BRANCH   4  16
ATOM     16  O   UNL     1       7.463   5.670  15.357  0.00  0.00    +0.000 OA
BRANCH  16  17
ATOM     17  C   UNL     1       7.122   5.012  14.198  0.00  0.00    +0.000 A 
ATOM     18  C   UNL     1       6.007   4.175  14.292  0.00  0.00    +0.000 A 
ATOM     19  C   UNL     1       5.613   3.425  13.185  0.00  0.00    +0.000 A 
ATOM     20  C   UNL     1       6.321   3.522  11.988  0.00  0.00    +0.000 A 
ATOM     21  C   UNL     1       7.399   4.394  11.880  0.00  0.00    +0.000 A 
ATOM     22  C   UNL     1       7.780   5.164  12.980  0.00  0.00    +0.000 A 
ENDBRANCH  16  17
ENDBRANCH   4  16
TORSDOF 9
ENDMDL
MODEL 2
REMARK VINA RESULT:      -6.6      0.467      1.153
REMARK  Name = 
REMARK  10 active torsions:
REMARK  status: ('A' for Active; 'I' for Inactive)
REMARK    1  A    between atoms: C_1  and  C_2
REMARK    2  A    between atoms: C_2  and  C_3
REMARK    3  A    between atoms: C_3  and  N_4
REMARK    4  A    between atoms: N_4  and  C_5
REMARK    5  A    between atoms: C_5  and  C_6
REMARK    6  A    between atoms: C_6  and  C_7
REMARK    7  A    between atoms: C_7  and  O_8
REMARK    8  A    between atoms: O_8  and  C_9
REMARK    9  A    between atoms: C_12  and  O_13
REMARK   10  A    between atoms: O_13  and  C_14
REMARK                            x       y       z     vdW  Elec       q    Type
REMARK                         _______ _______ _______ _____ _____    ______ ____
ROOT
ATOM      1  C   UNL     1       4.892   5.637  18.644  0.00  0.00    +0.000 A 
ATOM      2  C   UNL     1       4.646   6.367  17.478  0.00  0.00    +0.000 A 
ATOM      3  C   UNL     1       5.535   6.336  16.410  0.00  0.00    +0.000 A 
ATOM      4  C   UNL     1       6.692   5.573  16.500  0.00  0.00    +0.000 A 
ATOM      5  C   UNL     1       6.923   4.794  17.637  0.00  0.00    +0.000 A 
ATOM      6  C   UNL     1       6.038   4.843  18.720  0.00  0.00    +0.000 A 
ENDROOT
BRANCH   1   7
ATOM      7  O   UNL     1       4.070   5.631  19.751  0.00  0.00    +0.000 OA
BRANCH   7   8
ATOM      8  C   UNL     1       2.728   5.998  19.437  0.00  0.00    +0.000 C 
BRANCH   8   9
ATOM      9  C   UNL     1       1.765   5.758  20.587  0.00  0.00    +0.000 C 
BRANCH   9  10
ATOM     10  C   UNL     1       1.241   4.317  20.561  0.00  0.00    +0.000 C 
BRANCH  10  11
ATOM     11  N   UNL     1       2.317   3.342  20.370  0.00  0.00    +0.000 NA
ATOM     12  H   UNL     1       3.067   3.733  19.793  0.00  0.00    +0.000 HD
BRANCH  11  13
ATOM     13  C   UNL     1       1.835   2.128  19.718  0.00  0.00    +0.000 C 
BRANCH  13  15
ATOM     14  C   UNL     1       3.174   2.666  17.665  0.00  0.00    +0.000 C 
ATOM     15  C   UNL     1       1.793   2.345  18.206  0.00  0.00    +0.000 C 
ENDBRANCH  13  15
ENDBRANCH  11  13
ENDBRANCH  10  11
ENDBRANCH   9  10
ENDBRANCH   8   9
ENDBRANCH   7   8
ENDBRANCH   1   7
BRANCH   4  16
ATOM     16  O   UNL     1       7.509   5.633  15.398  0.00  0.00    +0.000 OA
BRANCH  16  17
ATOM     17  C   UNL     1       7.145   4.980  14.243  0.00  0.00    +0.000 A 
ATOM     18  C   UNL     1       6.073   4.094  14.370  0.00  0.00    +0.000 A 
ATOM     19  C   UNL     1       5.662   3.347  13.267  0.00  0.00    +0.000 A 
ATOM     20  C   UNL     1       6.310   3.495  12.043  0.00  0.00    +0.000 A 
ATOM     21  C   UNL     1       7.344   4.415  11.904  0.00  0.00    +0.000 A 
ATOM     22  C   UNL     1       7.741   5.182  13.000  0.00  0.00    +0.000 A 
ENDBRANCH  16  17
ENDBRANCH   4  16
TORSDOF 9
ENDMDL
MODEL 3
REMARK VINA RESULT:      -6.5      2.355      6.762
REMARK  Name = 
REMARK  10 active torsions:
REMARK  status: ('A' for Active; 'I' for Inactive)
REMARK    1  A    between atoms: C_1  and  C_2
REMARK    2  A    between atoms: C_2  and  C_3
REMARK    3  A    between atoms: C_3  and  N_4
REMARK    4  A    between atoms: N_4  and  C_5
REMARK    5  A    between atoms: C_5  and  C_6
REMARK    6  A    between atoms: C_6  and  C_7
REMARK    7  A    between atoms: C_7  and  O_8
REMARK    8  A    between atoms: O_8  and  C_9
REMARK    9  A    between atoms: C_12  and  O_13
REMARK   10  A    between atoms: O_13  and  C_14
REMARK                            x       y       z     vdW  Elec       q    Type
REMARK                         _______ _______ _______ _____ _____    ______ ____
ROOT
ATOM      1  C   UNL     1       6.359   5.951  16.996  0.00  0.00    +0.000 A 
ATOM      2  C   UNL     1       6.333   5.070  18.081  0.00  0.00    +0.000 A 
ATOM      3  C   UNL     1       5.257   5.044  18.961  0.00  0.00    +0.000 A 
ATOM      4  C   UNL     1       4.190   5.911  18.767  0.00  0.00    +0.000 A 
ATOM      5  C   UNL     1       4.177   6.758  17.654  0.00  0.00    +0.000 A 
ATOM      6  C   UNL     1       5.270   6.798  16.782  0.00  0.00    +0.000 A 
ENDROOT
BRANCH   1   7
ATOM      7  O   UNL     1       7.396   6.049  16.093  0.00  0.00    +0.000 OA
BRANCH   7   8
ATOM      8  C   UNL     1       7.441   4.945  15.190  0.00  0.00    +0.000 C 
BRANCH   8   9
ATOM      9  C   UNL     1       6.270   4.927  14.222  0.00  0.00    +0.000 C 
BRANCH   9  10
ATOM     10  C   UNL     1       6.127   3.544  13.575  0.00  0.00    +0.000 C 
BRANCH  10  11
ATOM     11  N   UNL     1       6.137   3.614  12.112  0.00  0.00    +0.000 NA
ATOM     12  H   UNL     1       5.865   4.547  11.789  0.00  0.00    +0.000 HD
BRANCH  11  13
ATOM     13  C   UNL     1       5.217   2.648  11.520  0.00  0.00    +0.000 C 
BRANCH  13  15
ATOM     14  C   UNL     1       3.489   3.797  10.110  0.00  0.00    +0.000 C 
ATOM     15  C   UNL     1       3.808   3.241  11.485  0.00  0.00    +0.000 C 
ENDBRANCH  13  15
ENDBRANCH  11  13
ENDBRANCH  10  11
ENDBRANCH   9  10
ENDBRANCH   8   9
ENDBRANCH   7   8
ENDBRANCH   1   7
BRANCH   4  16
ATOM     16  O   UNL     1       3.193   5.818  19.706  0.00  0.00    +0.000 OA
BRANCH  16  17
ATOM     17  C   UNL     1       2.358   4.725  19.707  0.00  0.00    +0.000 A 
ATOM     18  C   UNL     1       2.068   4.195  20.967  0.00  0.00    +0.000 A 
ATOM     19  C   UNL     1       1.271   3.056  21.069  0.00  0.00    +0.000 A 
ATOM     20  C   UNL     1       0.756   2.459  19.920  0.00  0.00    +0.000 A 
ATOM     21  C   UNL     1       1.002   3.017  18.670  0.00  0.00    +0.000 A 
ATOM     22  C   UNL     1       1.779   4.172  18.567  0.00  0.00    +0.000 A 
ENDBRANCH  16  17
ENDBRANCH   4  16
TORSDOF 9
ENDMDL
MODEL 4
REMARK VINA RESULT:      -6.4      2.266      6.954
REMARK  Name = 
REMARK  10 active torsions:
REMARK  status: ('A' for Active; 'I' for Inactive)
REMARK    1  A    between atoms: C_1  and  C_2
REMARK    2  A    between atoms: C_2  and  C_3
REMARK    3  A    between atoms: C_3  and  N_4
REMARK    4  A    between atoms: N_4  and  C_5
REMARK    5  A    between atoms: C_5  and  C_6
REMARK    6  A    between atoms: C_6  and  C_7
REMARK    7  A    between atoms: C_7  and  O_8
REMARK    8  A    between atoms: O_8  and  C_9
REMARK    9  A    between atoms: C_12  and  O_13
REMARK   10  A    between atoms: O_13  and  C_14
REMARK                            x       y       z     vdW  Elec       q    Type
REMARK                         _______ _______ _______ _____ _____    ______ ____
ROOT
ATOM      1  C   UNL     1       6.022   6.173  16.812  0.00  0.00    +0.000 A 
ATOM      2  C   UNL     1       4.810   6.840  16.606  0.00  0.00    +0.000 A 
ATOM      3  C   UNL     1       3.797   6.798  17.557  0.00  0.00    +0.000 A 
ATOM      4  C   UNL     1       3.984   6.078  18.730  0.00  0.00    +0.000 A 
ATOM      5  C   UNL     1       5.210   5.453  18.973  0.00  0.00    +0.000 A 
ATOM      6  C   UNL     1       6.222   5.478  18.006  0.00  0.00    +0.000 A 
ENDROOT
BRANCH   1   7
ATOM      7  O   UNL     1       7.065   6.151  15.910  0.00  0.00    +0.000 OA
BRANCH   7   8
ATOM      8  C   UNL     1       7.246   4.867  15.315  0.00  0.00    +0.000 C 
BRANCH   8   9
ATOM      9  C   UNL     1       6.011   4.378  14.579  0.00  0.00    +0.000 C 
BRANCH   9  10
ATOM     10  C   UNL     1       6.382   3.872  13.179  0.00  0.00    +0.000 C 
BRANCH  10  11
ATOM     11  N   UNL     1       5.502   2.790  12.732  0.00  0.00    +0.000 NA
ATOM     12  H   UNL     1       5.940   1.877  12.883  0.00  0.00    +0.000 HD
BRANCH  11  13
ATOM     13  C   UNL     1       5.183   2.906  11.312  0.00  0.00    +0.000 C 
BRANCH  13  15
ATOM     14  C   UNL     1       3.302   4.064  10.123  0.00  0.00    +0.000 C 
ATOM     15  C   UNL     1       3.667   2.996  11.136  0.00  0.00    +0.000 C 
ENDBRANCH  13  15
ENDBRANCH  11  13
ENDBRANCH  10  11
ENDBRANCH   9  10
ENDBRANCH   8   9
ENDBRANCH   7   8
ENDBRANCH   1   7
BRANCH   4  16
ATOM     16  O   UNL     1       2.912   6.086  19.587  0.00  0.00    +0.000 OA
BRANCH  16  17
ATOM     17  C   UNL     1       2.333   4.896  19.964  0.00  0.00    +0.000 A 
ATOM     18  C   UNL     1       1.716   4.179  18.936  0.00  0.00    +0.000 A 
ATOM     19  C   UNL     1       1.057   2.986  19.228  0.00  0.00    +0.000 A 
ATOM     20  C   UNL     1       1.027   2.506  20.536  0.00  0.00    +0.000 A 
ATOM     21  C   UNL     1       1.685   3.194  21.550  0.00  0.00    +0.000 A 
ATOM     22  C   UNL     1       2.366   4.376  21.256  0.00  0.00    +0.000 A 
ENDBRANCH  16  17
ENDBRANCH   4  16
TORSDOF 9
ENDMDL
MODEL 5
REMARK VINA RESULT:      -6.3      4.404      7.777
REMARK  Name = 
REMARK  10 active torsions:
REMARK  status: ('A' for Active; 'I' for Inactive)
REMARK    1  A    between atoms: C_1  and  C_2
REMARK    2  A    between atoms: C_2  and  C_3
REMARK    3  A    between atoms: C_3  and  N_4
REMARK    4  A    between atoms: N_4  and  C_5
REMARK    5  A    between atoms: C_5  and  C_6
REMARK    6  A    between atoms: C_6  and  C_7
REMARK    7  A    between atoms: C_7  and  O_8
REMARK    8  A    between atoms: O_8  and  C_9
REMARK    9  A    between atoms: C_12  and  O_13
REMARK   10  A    between atoms: O_13  and  C_14
REMARK                            x       y       z     vdW  Elec       q    Type
REMARK                         _______ _______ _______ _____ _____    ______ ____
ROOT
ATOM      1  C   UNL     1       6.591   6.317  16.918  0.00  0.00    +0.000 A 
ATOM      2  C   UNL     1       5.305   6.697  17.313  0.00  0.00    +0.000 A 
ATOM      3  C   UNL     1       4.255   5.787  17.313  0.00  0.00    +0.000 A 
ATOM      4  C   UNL     1       4.480   4.478  16.908  0.00  0.00    +0.000 A 
ATOM      5  C   UNL     1       5.772   4.070  16.565  0.00  0.00    +0.000 A 
ATOM      6  C   UNL     1       6.824   4.992  16.545  0.00  0.00    +0.000 A 
ENDROOT
BRANCH   1   7
ATOM      7  O   UNL     1       7.678   7.165  16.873  0.00  0.00    +0.000 OA
BRANCH   7   8
ATOM      8  C   UNL     1       7.428   8.408  17.527  0.00  0.00    +0.000 C 
BRANCH   8   9
ATOM      9  C   UNL     1       8.602   8.878  18.370  0.00  0.00    +0.000 C 
BRANCH   9  10
ATOM     10  C   UNL     1       8.811  10.389  18.208  0.00  0.00    +0.000 C 
BRANCH  10  11
ATOM     11  N   UNL     1       9.428  10.991  19.392  0.00  0.00    +0.000 NA
ATOM     12  H   UNL     1       8.930  11.841  19.672  0.00  0.00    +0.000 HD
BRANCH  11  13
ATOM     13  C   UNL     1      10.823  11.347  19.150  0.00  0.00    +0.000 C 
BRANCH  13  15
ATOM     14  C   UNL     1      11.187  13.183  17.479  0.00  0.00    +0.000 C 
ATOM     15  C   UNL     1      11.013  11.688  17.672  0.00  0.00    +0.000 C 
ENDBRANCH  13  15
ENDBRANCH  11  13
ENDBRANCH  10  11
ENDBRANCH   9  10
ENDBRANCH   8   9
ENDBRANCH   7   8
ENDBRANCH   1   7
BRANCH   4  16
ATOM     16  O   UNL     1       3.370   3.671  16.925  0.00  0.00    +0.000 OA
BRANCH  16  17
ATOM     17  C   UNL     1       2.806   3.311  18.127  0.00  0.00    +0.000 A 
ATOM     18  C   UNL     1       1.420   3.468  18.208  0.00  0.00    +0.000 A 
ATOM     19  C   UNL     1       0.763   3.179  19.403  0.00  0.00    +0.000 A 
ATOM     20  C   UNL     1       1.484   2.722  20.504  0.00  0.00    +0.000 A 
ATOM     21  C   UNL     1       2.856   2.516  20.406  0.00  0.00    +0.000 A 
ATOM     22  C   UNL     1       3.513   2.781  19.204  0.00  0.00    +0.000 A 
ENDBRANCH  16  17
ENDBRANCH   4  16
TORSDOF 9
ENDMDL
MODEL 6
REMARK VINA RESULT:      -6.3      4.410      8.019
REMARK  Name = 
REMARK  10 active torsions:
REMARK  status: ('A' for Active; 'I' for Inactive)
REMARK    1  A    between atoms: C_1  and  C_2
REMARK    2  A    between atoms: C_2  and  C_3
REMARK    3  A    between atoms: C_3  and  N_4
REMARK    4  A    between atoms: N_4  and  C_5
REMARK    5  A    between atoms: C_5  and  C_6
REMARK    6  A    between atoms: C_6  and  C_7
REMARK    7  A    between atoms: C_7  and  O_8
REMARK    8  A    between atoms: O_8  and  C_9
REMARK    9  A    between atoms: C_12  and  O_13
REMARK   10  A    between atoms: O_13  and  C_14
REMARK                            x       y       z     vdW  Elec       q    Type
REMARK                         _______ _______ _______ _____ _____    ______ ____
ROOT
ATOM      1  C   UNL     1       6.496   6.384  17.084  0.00  0.00    +0.000 A 
ATOM      2  C   UNL     1       5.269   7.049  16.993  0.00  0.00    +0.000 A 
ATOM      3  C   UNL     1       4.068   6.359  17.115  0.00  0.00    +0.000 A 
ATOM      4  C   UNL     1       4.082   4.987  17.324  0.00  0.00    +0.000 A 
ATOM      5  C   UNL     1       5.301   4.319  17.473  0.00  0.00    +0.000 A 
ATOM      6  C   UNL     1       6.509   5.010  17.329  0.00  0.00    +0.000 A 
ENDROOT
BRANCH   1   7
ATOM      7  O   UNL     1       7.726   6.994  16.955  0.00  0.00    +0.000 OA
BRANCH   7   8
ATOM      8  C   UNL     1       8.116   7.694  18.135  0.00  0.00    +0.000 C 
BRANCH   8   9
ATOM      9  C   UNL     1       8.221   9.195  17.925  0.00  0.00    +0.000 C 
BRANCH   9  10
ATOM     10  C   UNL     1       9.067   9.837  19.032  0.00  0.00    +0.000 C 
BRANCH  10  11
ATOM     11  N   UNL     1       9.347  11.249  18.764  0.00  0.00    +0.000 NA
ATOM     12  H   UNL     1       8.523  11.719  18.379  0.00  0.00    +0.000 HD
BRANCH  11  13
ATOM     13  C   UNL     1      10.441  11.409  17.810  0.00  0.00    +0.000 C 
BRANCH  13  15
ATOM     14  C   UNL     1      12.281  11.738  19.484  0.00  0.00    +0.000 C 
ATOM     15  C   UNL     1      11.471  12.386  18.377  0.00  0.00    +0.000 C 
ENDBRANCH  13  15
ENDBRANCH  11  13
ENDBRANCH  10  11
ENDBRANCH   9  10
ENDBRANCH   8   9
ENDBRANCH   7   8
ENDBRANCH   1   7
BRANCH   4  16
ATOM     16  O   UNL     1       2.842   4.404  17.407  0.00  0.00    +0.000 OA
BRANCH  16  17
ATOM     17  C   UNL     1       2.367   3.982  18.627  0.00  0.00    +0.000 A 
ATOM     18  C   UNL     1       2.246   4.978  19.599  0.00  0.00    +0.000 A 
ATOM     19  C   UNL     1       1.822   4.640  20.883  0.00  0.00    +0.000 A 
ATOM     20  C   UNL     1       1.506   3.318  21.189  0.00  0.00    +0.000 A 
ATOM     21  C   UNL     1       1.576   2.336  20.207  0.00  0.00    +0.000 A 
ATOM     22  C   UNL     1       1.977   2.675  18.914  0.00  0.00    +0.000 A 
ENDBRANCH  16  17
ENDBRANCH   4  16
TORSDOF 9
ENDMDL
MODEL 7
REMARK VINA RESULT:      -6.3      4.566      8.041
REMARK  Name = 
REMARK  10 active torsions:
REMARK  status: ('A' for Active; 'I' for Inactive)
REMARK    1  A    between atoms: C_1  and  C_2
REMARK    2  A    between atoms: C_2  and  C_3
REMARK    3  A    between atoms: C_3  and  N_4
REMARK    4  A    between atoms: N_4  and  C_5
REMARK    5  A    between atoms: C_5  and  C_6
REMARK    6  A    between atoms: C_6  and  C_7
REMARK    7  A    between atoms: C_7  and  O_8
REMARK    8  A    between atoms: O_8  and  C_9
REMARK    9  A    between atoms: C_12  and  O_13
REMARK   10  A    between atoms: O_13  and  C_14
REMARK                            x       y       z     vdW  Elec       q    Type
REMARK                         _______ _______ _______ _____ _____    ______ ____
ROOT
ATOM      1  C   UNL     1       6.641   6.554  17.131  0.00  0.00    +0.000 A 
ATOM      2  C   UNL     1       5.379   6.478  16.534  0.00  0.00    +0.000 A 
ATOM      3  C   UNL     1       4.516   5.424  16.811  0.00  0.00    +0.000 A 
ATOM      4  C   UNL     1       4.911   4.425  17.690  0.00  0.00    +0.000 A 
ATOM      5  C   UNL     1       6.147   4.518  18.337  0.00  0.00    +0.000 A 
ATOM      6  C   UNL     1       7.023   5.567  18.041  0.00  0.00    +0.000 A 
ENDROOT
BRANCH   1   7
ATOM      7  O   UNL     1       7.559   7.556  16.893  0.00  0.00    +0.000 OA
BRANCH   7   8
ATOM      8  C   UNL     1       8.110   8.089  18.095  0.00  0.00    +0.000 C 
BRANCH   8   9
ATOM      9  C   UNL     1       8.319   9.592  18.033  0.00  0.00    +0.000 C 
BRANCH   9  10
ATOM     10  C   UNL     1       9.330  10.041  19.097  0.00  0.00    +0.000 C 
BRANCH  10  11
ATOM     11  N   UNL     1       9.193  11.462  19.424  0.00  0.00    +0.000 NA
ATOM     12  H   UNL     1       8.503  11.912  18.816  0.00  0.00    +0.000 HD
BRANCH  11  13
ATOM     13  C   UNL     1      10.458  12.174  19.273  0.00  0.00    +0.000 C 
BRANCH  13  15
ATOM     14  C   UNL     1      11.238  13.009  17.039  0.00  0.00    +0.000 C 
ATOM     15  C   UNL     1      10.306  13.262  18.210  0.00  0.00    +0.000 C 
ENDBRANCH  13  15
ENDBRANCH  11  13
ENDBRANCH  10  11
ENDBRANCH   9  10
ENDBRANCH   8   9
ENDBRANCH   7   8
ENDBRANCH   1   7
BRANCH   4  16
ATOM     16  O   UNL     1       3.992   3.422  17.873  0.00  0.00    +0.000 OA
BRANCH  16  17
ATOM     17  C   UNL     1       3.132   3.473  18.946  0.00  0.00    +0.000 A 
ATOM     18  C   UNL     1       3.560   2.790  20.088  0.00  0.00    +0.000 A 
ATOM     19  C   UNL     1       2.735   2.740  21.211  0.00  0.00    +0.000 A 
ATOM     20  C   UNL     1       1.498   3.381  21.196  0.00  0.00    +0.000 A 
ATOM     21  C   UNL     1       1.095   4.103  20.079  0.00  0.00    +0.000 A 
ATOM     22  C   UNL     1       1.930   4.175  18.962  0.00  0.00    +0.000 A 
ENDBRANCH  16  17
ENDBRANCH   4  16
TORSDOF 9
ENDMDL
MODEL 8
REMARK VINA RESULT:      -6.2      4.274      7.580
REMARK  Name = 
REMARK  10 active torsions:
REMARK  status: ('A' for Active; 'I' for Inactive)
REMARK    1  A    between atoms: C_1  and  C_2
REMARK    2  A    between atoms: C_2  and  C_3
REMARK    3  A    between atoms: C_3  and  N_4
REMARK    4  A    between atoms: N_4  and  C_5
REMARK    5  A    between atoms: C_5  and  C_6
REMARK    6  A    between atoms: C_6  and  C_7
REMARK    7  A    between atoms: C_7  and  O_8
REMARK    8  A    between atoms: O_8  and  C_9
REMARK    9  A    between atoms: C_12  and  O_13
REMARK   10  A    between atoms: O_13  and  C_14
REMARK                            x       y       z     vdW  Elec       q    Type
REMARK                         _______ _______ _______ _____ _____    ______ ____
ROOT
ATOM      1  C   UNL     1       2.440   6.965  19.439  0.00  0.00    +0.000 A 
ATOM      2  C   UNL     1       2.548   7.556  18.176  0.00  0.00    +0.000 A 
ATOM      3  C   UNL     1       1.945   8.778  17.900  0.00  0.00    +0.000 A 
ATOM      4  C   UNL     1       1.215   9.423  18.890  0.00  0.00    +0.000 A 
ATOM      5  C   UNL     1       1.145   8.870  20.172  0.00  0.00    +0.000 A 
ATOM      6  C   UNL     1       1.735   7.631  20.443  0.00  0.00    +0.000 A 
ENDROOT
BRANCH   1   7
ATOM      7  O   UNL     1       2.993   5.750  19.783  0.00  0.00    +0.000 OA
BRANCH   7   8
ATOM      8  C   UNL     1       4.289   5.560  19.217  0.00  0.00    +0.000 C 
BRANCH   8   9
ATOM      9  C   UNL     1       4.520   4.138  18.735  0.00  0.00    +0.000 C 
BRANCH   9  10
ATOM     10  C   UNL     1       3.851   3.915  17.373  0.00  0.00    +0.000 C 
BRANCH  10  11
ATOM     11  N   UNL     1       2.403   3.731  17.493  0.00  0.00    +0.000 NA
ATOM     12  H   UNL     1       1.986   4.473  18.063  0.00  0.00    +0.000 HD
BRANCH  11  13
ATOM     13  C   UNL     1       2.072   2.450  18.110  0.00  0.00    +0.000 C 
BRANCH  13  15
ATOM     14  C   UNL     1       1.155   2.948  20.392  0.00  0.00    +0.000 C 
ATOM     15  C   UNL     1       0.808   2.605  18.956  0.00  0.00    +0.000 C 
ENDBRANCH  13  15
ENDBRANCH  11  13
ENDBRANCH  10  11
ENDBRANCH   9  10
ENDBRANCH   8   9
ENDBRANCH   7   8
ENDBRANCH   1   7
BRANCH   4  16
ATOM     16  O   UNL     1       0.643  10.609  18.503  0.00  0.00    +0.000 OA
BRANCH  16  17
ATOM     17  C   UNL     1      -0.713  10.670  18.277  0.00  0.00    +0.000 A 
ATOM     18  C   UNL     1      -1.388  11.685  18.961  0.00  0.00    +0.000 A 
ATOM     19  C   UNL     1      -2.772  11.797  18.837  0.00  0.00    +0.000 A 
ATOM     20  C   UNL     1      -3.474  10.909  18.024  0.00  0.00    +0.000 A 
ATOM     21  C   UNL     1      -2.796   9.932  17.304  0.00  0.00    +0.000 A 
ATOM     22  C   UNL     1      -1.407   9.834  17.407  0.00  0.00    +0.000 A 
ENDBRANCH  16  17
ENDBRANCH   4  16
TORSDOF 9
ENDMDL
MODEL 9
REMARK VINA RESULT:      -6.2      5.031      7.825
REMARK  Name = 
REMARK  10 active torsions:
REMARK  status: ('A' for Active; 'I' for Inactive)
REMARK    1  A    between atoms: C_1  and  C_2
REMARK    2  A    between atoms: C_2  and  C_3
REMARK    3  A    between atoms: C_3  and  N_4
REMARK    4  A    between atoms: N_4  and  C_5
REMARK    5  A    between atoms: C_5  and  C_6
REMARK    6  A    between atoms: C_6  and  C_7
REMARK    7  A    between atoms: C_7  and  O_8
REMARK    8  A    between atoms: O_8  and  C_9
REMARK    9  A    between atoms: C_12  and  O_13
REMARK   10  A    between atoms: O_13  and  C_14
REMARK                            x       y       z     vdW  Elec       q    Type
REMARK                         _______ _______ _______ _____ _____    ______ ____
ROOT
ATOM      1  C   UNL     1       7.406   6.741  18.022  0.00  0.00    +0.000 A 
ATOM      2  C   UNL     1       6.485   7.101  17.033  0.00  0.00    +0.000 A 
ATOM      3  C   UNL     1       5.524   6.203  16.584  0.00  0.00    +0.000 A 
ATOM      4  C   UNL     1       5.478   4.922  17.119  0.00  0.00    +0.000 A 
ATOM      5  C   UNL     1       6.356   4.566  18.147  0.00  0.00    +0.000 A 
ATOM      6  C   UNL     1       7.337   5.464  18.583  0.00  0.00    +0.000 A 
ENDROOT
BRANCH   1   7
ATOM      7  O   UNL     1       8.399   7.568  18.504  0.00  0.00    +0.000 OA
BRANCH   7   8
ATOM      8  C   UNL     1       8.251   8.915  18.059  0.00  0.00    +0.000 C 
BRANCH   8   9
ATOM      9  C   UNL     1       8.982   9.912  18.942  0.00  0.00    +0.000 C 
BRANCH   9  10
ATOM     10  C   UNL     1       9.383  11.154  18.137  0.00  0.00    +0.000 C 
BRANCH  10  11
ATOM     11  N   UNL     1       9.276  12.383  18.927  0.00  0.00    +0.000 NA
ATOM     12  H   UNL     1       8.536  12.989  18.562  0.00  0.00    +0.000 HD
BRANCH  11  13
ATOM     13  C   UNL     1      10.524  13.141  18.916  0.00  0.00    +0.000 C 
BRANCH  13  15
ATOM     14  C   UNL     1       9.905  12.948  21.340  0.00  0.00    +0.000 C 
ATOM     15  C   UNL     1      10.923  13.486  20.350  0.00  0.00    +0.000 C 
ENDBRANCH  13  15
ENDBRANCH  11  13
ENDBRANCH  10  11
ENDBRANCH   9  10
ENDBRANCH   8   9
ENDBRANCH   7   8
ENDBRANCH   1   7
BRANCH   4  16
ATOM     16  O   UNL     1       4.506   4.111  16.588  0.00  0.00    +0.000 OA
BRANCH  16  17
ATOM     17  C   UNL     1       3.528   3.594  17.405  0.00  0.00    +0.000 A 
ATOM     18  C   UNL     1       2.474   4.463  17.700  0.00  0.00    +0.000 A 
ATOM     19  C   UNL     1       1.460   4.048  18.562  0.00  0.00    +0.000 A 
ATOM     20  C   UNL     1       1.492   2.770  19.113  0.00  0.00    +0.000 A 
ATOM     21  C   UNL     1       2.513   1.887  18.779  0.00  0.00    +0.000 A 
ATOM     22  C   UNL     1       3.517   2.291  17.898  0.00  0.00    +0.000 A 
ENDBRANCH  16  17
ENDBRANCH   4  16
TORSDOF 9
ENDMDL
