MODEL 1
REMARK VINA RESULT:      -8.1      0.000      0.000
REMARK  Name = 
REMARK  8 active torsions:
REMARK  status: ('A' for Active; 'I' for Inactive)
REMARK    1  A    between atoms: C_1  and  C_2
REMARK    2  A    between atoms: C_2  and  C_3
REMARK    3  A    between atoms: C_3  and  C_4
REMARK    4  A    between atoms: N_6  and  C_7
REMARK    5  A    between atoms: N_10  and  C_11
REMARK    6  A    between atoms: C_11  and  C_12
REMARK    7  A    between atoms: C_20  and  C_21
REMARK    8  A    between atoms: C_22  and  C_23
REMARK                            x       y       z     vdW  Elec       q    Type
REMARK                         _______ _______ _______ _____ _____    ______ ____
ROOT
ATOM      1  C   UNL     1       3.533   3.558  19.761  0.00  0.00    +0.000 A 
ATOM      2  N   UNL     1       2.696   3.983  20.719  0.00  0.00    +0.000 NA
ATOM      3  N   UNL     1       2.408   5.255  20.350  0.00  0.00    +0.000 N 
ATOM      4  C   UNL     1       1.477   5.999  21.166  0.00  0.00    +0.000 C 
ATOM      5  C   UNL     1       3.035   5.667  19.204  0.00  0.00    +0.000 A 
ATOM      6  C   UNL     1       3.073   6.835  18.442  0.00  0.00    +0.000 A 
ATOM      7  N   UNL     1       2.421   8.010  18.783  0.00  0.00    +0.000 N 
ATOM      8  N   UNL     1       3.850   6.799  17.329  0.00  0.00    +0.000 NA
ATOM      9  C   UNL     1       4.544   5.685  17.023  0.00  0.00    +0.000 A 
ATOM     10  N   UNL     1       4.551   4.541  17.709  0.00  0.00    +0.000 NA
ATOM     11  C   UNL     1       3.775   4.566  18.805  0.00  0.00    +0.000 A 
ATOM     12  H   UNL     1       1.755   7.966  19.534  0.00  0.00    +0.000 HD
ENDROOT
BRANCH   9  13
ATOM     13  C   UNL     1       5.374   5.669  15.819  0.00  0.00    +0.000 C 
ATOM     14  C   UNL     1       5.750   4.580  15.133  0.00  0.00    +0.000 C 
BRANCH  14  15
ATOM     15  C   UNL     1       6.589   4.715  13.990  0.00  0.00    +0.000 A 
ATOM     16  C   UNL     1       6.515   4.056  12.770  0.00  0.00    +0.000 A 
ATOM     17  C   UNL     1       7.578   4.518  11.955  0.00  0.00    +0.000 A 
ATOM     18  C   UNL     1       8.254   5.440  12.711  0.00  0.00    +0.000 A 
ATOM     19  O   UNL     1       7.674   5.567  13.927  0.00  0.00    +0.000 OA
ENDBRANCH  14  15
ENDBRANCH   9  13
BRANCH   1  20
ATOM     20  C   UNL     1       4.115   2.186  19.780  0.00  0.00    +0.000 C 
BRANCH  20  22
ATOM     21  C   UNL     1       2.346   1.872  18.017  0.00  0.00    +0.000 C 
ATOM     22  C   UNL     1       3.621   1.312  18.626  0.00  0.00    +0.000 C 
ENDBRANCH  20  22
ENDBRANCH   1  20
BRANCH   7  23
ATOM     23  C   UNL     1       2.030   8.896  17.698  0.00  0.00    +0.000 C 
BRANCH  23  24
ATOM     24  C   UNL     1       0.902   9.787  18.169  0.00  0.00    +0.000 A 
ATOM     25  C   UNL     1      -0.405   9.555  17.710  0.00  0.00    +0.000 A 
ATOM     26  C   UNL     1      -1.467  10.349  18.146  0.00  0.00    +0.000 A 
ATOM     27  C   UNL     1      -1.229  11.378  19.053  0.00  0.00    +0.000 A 
ATOM     28 BR   UNL     1      -2.663  12.456  19.645  0.00  0.00    +0.000 Br
ATOM     29  C   UNL     1       0.061  11.617  19.528  0.00  0.00    +0.000 A 
ATOM     30  C   UNL     1       1.125  10.822  19.088  0.00  0.00    +0.000 A 
ENDBRANCH  23  24
ENDBRANCH   7  23
TORSDOF 6
ENDMDL
MODEL 2
REMARK VINA RESULT:      -8.0      0.720      1.123
REMARK  Name = 
REMARK  8 active torsions:
REMARK  status: ('A' for Active; 'I' for Inactive)
REMARK    1  A    between atoms: C_1  and  C_2
REMARK    2  A    between atoms: C_2  and  C_3
REMARK    3  A    between atoms: C_3  and  C_4
REMARK    4  A    between atoms: N_6  and  C_7
REMARK    5  A    between atoms: N_10  and  C_11
REMARK    6  A    between atoms: C_11  and  C_12
REMARK    7  A    between atoms: C_20  and  C_21
REMARK    8  A    between atoms: C_22  and  C_23
REMARK                            x       y       z     vdW  Elec       q    Type
REMARK                         _______ _______ _______ _____ _____    ______ ____
ROOT
ATOM      1  C   UNL     1       3.416   3.706  19.824  0.00  0.00    +0.000 A 
ATOM      2  N   UNL     1       2.586   4.172  20.768  0.00  0.00    +0.000 NA
ATOM      3  N   UNL     1       2.324   5.440  20.367  0.00  0.00    +0.000 N 
ATOM      4  C   UNL     1       1.406   6.222  21.161  0.00  0.00    +0.000 C 
ATOM      5  C   UNL     1       2.961   5.810  19.212  0.00  0.00    +0.000 A 
ATOM      6  C   UNL     1       3.025   6.957  18.421  0.00  0.00    +0.000 A 
ATOM      7  N   UNL     1       2.396   8.153  18.730  0.00  0.00    +0.000 N 
ATOM      8  N   UNL     1       3.804   6.878  17.312  0.00  0.00    +0.000 NA
ATOM      9  C   UNL     1       4.476   5.743  17.036  0.00  0.00    +0.000 A 
ATOM     10  N   UNL     1       4.459   4.617  17.751  0.00  0.00    +0.000 NA
ATOM     11  C   UNL     1       3.680   4.685  18.843  0.00  0.00    +0.000 A 
ATOM     12  H   UNL     1       1.726   8.141  19.480  0.00  0.00    +0.000 HD
ENDROOT
BRANCH   9  13
ATOM     13  C   UNL     1       5.308   5.680  15.835  0.00  0.00    +0.000 C 
ATOM     14  C   UNL     1       5.540   4.589  15.090  0.00  0.00    +0.000 C 
BRANCH  14  15
ATOM     15  C   UNL     1       6.401   4.671  13.959  0.00  0.00    +0.000 A 
ATOM     16  C   UNL     1       6.385   3.917  12.793  0.00  0.00    +0.000 A 
ATOM     17  C   UNL     1       7.448   4.360  11.968  0.00  0.00    +0.000 A 
ATOM     18  C   UNL     1       8.067   5.365  12.664  0.00  0.00    +0.000 A 
ATOM     19  O   UNL     1       7.452   5.560  13.853  0.00  0.00    +0.000 OA
ENDBRANCH  14  15
ENDBRANCH   9  13
BRANCH   1  20
ATOM     20  C   UNL     1       3.971   2.324  19.880  0.00  0.00    +0.000 C 
BRANCH  20  22
ATOM     21  C   UNL     1       2.160   1.917  18.180  0.00  0.00    +0.000 C 
ATOM     22  C   UNL     1       3.500   1.445  18.720  0.00  0.00    +0.000 C 
ENDBRANCH  20  22
ENDBRANCH   1  20
BRANCH   7  23
ATOM     23  C   UNL     1       2.025   9.019  17.622  0.00  0.00    +0.000 C 
BRANCH  23  24
ATOM     24  C   UNL     1       1.320  10.243  18.165  0.00  0.00    +0.000 A 
ATOM     25  C   UNL     1       2.018  11.458  18.269  0.00  0.00    +0.000 A 
ATOM     26  C   UNL     1       1.385  12.607  18.744  0.00  0.00    +0.000 A 
ATOM     27  C   UNL     1       0.044  12.550  19.114  0.00  0.00    +0.000 A 
ATOM     28 BR   UNL     1      -0.816  14.103  19.760  0.00  0.00    +0.000 Br
ATOM     29  C   UNL     1      -0.668  11.355  19.008  0.00  0.00    +0.000 A 
ATOM     30  C   UNL     1      -0.032  10.203  18.534  0.00  0.00    +0.000 A 
ENDBRANCH  23  24
ENDBRANCH   7  23
TORSDOF 6
ENDMDL
MODEL 3
REMARK VINA RESULT:      -7.9      1.148      1.316
REMARK  Name = 
REMARK  8 active torsions:
REMARK  status: ('A' for Active; 'I' for Inactive)
REMARK    1  A    between atoms: C_1  and  C_2
REMARK    2  A    between atoms: C_2  and  C_3
REMARK    3  A    between atoms: C_3  and  C_4
REMARK    4  A    between atoms: N_6  and  C_7
REMARK    5  A    between atoms: N_10  and  C_11
REMARK    6  A    between atoms: C_11  and  C_12
REMARK    7  A    between atoms: C_20  and  C_21
REMARK    8  A    between atoms: C_22  and  C_23
REMARK                            x       y       z     vdW  Elec       q    Type
REMARK                         _______ _______ _______ _____ _____    ______ ____
ROOT
ATOM      1  C   UNL     1       2.789   4.078  19.980  0.00  0.00    +0.000 A 
ATOM      2  N   UNL     1       1.998   4.659  20.895  0.00  0.00    +0.000 NA
ATOM      3  N   UNL     1       1.912   5.944  20.474  0.00  0.00    +0.000 N 
ATOM      4  C   UNL     1       1.079   6.847  21.233  0.00  0.00    +0.000 C 
ATOM      5  C   UNL     1       2.624   6.214  19.336  0.00  0.00    +0.000 A 
ATOM      6  C   UNL     1       2.856   7.334  18.535  0.00  0.00    +0.000 A 
ATOM      7  N   UNL     1       2.376   8.604  18.814  0.00  0.00    +0.000 N 
ATOM      8  N   UNL     1       3.650   7.141  17.451  0.00  0.00    +0.000 NA
ATOM      9  C   UNL     1       4.179   5.926  17.207  0.00  0.00    +0.000 A 
ATOM     10  N   UNL     1       3.998   4.821  17.931  0.00  0.00    +0.000 NA
ATOM     11  C   UNL     1       3.204   5.002  18.999  0.00  0.00    +0.000 A 
ATOM     12  H   UNL     1       1.690   8.688  19.544  0.00  0.00    +0.000 HD
ENDROOT
BRANCH   9  13
ATOM     13  C   UNL     1       5.030   5.742  16.031  0.00  0.00    +0.000 C 
ATOM     14  C   UNL     1       5.226   4.592  15.370  0.00  0.00    +0.000 C 
BRANCH  14  15
ATOM     15  C   UNL     1       6.111   4.556  14.255  0.00  0.00    +0.000 A 
ATOM     16  C   UNL     1       6.097   3.707  13.155  0.00  0.00    +0.000 A 
ATOM     17  C   UNL     1       7.188   4.051  12.321  0.00  0.00    +0.000 A 
ATOM     18  C   UNL     1       7.822   5.093  12.944  0.00  0.00    +0.000 A 
ATOM     19  O   UNL     1       7.189   5.404  14.099  0.00  0.00    +0.000 OA
ENDBRANCH  14  15
ENDBRANCH   9  13
BRANCH   1  20
ATOM     20  C   UNL     1       3.161   2.638  20.066  0.00  0.00    +0.000 C 
BRANCH  20  22
ATOM     21  C   UNL     1       1.044   2.191  18.779  0.00  0.00    +0.000 C 
ATOM     22  C   UNL     1       2.494   1.784  18.986  0.00  0.00    +0.000 C 
ENDBRANCH  20  22
ENDBRANCH   1  20
BRANCH   7  23
ATOM     23  C   UNL     1       2.151   9.495  17.688  0.00  0.00    +0.000 C 
BRANCH  23  24
ATOM     24  C   UNL     1       1.558  10.792  18.193  0.00  0.00    +0.000 A 
ATOM     25  C   UNL     1       0.276  10.794  18.767  0.00  0.00    +0.000 A 
ATOM     26  C   UNL     1      -0.284  11.972  19.261  0.00  0.00    +0.000 A 
ATOM     27  C   UNL     1       0.440  13.160  19.190  0.00  0.00    +0.000 A 
ATOM     28 BR   UNL     1      -0.316  14.759  19.856  0.00  0.00    +0.000 Br
ATOM     29  C   UNL     1       1.718  13.176  18.633  0.00  0.00    +0.000 A 
ATOM     30  C   UNL     1       2.277  11.994  18.135  0.00  0.00    +0.000 A 
ENDBRANCH  23  24
ENDBRANCH   7  23
TORSDOF 6
ENDMDL
MODEL 4
REMARK VINA RESULT:      -7.6      1.006      1.383
REMARK  Name = 
REMARK  8 active torsions:
REMARK  status: ('A' for Active; 'I' for Inactive)
REMARK    1  A    between atoms: C_1  and  C_2
REMARK    2  A    between atoms: C_2  and  C_3
REMARK    3  A    between atoms: C_3  and  C_4
REMARK    4  A    between atoms: N_6  and  C_7
REMARK    5  A    between atoms: N_10  and  C_11
REMARK    6  A    between atoms: C_11  and  C_12
REMARK    7  A    between atoms: C_20  and  C_21
REMARK    8  A    between atoms: C_22  and  C_23
REMARK                            x       y       z     vdW  Elec       q    Type
REMARK                         _______ _______ _______ _____ _____    ______ ____
ROOT
ATOM      1  C   UNL     1       2.784   4.281  20.223  0.00  0.00    +0.000 A 
ATOM      2  N   UNL     1       2.003   4.857  21.148  0.00  0.00    +0.000 NA
ATOM      3  N   UNL     1       1.852   6.125  20.695  0.00  0.00    +0.000 N 
ATOM      4  C   UNL     1       1.011   7.018  21.457  0.00  0.00    +0.000 C 
ATOM      5  C   UNL     1       2.514   6.389  19.526  0.00  0.00    +0.000 A 
ATOM      6  C   UNL     1       2.675   7.493  18.687  0.00  0.00    +0.000 A 
ATOM      7  N   UNL     1       2.156   8.751  18.947  0.00  0.00    +0.000 N 
ATOM      8  N   UNL     1       3.439   7.299  17.581  0.00  0.00    +0.000 NA
ATOM      9  C   UNL     1       4.006   6.098  17.352  0.00  0.00    +0.000 A 
ATOM     10  N   UNL     1       3.893   5.008  18.113  0.00  0.00    +0.000 NA
ATOM     11  C   UNL     1       3.129   5.190  19.202  0.00  0.00    +0.000 A 
ATOM     12  H   UNL     1       1.492   8.830  19.698  0.00  0.00    +0.000 HD
ENDROOT
BRANCH   9  13
ATOM     13  C   UNL     1       4.824   5.912  16.153  0.00  0.00    +0.000 C 
ATOM     14  C   UNL     1       5.422   4.774  15.774  0.00  0.00    +0.000 C 
BRANCH  14  15
ATOM     15  C   UNL     1       6.216   4.749  14.592  0.00  0.00    +0.000 A 
ATOM     16  C   UNL     1       6.038   4.001  13.435  0.00  0.00    +0.000 A 
ATOM     17  C   UNL     1       7.095   4.309  12.545  0.00  0.00    +0.000 A 
ATOM     18  C   UNL     1       7.873   5.233  13.194  0.00  0.00    +0.000 A 
ATOM     19  O   UNL     1       7.359   5.504  14.416  0.00  0.00    +0.000 OA
ENDBRANCH  14  15
ENDBRANCH   9  13
BRANCH   1  20
ATOM     20  C   UNL     1       3.214   2.858  20.335  0.00  0.00    +0.000 C 
BRANCH  20  22
ATOM     21  C   UNL     1       1.388   2.130  18.764  0.00  0.00    +0.000 C 
ATOM     22  C   UNL     1       2.073   1.869  20.095  0.00  0.00    +0.000 C 
ENDBRANCH  20  22
ENDBRANCH   1  20
BRANCH   7  23
ATOM     23  C   UNL     1       1.858   9.600  17.805  0.00  0.00    +0.000 C 
BRANCH  23  24
ATOM     24  C   UNL     1       0.429  10.086  17.908  0.00  0.00    +0.000 A 
ATOM     25  C   UNL     1       0.139  11.242  18.653  0.00  0.00    +0.000 A 
ATOM     26  C   UNL     1      -1.167  11.723  18.745  0.00  0.00    +0.000 A 
ATOM     27  C   UNL     1      -2.195  11.054  18.085  0.00  0.00    +0.000 A 
ATOM     28 BR   UNL     1      -3.965  11.701  18.210  0.00  0.00    +0.000 Br
ATOM     29  C   UNL     1      -1.925   9.910  17.334  0.00  0.00    +0.000 A 
ATOM     30  C   UNL     1      -0.616   9.427  17.244  0.00  0.00    +0.000 A 
ENDBRANCH  23  24
ENDBRANCH   7  23
TORSDOF 6
ENDMDL
MODEL 5
REMARK VINA RESULT:      -7.4      5.953     11.356
REMARK  Name = 
REMARK  8 active torsions:
REMARK  status: ('A' for Active; 'I' for Inactive)
REMARK    1  A    between atoms: C_1  and  C_2
REMARK    2  A    between atoms: C_2  and  C_3
REMARK    3  A    between atoms: C_3  and  C_4
REMARK    4  A    between atoms: N_6  and  C_7
REMARK    5  A    between atoms: N_10  and  C_11
REMARK    6  A    between atoms: C_11  and  C_12
REMARK    7  A    between atoms: C_20  and  C_21
REMARK    8  A    between atoms: C_22  and  C_23
REMARK                            x       y       z     vdW  Elec       q    Type
REMARK                         _______ _______ _______ _____ _____    ______ ____
ROOT
ATOM      1  C   UNL     1      -4.849  11.497  17.914  0.00  0.00    +0.000 A 
ATOM      2  N   UNL     1      -4.390  10.784  16.875  0.00  0.00    +0.000 NA
ATOM      3  N   UNL     1      -3.056  10.709  17.101  0.00  0.00    +0.000 N 
ATOM      4  C   UNL     1      -2.255   9.954  16.167  0.00  0.00    +0.000 C 
ATOM      5  C   UNL     1      -2.639  11.356  18.235  0.00  0.00    +0.000 A 
ATOM      6  C   UNL     1      -1.421  11.570  18.881  0.00  0.00    +0.000 A 
ATOM      7  N   UNL     1      -0.195  11.148  18.392  0.00  0.00    +0.000 N 
ATOM      8  N   UNL     1      -1.472  12.287  20.033  0.00  0.00    +0.000 NA
ATOM      9  C   UNL     1      -2.649  12.763  20.483  0.00  0.00    +0.000 A 
ATOM     10  N   UNL     1      -3.844  12.595  19.913  0.00  0.00    +0.000 NA
ATOM     11  C   UNL     1      -3.802  11.876  18.779  0.00  0.00    +0.000 A 
ATOM     12  H   UNL     1      -0.203  10.512  17.613  0.00  0.00    +0.000 HD
ENDROOT
BRANCH   9  13
ATOM     13  C   UNL     1      -2.680  13.532  21.727  0.00  0.00    +0.000 C 
ATOM     14  C   UNL     1      -1.754  13.505  22.696  0.00  0.00    +0.000 C 
BRANCH  14  15
ATOM     15  C   UNL     1      -1.932  14.288  23.871  0.00  0.00    +0.000 A 
ATOM     16  C   UNL     1      -1.081  15.235  24.428  0.00  0.00    +0.000 A 
ATOM     17  C   UNL     1      -1.690  15.735  25.605  0.00  0.00    +0.000 A 
ATOM     18  C   UNL     1      -2.885  15.075  25.717  0.00  0.00    +0.000 A 
ATOM     19  O   UNL     1      -3.042  14.210  24.689  0.00  0.00    +0.000 OA
ENDBRANCH  14  15
ENDBRANCH   9  13
BRANCH   1  20
ATOM     20  C   UNL     1      -6.294  11.829  18.060  0.00  0.00    +0.000 C 
BRANCH  20  22
ATOM     21  C   UNL     1      -7.290  11.359  20.322  0.00  0.00    +0.000 C 
ATOM     22  C   UNL     1      -7.055  10.820  18.921  0.00  0.00    +0.000 C 
ENDBRANCH  20  22
ENDBRANCH   1  20
BRANCH   7  23
ATOM     23  C   UNL     1       0.854  10.878  19.362  0.00  0.00    +0.000 C 
BRANCH  23  24
ATOM     24  C   UNL     1       1.444   9.512  19.087  0.00  0.00    +0.000 A 
ATOM     25  C   UNL     1       1.965   9.223  17.815  0.00  0.00    +0.000 A 
ATOM     26  C   UNL     1       2.535   7.979  17.542  0.00  0.00    +0.000 A 
ATOM     27  C   UNL     1       2.594   7.015  18.545  0.00  0.00    +0.000 A 
ATOM     28 BR   UNL     1       3.363   5.328  18.180  0.00  0.00    +0.000 Br
ATOM     29  C   UNL     1       2.092   7.287  19.818  0.00  0.00    +0.000 A 
ATOM     30  C   UNL     1       1.518   8.534  20.089  0.00  0.00    +0.000 A 
ENDBRANCH  23  24
ENDBRANCH   7  23
TORSDOF 6
ENDMDL
MODEL 6
REMARK VINA RESULT:      -7.3      6.361     11.674
REMARK  Name = 
REMARK  8 active torsions:
REMARK  status: ('A' for Active; 'I' for Inactive)
REMARK    1  A    between atoms: C_1  and  C_2
REMARK    2  A    between atoms: C_2  and  C_3
REMARK    3  A    between atoms: C_3  and  C_4
REMARK    4  A    between atoms: N_6  and  C_7
REMARK    5  A    between atoms: N_10  and  C_11
REMARK    6  A    between atoms: C_11  and  C_12
REMARK    7  A    between atoms: C_20  and  C_21
REMARK    8  A    between atoms: C_22  and  C_23
REMARK                            x       y       z     vdW  Elec       q    Type
REMARK                         _______ _______ _______ _____ _____    ______ ____
ROOT
ATOM      1  C   UNL     1      -5.077  11.318  17.933  0.00  0.00    +0.000 A 
ATOM      2  N   UNL     1      -4.569  10.721  16.845  0.00  0.00    +0.000 NA
ATOM      3  N   UNL     1      -3.229  10.844  17.008  0.00  0.00    +0.000 N 
ATOM      4  C   UNL     1      -2.371  10.254  16.007  0.00  0.00    +0.000 C 
ATOM      5  C   UNL     1      -2.858  11.506  18.148  0.00  0.00    +0.000 A 
ATOM      6  C   UNL     1      -1.655  11.882  18.747  0.00  0.00    +0.000 A 
ATOM      7  N   UNL     1      -0.406  11.670  18.186  0.00  0.00    +0.000 N 
ATOM      8  N   UNL     1      -1.755  12.542  19.929  0.00  0.00    +0.000 NA
ATOM      9  C   UNL     1      -2.967  12.815  20.452  0.00  0.00    +0.000 A 
ATOM     10  N   UNL     1      -4.150  12.486  19.930  0.00  0.00    +0.000 NA
ATOM     11  C   UNL     1      -4.057  11.822  18.765  0.00  0.00    +0.000 A 
ATOM     12  H   UNL     1      -0.357  11.068  17.382  0.00  0.00    +0.000 HD
ENDROOT
BRANCH   9  13
ATOM     13  C   UNL     1      -3.050  13.526  21.728  0.00  0.00    +0.000 C 
ATOM     14  C   UNL     1      -3.420  14.804  21.898  0.00  0.00    +0.000 C 
BRANCH  14  15
ATOM     15  C   UNL     1      -3.425  15.374  23.202  0.00  0.00    +0.000 A 
ATOM     16  C   UNL     1      -2.496  15.226  24.224  0.00  0.00    +0.000 A 
ATOM     17  C   UNL     1      -2.943  15.977  25.338  0.00  0.00    +0.000 A 
ATOM     18  C   UNL     1      -4.125  16.552  24.950  0.00  0.00    +0.000 A 
ATOM     19  O   UNL     1      -4.424  16.201  23.678  0.00  0.00    +0.000 OA
ENDBRANCH  14  15
ENDBRANCH   9  13
BRANCH   1  20
ATOM     20  C   UNL     1      -6.547  11.419  18.157  0.00  0.00    +0.000 C 
BRANCH  20  22
ATOM     21  C   UNL     1      -7.446  10.904  20.451  0.00  0.00    +0.000 C 
ATOM     22  C   UNL     1      -7.084  10.333  19.090  0.00  0.00    +0.000 C 
ENDBRANCH  20  22
ENDBRANCH   1  20
BRANCH   7  23
ATOM     23  C   UNL     1       0.720  11.530  19.096  0.00  0.00    +0.000 C 
BRANCH  23  24
ATOM     24  C   UNL     1       1.220  10.103  19.050  0.00  0.00    +0.000 A 
ATOM     25  C   UNL     1       1.835   9.618  17.884  0.00  0.00    +0.000 A 
ATOM     26  C   UNL     1       2.324   8.313  17.824  0.00  0.00    +0.000 A 
ATOM     27  C   UNL     1       2.208   7.484  18.936  0.00  0.00    +0.000 A 
ATOM     28 BR   UNL     1       2.868   5.715  18.859  0.00  0.00    +0.000 Br
ATOM     29  C   UNL     1       1.610   7.950  20.107  0.00  0.00    +0.000 A 
ATOM     30  C   UNL     1       1.116   9.258  20.164  0.00  0.00    +0.000 A 
ENDBRANCH  23  24
ENDBRANCH   7  23
TORSDOF 6
ENDMDL
MODEL 7
REMARK VINA RESULT:      -7.3      0.557      1.244
REMARK  Name = 
REMARK  8 active torsions:
REMARK  status: ('A' for Active; 'I' for Inactive)
REMARK    1  A    between atoms: C_1  and  C_2
REMARK    2  A    between atoms: C_2  and  C_3
REMARK    3  A    between atoms: C_3  and  C_4
REMARK    4  A    between atoms: N_6  and  C_7
REMARK    5  A    between atoms: N_10  and  C_11
REMARK    6  A    between atoms: C_11  and  C_12
REMARK    7  A    between atoms: C_20  and  C_21
REMARK    8  A    between atoms: C_22  and  C_23
REMARK                            x       y       z     vdW  Elec       q    Type
REMARK                         _______ _______ _______ _____ _____    ______ ____
ROOT
ATOM      1  C   UNL     1       2.580   3.307  19.230  0.00  0.00    +0.000 A 
ATOM      2  N   UNL     1       1.829   3.764  20.242  0.00  0.00    +0.000 NA
ATOM      3  N   UNL     1       1.843   5.108  20.070  0.00  0.00    +0.000 N 
ATOM      4  C   UNL     1       1.075   5.913  20.991  0.00  0.00    +0.000 C 
ATOM      5  C   UNL     1       2.582   5.532  18.998  0.00  0.00    +0.000 A 
ATOM      6  C   UNL     1       2.905   6.760  18.420  0.00  0.00    +0.000 A 
ATOM      7  N   UNL     1       2.521   7.988  18.936  0.00  0.00    +0.000 N 
ATOM      8  N   UNL     1       3.690   6.714  17.314  0.00  0.00    +0.000 NA
ATOM      9  C   UNL     1       4.127   5.530  16.842  0.00  0.00    +0.000 A 
ATOM     10  N   UNL     1       3.857   4.326  17.348  0.00  0.00    +0.000 NA
ATOM     11  C   UNL     1       3.071   4.364  18.436  0.00  0.00    +0.000 A 
ATOM     12  H   UNL     1       1.837   7.986  19.673  0.00  0.00    +0.000 HD
ENDROOT
BRANCH   9  13
ATOM     13  C   UNL     1       4.971   5.505  15.648  0.00  0.00    +0.000 C 
ATOM     14  C   UNL     1       5.832   4.535  15.308  0.00  0.00    +0.000 C 
BRANCH  14  15
ATOM     15  C   UNL     1       6.613   4.661  14.125  0.00  0.00    +0.000 A 
ATOM     16  C   UNL     1       6.479   3.993  12.914  0.00  0.00    +0.000 A 
ATOM     17  C   UNL     1       7.501   4.448  12.045  0.00  0.00    +0.000 A 
ATOM     18  C   UNL     1       8.215   5.374  12.760  0.00  0.00    +0.000 A 
ATOM     19  O   UNL     1       7.695   5.510  14.002  0.00  0.00    +0.000 OA
ENDBRANCH  14  15
ENDBRANCH   9  13
BRANCH   1  20
ATOM     20  C   UNL     1       2.840   1.851  19.041  0.00  0.00    +0.000 C 
BRANCH  20  22
ATOM     21  C   UNL     1       4.819   1.800  20.596  0.00  0.00    +0.000 C 
ATOM     22  C   UNL     1       4.317   1.484  19.197  0.00  0.00    +0.000 C 
ENDBRANCH  20  22
ENDBRANCH   1  20
BRANCH   7  23
ATOM     23  C   UNL     1       2.372   9.090  17.998  0.00  0.00    +0.000 C 
BRANCH  23  24
ATOM     24  C   UNL     1       1.120   9.866  18.341  0.00  0.00    +0.000 A 
ATOM     25  C   UNL     1       1.202  10.973  19.202  0.00  0.00    +0.000 A 
ATOM     26  C   UNL     1       0.066  11.720  19.516  0.00  0.00    +0.000 A 
ATOM     27  C   UNL     1      -1.162  11.368  18.963  0.00  0.00    +0.000 A 
ATOM     28 BR   UNL     1      -2.704  12.375  19.387  0.00  0.00    +0.000 Br
ATOM     29  C   UNL     1      -1.262  10.279  18.097  0.00  0.00    +0.000 A 
ATOM     30  C   UNL     1      -0.123   9.529  17.786  0.00  0.00    +0.000 A 
ENDBRANCH  23  24
ENDBRANCH   7  23
TORSDOF 6
ENDMDL
MODEL 8
REMARK VINA RESULT:      -7.2      5.020      9.909
REMARK  Name = 
REMARK  8 active torsions:
REMARK  status: ('A' for Active; 'I' for Inactive)
REMARK    1  A    between atoms: C_1  and  C_2
REMARK    2  A    between atoms: C_2  and  C_3
REMARK    3  A    between atoms: C_3  and  C_4
REMARK    4  A    between atoms: N_6  and  C_7
REMARK    5  A    between atoms: N_10  and  C_11
REMARK    6  A    between atoms: C_11  and  C_12
REMARK    7  A    between atoms: C_20  and  C_21
REMARK    8  A    between atoms: C_22  and  C_23
REMARK                            x       y       z     vdW  Elec       q    Type
REMARK                         _______ _______ _______ _____ _____    ______ ____
ROOT
ATOM      1  C   UNL     1      -1.198  11.796  22.597  0.00  0.00    +0.000 A 
ATOM      2  N   UNL     1      -1.104  10.506  22.951  0.00  0.00    +0.000 NA
ATOM      3  N   UNL     1      -0.474   9.930  21.898  0.00  0.00    +0.000 N 
ATOM      4  C   UNL     1      -0.174   8.520  21.980  0.00  0.00    +0.000 C 
ATOM      5  C   UNL     1      -0.172  10.795  20.880  0.00  0.00    +0.000 A 
ATOM      6  C   UNL     1       0.442  10.703  19.630  0.00  0.00    +0.000 A 
ATOM      7  N   UNL     1       0.888   9.518  19.066  0.00  0.00    +0.000 N 
ATOM      8  N   UNL     1       0.545  11.860  18.926  0.00  0.00    +0.000 NA
ATOM      9  C   UNL     1       0.053  13.007  19.434  0.00  0.00    +0.000 A 
ATOM     10  N   UNL     1      -0.545  13.160  20.617  0.00  0.00    +0.000 NA
ATOM     11  C   UNL     1      -0.639  12.022  21.323  0.00  0.00    +0.000 A 
ATOM     12  H   UNL     1       0.918   8.708  19.660  0.00  0.00    +0.000 HD
ENDROOT
BRANCH   9  13
ATOM     13  C   UNL     1       0.176  14.242  18.659  0.00  0.00    +0.000 C 
ATOM     14  C   UNL     1       0.406  15.466  19.154  0.00  0.00    +0.000 C 
BRANCH  14  15
ATOM     15  C   UNL     1       0.472  16.586  18.277  0.00  0.00    +0.000 A 
ATOM     16  C   UNL     1      -0.566  17.344  17.749  0.00  0.00    +0.000 A 
ATOM     17  C   UNL     1      -0.002  18.343  16.918  0.00  0.00    +0.000 A 
ATOM     18  C   UNL     1       1.354  18.154  16.975  0.00  0.00    +0.000 A 
ATOM     19  O   UNL     1       1.650  17.110  17.783  0.00  0.00    +0.000 OA
ENDBRANCH  14  15
ENDBRANCH   9  13
BRANCH   1  20
ATOM     20  C   UNL     1      -1.846  12.806  23.481  0.00  0.00    +0.000 C 
BRANCH  20  22
ATOM     21  C   UNL     1      -4.136  12.899  22.441  0.00  0.00    +0.000 C 
ATOM     22  C   UNL     1      -3.339  12.548  23.687  0.00  0.00    +0.000 C 
ENDBRANCH  20  22
ENDBRANCH   1  20
BRANCH   7  23
ATOM     23  C   UNL     1       1.995   9.601  18.126  0.00  0.00    +0.000 C 
BRANCH  23  24
ATOM     24  C   UNL     1       2.576   8.219  17.922  0.00  0.00    +0.000 A 
ATOM     25  C   UNL     1       3.826   8.075  17.298  0.00  0.00    +0.000 A 
ATOM     26  C   UNL     1       4.394   6.814  17.118  0.00  0.00    +0.000 A 
ATOM     27  C   UNL     1       3.716   5.684  17.569  0.00  0.00    +0.000 A 
ATOM     28 BR   UNL     1       4.481   3.974  17.325  0.00  0.00    +0.000 Br
ATOM     29  C   UNL     1       2.478   5.807  18.200  0.00  0.00    +0.000 A 
ATOM     30  C   UNL     1       1.909   7.072  18.377  0.00  0.00    +0.000 A 
ENDBRANCH  23  24
ENDBRANCH   7  23
TORSDOF 6
ENDMDL
MODEL 9
REMARK VINA RESULT:      -7.2      3.842      7.037
REMARK  Name = 
REMARK  8 active torsions:
REMARK  status: ('A' for Active; 'I' for Inactive)
REMARK    1  A    between atoms: C_1  and  C_2
REMARK    2  A    between atoms: C_2  and  C_3
REMARK    3  A    between atoms: C_3  and  C_4
REMARK    4  A    between atoms: N_6  and  C_7
REMARK    5  A    between atoms: N_10  and  C_11
REMARK    6  A    between atoms: C_11  and  C_12
REMARK    7  A    between atoms: C_20  and  C_21
REMARK    8  A    between atoms: C_22  and  C_23
REMARK                            x       y       z     vdW  Elec       q    Type
REMARK                         _______ _______ _______ _____ _____    ______ ____
ROOT
ATOM      1  C   UNL     1      -2.464  10.506  17.891  0.00  0.00    +0.000 A 
ATOM      2  N   UNL     1      -3.130  11.451  18.570  0.00  0.00    +0.000 NA
ATOM      3  N   UNL     1      -2.186  11.989  19.380  0.00  0.00    +0.000 N 
ATOM      4  C   UNL     1      -2.575  13.089  20.231  0.00  0.00    +0.000 C 
ATOM      5  C   UNL     1      -0.946  11.419  19.258  0.00  0.00    +0.000 A 
ATOM      6  C   UNL     1       0.307  11.600  19.844  0.00  0.00    +0.000 A 
ATOM      7  N   UNL     1       0.567  12.499  20.866  0.00  0.00    +0.000 N 
ATOM      8  N   UNL     1       1.300  10.789  19.398  0.00  0.00    +0.000 NA
ATOM      9  C   UNL     1       1.045   9.863  18.453  0.00  0.00    +0.000 A 
ATOM     10  N   UNL     1      -0.127   9.639  17.856  0.00  0.00    +0.000 NA
ATOM     11  C   UNL     1      -1.111  10.447  18.285  0.00  0.00    +0.000 A 
ATOM     12  H   UNL     1      -0.150  13.171  21.082  0.00  0.00    +0.000 HD
ENDROOT
BRANCH   9  13
ATOM     13  C   UNL     1       2.131   9.001  17.986  0.00  0.00    +0.000 C 
ATOM     14  C   UNL     1       2.355   7.735  18.367  0.00  0.00    +0.000 C 
BRANCH  14  15
ATOM     15  C   UNL     1       3.475   7.025  17.849  0.00  0.00    +0.000 A 
ATOM     16  C   UNL     1       4.143   5.933  18.388  0.00  0.00    +0.000 A 
ATOM     17  C   UNL     1       5.202   5.589  17.513  0.00  0.00    +0.000 A 
ATOM     18  C   UNL     1       5.135   6.483  16.476  0.00  0.00    +0.000 A 
ATOM     19  O   UNL     1       4.109   7.345  16.664  0.00  0.00    +0.000 OA
ENDBRANCH  14  15
ENDBRANCH   9  13
BRANCH   1  20
ATOM     20  C   UNL     1      -3.138   9.647  16.877  0.00  0.00    +0.000 C 
BRANCH  20  22
ATOM     21  C   UNL     1      -3.787  10.132  14.494  0.00  0.00    +0.000 C 
ATOM     22  C   UNL     1      -2.633   9.894  15.455  0.00  0.00    +0.000 C 
ENDBRANCH  20  22
ENDBRANCH   1  20
BRANCH   7  23
ATOM     23  C   UNL     1       1.918  13.027  20.965  0.00  0.00    +0.000 C 
BRANCH  23  24
ATOM     24  C   UNL     1       2.095  14.131  19.945  0.00  0.00    +0.000 A 
ATOM     25  C   UNL     1       3.086  14.012  18.957  0.00  0.00    +0.000 A 
ATOM     26  C   UNL     1       3.254  15.005  17.991  0.00  0.00    +0.000 A 
ATOM     27  C   UNL     1       2.426  16.124  18.004  0.00  0.00    +0.000 A 
ATOM     28 BR   UNL     1       2.652  17.473  16.700  0.00  0.00    +0.000 Br
ATOM     29  C   UNL     1       1.430  16.255  18.972  0.00  0.00    +0.000 A 
ATOM     30  C   UNL     1       1.264  15.260  19.941  0.00  0.00    +0.000 A 
ENDBRANCH  23  24
ENDBRANCH   7  23
TORSDOF 6
ENDMDL
