MODEL 1
REMARK VINA RESULT:      -9.3      0.000      0.000
REMARK  Name = 
REMARK  7 active torsions:
REMARK  status: ('A' for Active; 'I' for Inactive)
REMARK    1  A    between atoms: C_1  and  N_2
REMARK    2  A    between atoms: N_6  and  C_7
REMARK    3  A    between atoms: C_7  and  C_8
REMARK    4  A    between atoms: C_11  and  C_12
REMARK    5  A    between atoms: C_17  and  C_18
REMARK    6  A    between atoms: C_18  and  O_20
REMARK    7  A    between atoms: O_20  and  C_21
REMARK                            x       y       z     vdW  Elec       q    Type
REMARK                         _______ _______ _______ _____ _____    ______ ____
ROOT
ATOM      1  C   UNL     1       1.386  10.177  18.834  0.00  0.00    +0.000 C 
ENDROOT
BRANCH   1   7
ATOM      2  C   UNL     1      -2.832  12.546  22.370  0.00  0.00    +0.000 C 
ATOM      3  N   UNL     1      -1.647  12.534  21.545  0.00  0.00    +0.000 N 
ATOM      4  C   UNL     1      -1.838  12.009  20.274  0.00  0.00    +0.000 A 
ATOM      5  N   UNL     1      -0.780  11.398  19.742  0.00  0.00    +0.000 NA
ATOM      6  C   UNL     1      -0.904  10.868  18.510  0.00  0.00    +0.000 A 
ATOM      7  N   UNL     1       0.239  10.279  17.931  0.00  0.00    +0.000 N 
ATOM      8  C   UNL     1      -2.108  10.950  17.785  0.00  0.00    +0.000 A 
ATOM      9  C   UNL     1      -2.344  10.437  16.479  0.00  0.00    +0.000 A 
ATOM     10  C   UNL     1      -3.585  10.588  15.864  0.00  0.00    +0.000 A 
ATOM     11  C   UNL     1      -4.606  11.250  16.536  0.00  0.00    +0.000 A 
ATOM     12  C   UNL     1      -4.375  11.751  17.816  0.00  0.00    +0.000 A 
ATOM     13  C   UNL     1      -3.148  11.610  18.445  0.00  0.00    +0.000 A 
ATOM     14  N   UNL     1      -3.017  12.123  19.670  0.00  0.00    +0.000 NA
ATOM     15  H   UNL     1      -0.838  12.065  21.933  0.00  0.00    +0.000 HD
ATOM     16  H   UNL     1       0.014   9.383  17.511  0.00  0.00    +0.000 HD
ENDBRANCH   1   7
BRANCH   1  17
ATOM     17  C   UNL     1       1.844   8.740  18.888  0.00  0.00    +0.000 A 
ATOM     18  C   UNL     1       2.381   8.134  17.751  0.00  0.00    +0.000 A 
ATOM     19  C   UNL     1       2.744   6.783  17.761  0.00  0.00    +0.000 A 
ATOM     20  C   UNL     1       2.534   5.974  18.887  0.00  0.00    +0.000 A 
ATOM     21  C   UNL     1       2.050   6.620  20.047  0.00  0.00    +0.000 A 
ATOM     22  C   UNL     1       1.720   7.981  20.053  0.00  0.00    +0.000 A 
BRANCH  20  23
ATOM     23  C   UNL     1       2.813   4.513  18.881  0.00  0.00    +0.000 A 
ATOM     24  C   UNL     1       1.715   3.617  18.874  0.00  0.00    +0.000 A 
ATOM     25  C   UNL     1       1.877   2.229  18.844  0.00  0.00    +0.000 A 
ATOM     26  C   UNL     1       3.149   1.682  18.847  0.00  0.00    +0.000 A 
ATOM     27  C   UNL     1       4.257   2.524  18.867  0.00  0.00    +0.000 A 
ATOM     28  C   UNL     1       4.106   3.928  18.878  0.00  0.00    +0.000 A 
BRANCH  28  29
ATOM     29  C   UNL     1       5.369   4.722  18.804  0.00  0.00    +0.000 C 
ATOM     30  O   UNL     1       5.848   5.378  19.710  0.00  0.00    +0.000 OA
BRANCH  29  31
ATOM     31  O   UNL     1       5.898   4.591  17.555  0.00  0.00    +0.000 OA
ATOM     32  C   UNL     1       7.323   4.692  17.496  0.00  0.00    +0.000 C 
ENDBRANCH  29  31
ENDBRANCH  28  29
ENDBRANCH  20  23
ENDBRANCH   1  17
TORSDOF 5
ENDMDL
MODEL 2
REMARK VINA RESULT:      -8.9      1.029      1.176
REMARK  Name = 
REMARK  7 active torsions:
REMARK  status: ('A' for Active; 'I' for Inactive)
REMARK    1  A    between atoms: C_1  and  N_2
REMARK    2  A    between atoms: N_6  and  C_7
REMARK    3  A    between atoms: C_7  and  C_8
REMARK    4  A    between atoms: C_11  and  C_12
REMARK    5  A    between atoms: C_17  and  C_18
REMARK    6  A    between atoms: C_18  and  O_20
REMARK    7  A    between atoms: O_20  and  C_21
REMARK                            x       y       z     vdW  Elec       q    Type
REMARK                         _______ _______ _______ _____ _____    ______ ____
ROOT
ATOM      1  C   UNL     1       0.919  10.742  19.154  0.00  0.00    +0.000 C 
ENDROOT
BRANCH   1   7
ATOM      2  C   UNL     1      -3.270  12.689  22.970  0.00  0.00    +0.000 C 
ATOM      3  N   UNL     1      -2.111  12.782  22.114  0.00  0.00    +0.000 N 
ATOM      4  C   UNL     1      -2.323  12.342  20.814  0.00  0.00    +0.000 A 
ATOM      5  N   UNL     1      -1.260  11.811  20.209  0.00  0.00    +0.000 NA
ATOM      6  C   UNL     1      -1.402  11.367  18.945  0.00  0.00    +0.000 A 
ATOM      7  N   UNL     1      -0.257  10.865  18.294  0.00  0.00    +0.000 N 
ATOM      8  C   UNL     1      -2.630  11.454  18.263  0.00  0.00    +0.000 A 
ATOM      9  C   UNL     1      -2.888  11.028  16.930  0.00  0.00    +0.000 A 
ATOM     10  C   UNL     1      -4.152  11.176  16.362  0.00  0.00    +0.000 A 
ATOM     11  C   UNL     1      -5.175  11.749  17.109  0.00  0.00    +0.000 A 
ATOM     12  C   UNL     1      -4.922  12.165  18.415  0.00  0.00    +0.000 A 
ATOM     13  C   UNL     1      -3.673  12.026  18.998  0.00  0.00    +0.000 A 
ATOM     14  N   UNL     1      -3.523  12.454  20.253  0.00  0.00    +0.000 NA
ATOM     15  H   UNL     1      -1.275  12.317  22.444  0.00  0.00    +0.000 HD
ATOM     16  H   UNL     1      -0.463   9.993  17.816  0.00  0.00    +0.000 HD
ENDBRANCH   1   7
BRANCH   1  17
ATOM     17  C   UNL     1       1.530   9.375  18.963  0.00  0.00    +0.000 A 
ATOM     18  C   UNL     1       2.050   9.010  17.719  0.00  0.00    +0.000 A 
ATOM     19  C   UNL     1       2.553   7.723  17.503  0.00  0.00    +0.000 A 
ATOM     20  C   UNL     1       2.506   6.737  18.499  0.00  0.00    +0.000 A 
ATOM     21  C   UNL     1       2.035   7.144  19.767  0.00  0.00    +0.000 A 
ATOM     22  C   UNL     1       1.565   8.442  20.000  0.00  0.00    +0.000 A 
BRANCH  20  23
ATOM     23  C   UNL     1       2.937   5.334  18.252  0.00  0.00    +0.000 A 
ATOM     24  C   UNL     1       1.939   4.350  18.044  0.00  0.00    +0.000 A 
ATOM     25  C   UNL     1       2.246   3.012  17.782  0.00  0.00    +0.000 A 
ATOM     26  C   UNL     1       3.568   2.601  17.746  0.00  0.00    +0.000 A 
ATOM     27  C   UNL     1       4.581   3.532  17.958  0.00  0.00    +0.000 A 
ATOM     28  C   UNL     1       4.284   4.890  18.204  0.00  0.00    +0.000 A 
BRANCH  28  29
ATOM     29  C   UNL     1       5.458   5.805  18.323  0.00  0.00    +0.000 C 
ATOM     30  O   UNL     1       5.823   6.603  17.478  0.00  0.00    +0.000 OA
BRANCH  29  31
ATOM     31  O   UNL     1       6.054   5.601  19.530  0.00  0.00    +0.000 OA
ATOM     32  C   UNL     1       7.484   5.624  19.502  0.00  0.00    +0.000 C 
ENDBRANCH  29  31
ENDBRANCH  28  29
ENDBRANCH  20  23
ENDBRANCH   1  17
TORSDOF 5
ENDMDL
MODEL 3
REMARK VINA RESULT:      -8.9      1.454      2.833
REMARK  Name = 
REMARK  7 active torsions:
REMARK  status: ('A' for Active; 'I' for Inactive)
REMARK    1  A    between atoms: C_1  and  N_2
REMARK    2  A    between atoms: N_6  and  C_7
REMARK    3  A    between atoms: C_7  and  C_8
REMARK    4  A    between atoms: C_11  and  C_12
REMARK    5  A    between atoms: C_17  and  C_18
REMARK    6  A    between atoms: C_18  and  O_20
REMARK    7  A    between atoms: O_20  and  C_21
REMARK                            x       y       z     vdW  Elec       q    Type
REMARK                         _______ _______ _______ _____ _____    ______ ____
ROOT
ATOM      1  C   UNL     1       1.333  10.508  18.318  0.00  0.00    +0.000 C 
ENDROOT
BRANCH   1   7
ATOM      2  C   UNL     1      -3.502  10.343  14.783  0.00  0.00    +0.000 C 
ATOM      3  N   UNL     1      -2.475   9.814  15.648  0.00  0.00    +0.000 N 
ATOM      4  C   UNL     1      -2.374  10.456  16.876  0.00  0.00    +0.000 A 
ATOM      5  N   UNL     1      -1.153  10.486  17.408  0.00  0.00    +0.000 NA
ATOM      6  C   UNL     1      -0.991  11.093  18.599  0.00  0.00    +0.000 A 
ATOM      7  N   UNL     1       0.292  11.065  19.182  0.00  0.00    +0.000 N 
ATOM      8  C   UNL     1      -2.071  11.684  19.282  0.00  0.00    +0.000 A 
ATOM      9  C   UNL     1      -2.016  12.339  20.544  0.00  0.00    +0.000 A 
ATOM     10  C   UNL     1      -3.163  12.880  21.121  0.00  0.00    +0.000 A 
ATOM     11  C   UNL     1      -4.379  12.777  20.454  0.00  0.00    +0.000 A 
ATOM     12  C   UNL     1      -4.432  12.136  19.217  0.00  0.00    +0.000 A 
ATOM     13  C   UNL     1      -3.303  11.593  18.626  0.00  0.00    +0.000 A 
ATOM     14  N   UNL     1      -3.449  10.996  17.441  0.00  0.00    +0.000 NA
ATOM     15  H   UNL     1      -1.540   9.781  15.262  0.00  0.00    +0.000 HD
ATOM     16  H   UNL     1       0.551  11.980  19.536  0.00  0.00    +0.000 HD
ENDBRANCH   1   7
BRANCH   1  17
ATOM     17  C   UNL     1       1.674   9.115  18.792  0.00  0.00    +0.000 A 
ATOM     18  C   UNL     1       2.178   8.175  17.891  0.00  0.00    +0.000 A 
ATOM     19  C   UNL     1       2.431   6.860  18.295  0.00  0.00    +0.000 A 
ATOM     20  C   UNL     1       2.139   6.419  19.594  0.00  0.00    +0.000 A 
ATOM     21  C   UNL     1       1.689   7.400  20.506  0.00  0.00    +0.000 A 
ATOM     22  C   UNL     1       1.470   8.728  20.117  0.00  0.00    +0.000 A 
BRANCH  20  23
ATOM     23  C   UNL     1       2.300   5.000  20.009  0.00  0.00    +0.000 A 
ATOM     24  C   UNL     1       1.200   4.348  20.621  0.00  0.00    +0.000 A 
ATOM     25  C   UNL     1       1.249   3.010  21.023  0.00  0.00    +0.000 A 
ATOM     26  C   UNL     1       2.412   2.278  20.852  0.00  0.00    +0.000 A 
ATOM     27  C   UNL     1       3.521   2.883  20.266  0.00  0.00    +0.000 A 
ATOM     28  C   UNL     1       3.479   4.228  19.839  0.00  0.00    +0.000 A 
BRANCH  28  29
ATOM     29  C   UNL     1       4.700   4.731  19.141  0.00  0.00    +0.000 C 
ATOM     30  O   UNL     1       5.537   5.471  19.625  0.00  0.00    +0.000 OA
BRANCH  29  31
ATOM     31  O   UNL     1       4.723   4.226  17.877  0.00  0.00    +0.000 OA
ATOM     32  C   UNL     1       5.495   4.988  16.944  0.00  0.00    +0.000 C 
ENDBRANCH  29  31
ENDBRANCH  28  29
ENDBRANCH  20  23
ENDBRANCH   1  17
TORSDOF 5
ENDMDL
MODEL 4
REMARK VINA RESULT:      -8.8      0.963      1.416
REMARK  Name = 
REMARK  7 active torsions:
REMARK  status: ('A' for Active; 'I' for Inactive)
REMARK    1  A    between atoms: C_1  and  N_2
REMARK    2  A    between atoms: N_6  and  C_7
REMARK    3  A    between atoms: C_7  and  C_8
REMARK    4  A    between atoms: C_11  and  C_12
REMARK    5  A    between atoms: C_17  and  C_18
REMARK    6  A    between atoms: C_18  and  O_20
REMARK    7  A    between atoms: O_20  and  C_21
REMARK                            x       y       z     vdW  Elec       q    Type
REMARK                         _______ _______ _______ _____ _____    ______ ____
ROOT
ATOM      1  C   UNL     1       1.453  10.286  18.586  0.00  0.00    +0.000 C 
ENDROOT
BRANCH   1   7
ATOM      2  C   UNL     1      -2.549  12.484  22.466  0.00  0.00    +0.000 C 
ATOM      3  N   UNL     1      -1.423  12.516  21.563  0.00  0.00    +0.000 N 
ATOM      4  C   UNL     1      -1.693  12.021  20.294  0.00  0.00    +0.000 A 
ATOM      5  N   UNL     1      -0.665  11.443  19.674  0.00  0.00    +0.000 NA
ATOM      6  C   UNL     1      -0.864  10.945  18.438  0.00  0.00    +0.000 A 
ATOM      7  N   UNL     1       0.245  10.392  17.767  0.00  0.00    +0.000 N 
ATOM      8  C   UNL     1      -2.116  11.025  17.800  0.00  0.00    +0.000 A 
ATOM      9  C   UNL     1      -2.433  10.543  16.499  0.00  0.00    +0.000 A 
ATOM     10  C   UNL     1      -3.716  10.689  15.975  0.00  0.00    +0.000 A 
ATOM     11  C   UNL     1      -4.699  11.315  16.733  0.00  0.00    +0.000 A 
ATOM     12  C   UNL     1      -4.388  11.786  18.008  0.00  0.00    +0.000 A 
ATOM     13  C   UNL     1      -3.119  11.649  18.548  0.00  0.00    +0.000 A 
ATOM     14  N   UNL     1      -2.912  12.131  19.775  0.00  0.00    +0.000 NA
ATOM     15  H   UNL     1      -0.582  12.051  21.882  0.00  0.00    +0.000 HD
ATOM     16  H   UNL     1       0.005   9.503  17.338  0.00  0.00    +0.000 HD
ENDBRANCH   1   7
BRANCH   1  17
ATOM     17  C   UNL     1       1.675   8.838  18.951  0.00  0.00    +0.000 A 
ATOM     18  C   UNL     1       1.471   8.410  20.264  0.00  0.00    +0.000 A 
ATOM     19  C   UNL     1       1.742   7.089  20.638  0.00  0.00    +0.000 A 
ATOM     20  C   UNL     1       2.278   6.163  19.732  0.00  0.00    +0.000 A 
ATOM     21  C   UNL     1       2.417   6.598  18.394  0.00  0.00    +0.000 A 
ATOM     22  C   UNL     1       2.112   7.908  18.006  0.00  0.00    +0.000 A 
BRANCH  20  23
ATOM     23  C   UNL     1       2.672   4.787  20.138  0.00  0.00    +0.000 A 
ATOM     24  C   UNL     1       1.781   4.043  20.951  0.00  0.00    +0.000 A 
ATOM     25  C   UNL     1       2.054   2.736  21.364  0.00  0.00    +0.000 A 
ATOM     26  C   UNL     1       3.244   2.130  20.999  0.00  0.00    +0.000 A 
ATOM     27  C   UNL     1       4.155   2.829  20.211  0.00  0.00    +0.000 A 
ATOM     28  C   UNL     1       3.883   4.143  19.772  0.00  0.00    +0.000 A 
BRANCH  28  29
ATOM     29  C   UNL     1       4.895   4.749  18.856  0.00  0.00    +0.000 C 
ATOM     30  O   UNL     1       4.976   4.549  17.658  0.00  0.00    +0.000 OA
BRANCH  29  31
ATOM     31  O   UNL     1       5.712   5.562  19.581  0.00  0.00    +0.000 OA
ATOM     32  C   UNL     1       7.077   5.571  19.154  0.00  0.00    +0.000 C 
ENDBRANCH  29  31
ENDBRANCH  28  29
ENDBRANCH  20  23
ENDBRANCH   1  17
TORSDOF 5
ENDMDL
MODEL 5
REMARK VINA RESULT:      -8.7      1.225      1.428
REMARK  Name = 
REMARK  7 active torsions:
REMARK  status: ('A' for Active; 'I' for Inactive)
REMARK    1  A    between atoms: C_1  and  N_2
REMARK    2  A    between atoms: N_6  and  C_7
REMARK    3  A    between atoms: C_7  and  C_8
REMARK    4  A    between atoms: C_11  and  C_12
REMARK    5  A    between atoms: C_17  and  C_18
REMARK    6  A    between atoms: C_18  and  O_20
REMARK    7  A    between atoms: O_20  and  C_21
REMARK                            x       y       z     vdW  Elec       q    Type
REMARK                         _______ _______ _______ _____ _____    ______ ____
ROOT
ATOM      1  C   UNL     1       1.585  10.277  18.104  0.00  0.00    +0.000 C 
ENDROOT
BRANCH   1   7
ATOM      2  C   UNL     1      -0.774  13.502  22.569  0.00  0.00    +0.000 C 
ATOM      3  N   UNL     1      -0.030  13.265  21.355  0.00  0.00    +0.000 N 
ATOM      4  C   UNL     1      -0.735  12.574  20.377  0.00  0.00    +0.000 A 
ATOM      5  N   UNL     1       0.002  11.801  19.580  0.00  0.00    +0.000 NA
ATOM      6  C   UNL     1      -0.624  11.106  18.610  0.00  0.00    +0.000 A 
ATOM      7  N   UNL     1       0.172  10.341  17.733  0.00  0.00    +0.000 N 
ATOM      8  C   UNL     1      -2.017  11.182  18.426  0.00  0.00    +0.000 A 
ATOM      9  C   UNL     1      -2.776  10.503  17.433  0.00  0.00    +0.000 A 
ATOM     10  C   UNL     1      -4.157  10.667  17.350  0.00  0.00    +0.000 A 
ATOM     11  C   UNL     1      -4.802  11.507  18.249  0.00  0.00    +0.000 A 
ATOM     12  C   UNL     1      -4.059  12.172  19.223  0.00  0.00    +0.000 A 
ATOM     13  C   UNL     1      -2.685  12.021  19.323  0.00  0.00    +0.000 A 
ATOM     14  N   UNL     1      -2.055  12.698  20.286  0.00  0.00    +0.000 NA
ATOM     15  H   UNL     1       0.858  12.791  21.461  0.00  0.00    +0.000 HD
ATOM     16  H   UNL     1      -0.222   9.415  17.599  0.00  0.00    +0.000 HD
ENDBRANCH   1   7
BRANCH   1  17
ATOM     17  C   UNL     1       1.896   8.894  18.624  0.00  0.00    +0.000 A 
ATOM     18  C   UNL     1       2.329   7.899  17.745  0.00  0.00    +0.000 A 
ATOM     19  C   UNL     1       2.553   6.593  18.194  0.00  0.00    +0.000 A 
ATOM     20  C   UNL     1       2.300   6.218  19.522  0.00  0.00    +0.000 A 
ATOM     21  C   UNL     1       1.924   7.253  20.408  0.00  0.00    +0.000 A 
ATOM     22  C   UNL     1       1.735   8.570  19.971  0.00  0.00    +0.000 A 
BRANCH  20  23
ATOM     23  C   UNL     1       2.428   4.812  19.991  0.00  0.00    +0.000 A 
ATOM     24  C   UNL     1       1.349   4.241  20.710  0.00  0.00    +0.000 A 
ATOM     25  C   UNL     1       1.367   2.922  21.171  0.00  0.00    +0.000 A 
ATOM     26  C   UNL     1       2.481   2.129  20.952  0.00  0.00    +0.000 A 
ATOM     27  C   UNL     1       3.570   2.653  20.260  0.00  0.00    +0.000 A 
ATOM     28  C   UNL     1       3.556   3.979  19.774  0.00  0.00    +0.000 A 
BRANCH  28  29
ATOM     29  C   UNL     1       4.743   4.392  18.968  0.00  0.00    +0.000 C 
ATOM     30  O   UNL     1       4.950   4.093  17.806  0.00  0.00    +0.000 OA
BRANCH  29  31
ATOM     31  O   UNL     1       5.557   5.157  19.747  0.00  0.00    +0.000 OA
ATOM     32  C   UNL     1       6.791   5.534  19.130  0.00  0.00    +0.000 C 
ENDBRANCH  29  31
ENDBRANCH  28  29
ENDBRANCH  20  23
ENDBRANCH   1  17
TORSDOF 5
ENDMDL
MODEL 6
REMARK VINA RESULT:      -8.7      1.710      2.907
REMARK  Name = 
REMARK  7 active torsions:
REMARK  status: ('A' for Active; 'I' for Inactive)
REMARK    1  A    between atoms: C_1  and  N_2
REMARK    2  A    between atoms: N_6  and  C_7
REMARK    3  A    between atoms: C_7  and  C_8
REMARK    4  A    between atoms: C_11  and  C_12
REMARK    5  A    between atoms: C_17  and  C_18
REMARK    6  A    between atoms: C_18  and  O_20
REMARK    7  A    between atoms: O_20  and  C_21
REMARK                            x       y       z     vdW  Elec       q    Type
REMARK                         _______ _______ _______ _____ _____    ______ ____
ROOT
ATOM      1  C   UNL     1       0.469  10.802  19.671  0.00  0.00    +0.000 C 
ENDROOT
BRANCH   1   7
ATOM      2  C   UNL     1      -3.608  12.776  23.594  0.00  0.00    +0.000 C 
ATOM      3  N   UNL     1      -2.445  12.849  22.741  0.00  0.00    +0.000 N 
ATOM      4  C   UNL     1      -2.681  12.489  21.420  0.00  0.00    +0.000 A 
ATOM      5  N   UNL     1      -1.649  11.932  20.786  0.00  0.00    +0.000 NA
ATOM      6  C   UNL     1      -1.815  11.563  19.502  0.00  0.00    +0.000 A 
ATOM      7  N   UNL     1      -0.700  11.033  18.822  0.00  0.00    +0.000 N 
ATOM      8  C   UNL     1      -3.037  11.752  18.829  0.00  0.00    +0.000 A 
ATOM      9  C   UNL     1      -3.317  11.410  17.476  0.00  0.00    +0.000 A 
ATOM     10  C   UNL     1      -4.572  11.656  16.921  0.00  0.00    +0.000 A 
ATOM     11  C   UNL     1      -5.562  12.245  17.699  0.00  0.00    +0.000 A 
ATOM     12  C   UNL     1      -5.287  12.579  19.024  0.00  0.00    +0.000 A 
ATOM     13  C   UNL     1      -4.047  12.342  19.595  0.00  0.00    +0.000 A 
ATOM     14  N   UNL     1      -3.873  12.696  20.870  0.00  0.00    +0.000 NA
ATOM     15  H   UNL     1      -1.635  12.323  23.044  0.00  0.00    +0.000 HD
ATOM     16  H   UNL     1      -0.954  10.199  18.301  0.00  0.00    +0.000 HD
ENDBRANCH   1   7
BRANCH   1  17
ATOM     17  C   UNL     1       1.195   9.571  19.186  0.00  0.00    +0.000 A 
ATOM     18  C   UNL     1       1.520   8.552  20.084  0.00  0.00    +0.000 A 
ATOM     19  C   UNL     1       2.256   7.437  19.668  0.00  0.00    +0.000 A 
ATOM     20  C   UNL     1       2.743   7.324  18.358  0.00  0.00    +0.000 A 
ATOM     21  C   UNL     1       2.350   8.333  17.450  0.00  0.00    +0.000 A 
ATOM     22  C   UNL     1       1.581   9.432  17.852  0.00  0.00    +0.000 A 
BRANCH  20  23
ATOM     23  C   UNL     1       3.617   6.200  17.928  0.00  0.00    +0.000 A 
ATOM     24  C   UNL     1       4.990   6.465  17.699  0.00  0.00    +0.000 A 
ATOM     25  C   UNL     1       5.894   5.470  17.315  0.00  0.00    +0.000 A 
ATOM     26  C   UNL     1       5.451   4.172  17.119  0.00  0.00    +0.000 A 
ATOM     27  C   UNL     1       4.107   3.870  17.321  0.00  0.00    +0.000 A 
ATOM     28  C   UNL     1       3.188   4.862  17.727  0.00  0.00    +0.000 A 
BRANCH  28  29
ATOM     29  C   UNL     1       1.797   4.393  18.000  0.00  0.00    +0.000 C 
ATOM     30  O   UNL     1       0.890   4.355  17.189  0.00  0.00    +0.000 OA
BRANCH  29  31
ATOM     31  O   UNL     1       1.710   4.014  19.305  0.00  0.00    +0.000 OA
ATOM     32  C   UNL     1       1.184   2.700  19.512  0.00  0.00    +0.000 C 
ENDBRANCH  29  31
ENDBRANCH  28  29
ENDBRANCH  20  23
ENDBRANCH   1  17
TORSDOF 5
ENDMDL
MODEL 7
REMARK VINA RESULT:      -8.4      1.361      2.901
REMARK  Name = 
REMARK  7 active torsions:
REMARK  status: ('A' for Active; 'I' for Inactive)
REMARK    1  A    between atoms: C_1  and  N_2
REMARK    2  A    between atoms: N_6  and  C_7
REMARK    3  A    between atoms: C_7  and  C_8
REMARK    4  A    between atoms: C_11  and  C_12
REMARK    5  A    between atoms: C_17  and  C_18
REMARK    6  A    between atoms: C_18  and  O_20
REMARK    7  A    between atoms: O_20  and  C_21
REMARK                            x       y       z     vdW  Elec       q    Type
REMARK                         _______ _______ _______ _____ _____    ______ ____
ROOT
ATOM      1  C   UNL     1       1.403  10.434  18.301  0.00  0.00    +0.000 C 
ENDROOT
BRANCH   1   7
ATOM      2  C   UNL     1      -4.199  11.137  16.294  0.00  0.00    +0.000 C 
ATOM      3  N   UNL     1      -3.073  10.434  16.861  0.00  0.00    +0.000 N 
ATOM      4  C   UNL     1      -2.514  11.050  17.973  0.00  0.00    +0.000 A 
ATOM      5  N   UNL     1      -1.204  10.860  18.135  0.00  0.00    +0.000 NA
ATOM      6  C   UNL     1      -0.604  11.432  19.196  0.00  0.00    +0.000 A 
ATOM      7  N   UNL     1       0.768  11.173  19.392  0.00  0.00    +0.000 N 
ATOM      8  C   UNL     1      -1.322  12.210  20.123  0.00  0.00    +0.000 A 
ATOM      9  C   UNL     1      -0.793  12.849  21.279  0.00  0.00    +0.000 A 
ATOM     10  C   UNL     1      -1.614  13.591  22.127  0.00  0.00    +0.000 A 
ATOM     11  C   UNL     1      -2.969  13.708  21.838  0.00  0.00    +0.000 A 
ATOM     12  C   UNL     1      -3.486  13.083  20.705  0.00  0.00    +0.000 A 
ATOM     13  C   UNL     1      -2.687  12.342  19.849  0.00  0.00    +0.000 A 
ATOM     14  N   UNL     1      -3.269  11.778  18.789  0.00  0.00    +0.000 NA
ATOM     15  H   UNL     1      -2.309  10.230  16.228  0.00  0.00    +0.000 HD
ATOM     16  H   UNL     1       1.272  12.028  19.608  0.00  0.00    +0.000 HD
ENDBRANCH   1   7
BRANCH   1  17
ATOM     17  C   UNL     1       1.734   9.040  18.777  0.00  0.00    +0.000 A 
ATOM     18  C   UNL     1       2.224   8.093  17.877  0.00  0.00    +0.000 A 
ATOM     19  C   UNL     1       2.467   6.776  18.282  0.00  0.00    +0.000 A 
ATOM     20  C   UNL     1       2.179   6.342  19.584  0.00  0.00    +0.000 A 
ATOM     21  C   UNL     1       1.744   7.331  20.496  0.00  0.00    +0.000 A 
ATOM     22  C   UNL     1       1.535   8.658  20.105  0.00  0.00    +0.000 A 
BRANCH  20  23
ATOM     23  C   UNL     1       2.330   4.923  20.003  0.00  0.00    +0.000 A 
ATOM     24  C   UNL     1       1.222   4.278  20.607  0.00  0.00    +0.000 A 
ATOM     25  C   UNL     1       1.260   2.940  21.011  0.00  0.00    +0.000 A 
ATOM     26  C   UNL     1       2.421   2.202  20.851  0.00  0.00    +0.000 A 
ATOM     27  C   UNL     1       3.538   2.800  20.274  0.00  0.00    +0.000 A 
ATOM     28  C   UNL     1       3.506   4.145  19.844  0.00  0.00    +0.000 A 
BRANCH  28  29
ATOM     29  C   UNL     1       4.736   4.641  19.156  0.00  0.00    +0.000 C 
ATOM     30  O   UNL     1       5.561   5.395  19.638  0.00  0.00    +0.000 OA
BRANCH  29  31
ATOM     31  O   UNL     1       4.781   4.112  17.903  0.00  0.00    +0.000 OA
ATOM     32  C   UNL     1       5.873   4.570  17.100  0.00  0.00    +0.000 C 
ENDBRANCH  29  31
ENDBRANCH  28  29
ENDBRANCH  20  23
ENDBRANCH   1  17
TORSDOF 5
ENDMDL
MODEL 8
REMARK VINA RESULT:      -8.4      1.514      2.989
REMARK  Name = 
REMARK  7 active torsions:
REMARK  status: ('A' for Active; 'I' for Inactive)
REMARK    1  A    between atoms: C_1  and  N_2
REMARK    2  A    between atoms: N_6  and  C_7
REMARK    3  A    between atoms: C_7  and  C_8
REMARK    4  A    between atoms: C_11  and  C_12
REMARK    5  A    between atoms: C_17  and  C_18
REMARK    6  A    between atoms: C_18  and  O_20
REMARK    7  A    between atoms: O_20  and  C_21
REMARK                            x       y       z     vdW  Elec       q    Type
REMARK                         _______ _______ _______ _____ _____    ______ ____
ROOT
ATOM      1  C   UNL     1       1.312  10.704  18.480  0.00  0.00    +0.000 C 
ENDROOT
BRANCH   1   7
ATOM      2  C   UNL     1      -3.441  10.402  14.843  0.00  0.00    +0.000 C 
ATOM      3  N   UNL     1      -2.418   9.903  15.731  0.00  0.00    +0.000 N 
ATOM      4  C   UNL     1      -2.361  10.549  16.960  0.00  0.00    +0.000 A 
ATOM      5  N   UNL     1      -1.153  10.613  17.517  0.00  0.00    +0.000 NA
ATOM      6  C   UNL     1      -1.033  11.226  18.710  0.00  0.00    +0.000 A 
ATOM      7  N   UNL     1       0.238  11.233  19.320  0.00  0.00    +0.000 N 
ATOM      8  C   UNL     1      -2.143  11.788  19.369  0.00  0.00    +0.000 A 
ATOM      9  C   UNL     1      -2.132  12.446  20.630  0.00  0.00    +0.000 A 
ATOM     10  C   UNL     1      -3.306  12.957  21.182  0.00  0.00    +0.000 A 
ATOM     11  C   UNL     1      -4.504  12.820  20.490  0.00  0.00    +0.000 A 
ATOM     12  C   UNL     1      -4.514  12.176  19.253  0.00  0.00    +0.000 A 
ATOM     13  C   UNL     1      -3.358  11.662  18.687  0.00  0.00    +0.000 A 
ATOM     14  N   UNL     1      -3.462  11.060  17.501  0.00  0.00    +0.000 NA
ATOM     15  H   UNL     1      -1.474   9.895  15.365  0.00  0.00    +0.000 HD
ATOM     16  H   UNL     1       0.464  12.156  19.678  0.00  0.00    +0.000 HD
ENDBRANCH   1   7
BRANCH   1  17
ATOM     17  C   UNL     1       1.545   9.255  18.833  0.00  0.00    +0.000 A 
ATOM     18  C   UNL     1       1.442   8.834  20.160  0.00  0.00    +0.000 A 
ATOM     19  C   UNL     1       1.725   7.511  20.517  0.00  0.00    +0.000 A 
ATOM     20  C   UNL     1       2.174   6.575  19.575  0.00  0.00    +0.000 A 
ATOM     21  C   UNL     1       2.211   7.003  18.228  0.00  0.00    +0.000 A 
ATOM     22  C   UNL     1       1.892   8.316  17.860  0.00  0.00    +0.000 A 
BRANCH  20  23
ATOM     23  C   UNL     1       2.583   5.195  19.954  0.00  0.00    +0.000 A 
ATOM     24  C   UNL     1       1.794   4.496  20.902  0.00  0.00    +0.000 A 
ATOM     25  C   UNL     1       2.085   3.189  21.303  0.00  0.00    +0.000 A 
ATOM     26  C   UNL     1       3.195   2.539  20.790  0.00  0.00    +0.000 A 
ATOM     27  C   UNL     1       4.005   3.193  19.865  0.00  0.00    +0.000 A 
ATOM     28  C   UNL     1       3.711   4.507  19.438  0.00  0.00    +0.000 A 
BRANCH  28  29
ATOM     29  C   UNL     1       4.600   5.062  18.375  0.00  0.00    +0.000 C 
ATOM     30  O   UNL     1       5.493   5.871  18.550  0.00  0.00    +0.000 OA
BRANCH  29  31
ATOM     31  O   UNL     1       4.249   4.516  17.178  0.00  0.00    +0.000 OA
ATOM     32  C   UNL     1       5.347   4.060  16.384  0.00  0.00    +0.000 C 
ENDBRANCH  29  31
ENDBRANCH  28  29
ENDBRANCH  20  23
ENDBRANCH   1  17
TORSDOF 5
ENDMDL
MODEL 9
REMARK VINA RESULT:      -8.4      2.651      3.706
REMARK  Name = 
REMARK  7 active torsions:
REMARK  status: ('A' for Active; 'I' for Inactive)
REMARK    1  A    between atoms: C_1  and  N_2
REMARK    2  A    between atoms: N_6  and  C_7
REMARK    3  A    between atoms: C_7  and  C_8
REMARK    4  A    between atoms: C_11  and  C_12
REMARK    5  A    between atoms: C_17  and  C_18
REMARK    6  A    between atoms: C_18  and  O_20
REMARK    7  A    between atoms: O_20  and  C_21
REMARK                            x       y       z     vdW  Elec       q    Type
REMARK                         _______ _______ _______ _____ _____    ______ ____
ROOT
ATOM      1  C   UNL     1       0.055   9.770  20.415  0.00  0.00    +0.000 C 
ENDROOT
BRANCH   1   7
ATOM      2  C   UNL     1      -4.003  12.726  23.686  0.00  0.00    +0.000 C 
ATOM      3  N   UNL     1      -2.755  12.052  23.416  0.00  0.00    +0.000 N 
ATOM      4  C   UNL     1      -2.061  12.548  22.320  0.00  0.00    +0.000 A 
ATOM      5  N   UNL     1      -1.325  11.657  21.657  0.00  0.00    +0.000 NA
ATOM      6  C   UNL     1      -0.627  12.079  20.585  0.00  0.00    +0.000 A 
ATOM      7  N   UNL     1       0.198  11.143  19.928  0.00  0.00    +0.000 N 
ATOM      8  C   UNL     1      -0.659  13.421  20.161  0.00  0.00    +0.000 A 
ATOM      9  C   UNL     1       0.043  13.974  19.054  0.00  0.00    +0.000 A 
ATOM     10  C   UNL     1      -0.067  15.327  18.739  0.00  0.00    +0.000 A 
ATOM     11  C   UNL     1      -0.874  16.148  19.518  0.00  0.00    +0.000 A 
ATOM     12  C   UNL     1      -1.563  15.605  20.602  0.00  0.00    +0.000 A 
ATOM     13  C   UNL     1      -1.468  14.262  20.931  0.00  0.00    +0.000 A 
ATOM     14  N   UNL     1      -2.162  13.831  21.986  0.00  0.00    +0.000 NA
ATOM     15  H   UNL     1      -2.808  11.048  23.294  0.00  0.00    +0.000 HD
ATOM     16  H   UNL     1       0.079  11.196  18.921  0.00  0.00    +0.000 HD
ENDBRANCH   1   7
BRANCH   1  17
ATOM     17  C   UNL     1       1.090   8.899  19.745  0.00  0.00    +0.000 A 
ATOM     18  C   UNL     1       1.482   9.165  18.431  0.00  0.00    +0.000 A 
ATOM     19  C   UNL     1       2.386   8.327  17.769  0.00  0.00    +0.000 A 
ATOM     20  C   UNL     1       2.888   7.164  18.371  0.00  0.00    +0.000 A 
ATOM     21  C   UNL     1       2.528   6.948  19.721  0.00  0.00    +0.000 A 
ATOM     22  C   UNL     1       1.654   7.804  20.400  0.00  0.00    +0.000 A 
BRANCH  20  23
ATOM     23  C   UNL     1       3.763   6.205  17.645  0.00  0.00    +0.000 A 
ATOM     24  C   UNL     1       5.019   6.664  17.174  0.00  0.00    +0.000 A 
ATOM     25  C   UNL     1       5.919   5.832  16.502  0.00  0.00    +0.000 A 
ATOM     26  C   UNL     1       5.585   4.511  16.252  0.00  0.00    +0.000 A 
ATOM     27  C   UNL     1       4.355   4.022  16.686  0.00  0.00    +0.000 A 
ATOM     28  C   UNL     1       3.446   4.848  17.382  0.00  0.00    +0.000 A 
BRANCH  28  29
ATOM     29  C   UNL     1       2.204   4.181  17.876  0.00  0.00    +0.000 C 
ATOM     30  O   UNL     1       1.104   4.259  17.359  0.00  0.00    +0.000 OA
BRANCH  29  31
ATOM     31  O   UNL     1       2.503   3.472  18.999  0.00  0.00    +0.000 OA
ATOM     32  C   UNL     1       1.926   2.164  19.050  0.00  0.00    +0.000 C 
ENDBRANCH  29  31
ENDBRANCH  28  29
ENDBRANCH  20  23
ENDBRANCH   1  17
TORSDOF 5
ENDMDL
