MODEL 1
REMARK VINA RESULT:      -7.4      0.000      0.000
REMARK  Name = 
REMARK  9 active torsions:
REMARK  status: ('A' for Active; 'I' for Inactive)
REMARK    1  A    between atoms: O_1  and  C_2
REMARK    2  A    between atoms: C_2  and  C_3
REMARK    3  A    between atoms: C_5  and  C_6
REMARK    4  A    between atoms: C_8  and  C_9
REMARK    5  A    between atoms: C_9  and  C_10
REMARK    6  A    between atoms: C_13  and  O_14
REMARK    7  A    between atoms: C_24  and  O_25
REMARK    8  A    between atoms: C_26  and  O_27
REMARK    9  A    between atoms: C_28  and  O_29
REMARK                            x       y       z     vdW  Elec       q    Type
REMARK                         _______ _______ _______ _____ _____    ______ ____
ROOT
ATOM      1  C   UNL     1       2.909   6.350  19.446  0.00  0.00    +0.000 A 
ATOM      2  C   UNL     1       4.178   6.134  18.880  0.00  0.00    +0.000 A 
ATOM      3  C   UNL     1       4.748   4.845  18.752  0.00  0.00    +0.000 A 
ATOM      4  C   UNL     1       3.999   3.735  19.171  0.00  0.00    +0.000 A 
ATOM      5 CL   UNL     1       4.610   2.125  19.048  0.00  0.00    +0.000 Cl
ATOM      6  C   UNL     1       2.725   3.947  19.686  0.00  0.00    +0.000 A 
ATOM      7  C   UNL     1       2.185   5.222  19.822  0.00  0.00    +0.000 A 
ATOM      8  C   UNL     1       0.832   5.124  20.416  0.00  0.00    +0.000 C 
ATOM      9  C   UNL     1       0.671   3.609  20.520  0.00  0.00    +0.000 C 
ATOM     10  O   UNL     1       1.884   2.949  20.111  0.00  0.00    +0.000 OA
ENDROOT
BRANCH   1  13
ATOM     11  C   UNL     1       1.033   9.026  21.156  0.00  0.00    +0.000 C 
ATOM     12  O   UNL     1       1.507   7.725  20.774  0.00  0.00    +0.000 OA
ATOM     13  C   UNL     1       2.395   7.762  19.653  0.00  0.00    +0.000 C 
ATOM     14  C   UNL     1       1.653   8.295  18.405  0.00  0.00    +0.000 C 
ATOM     15  C   UNL     1       1.046   9.673  18.720  0.00  0.00    +0.000 C 
ATOM     16  C   UNL     1       0.216   9.643  20.017  0.00  0.00    +0.000 C 
BRANCH  14  17
ATOM     17  O   UNL     1       2.516   8.371  17.267  0.00  0.00    +0.000 OA
ATOM     18  H   UNL     1       3.012   7.539  17.180  0.00  0.00    +0.000 HD
ENDBRANCH  14  17
BRANCH  15  19
ATOM     19  O   UNL     1       0.244  10.143  17.629  0.00  0.00    +0.000 OA
ATOM     20  H   UNL     1       0.556  11.032  17.376  0.00  0.00    +0.000 HD
ENDBRANCH  15  19
BRANCH  16  21
ATOM     21  O   UNL     1      -0.231  10.954  20.375  0.00  0.00    +0.000 OA
ATOM     22  H   UNL     1       0.016  11.128  21.302  0.00  0.00    +0.000 HD
ENDBRANCH  16  21
BRANCH  11  23
ATOM     23  C   UNL     1       0.171   8.872  22.420  0.00  0.00    +0.000 C 
BRANCH  23  24
ATOM     24  O   UNL     1       0.322  10.022  23.253  0.00  0.00    +0.000 OA
ATOM     25  H   UNL     1      -0.561  10.415  23.352  0.00  0.00    +0.000 HD
ENDBRANCH  23  24
ENDBRANCH  11  23
ENDBRANCH   1  13
BRANCH   3  26
ATOM     26  C   UNL     1       6.148   4.739  18.188  0.00  0.00    +0.000 C 
BRANCH  26  27
ATOM     27  C   UNL     1       6.229   4.626  16.680  0.00  0.00    +0.000 A 
ATOM     28  C   UNL     1       7.377   5.062  15.999  0.00  0.00    +0.000 A 
ATOM     29  C   UNL     1       7.505   4.876  14.619  0.00  0.00    +0.000 A 
ATOM     30  C   UNL     1       6.479   4.257  13.913  0.00  0.00    +0.000 A 
ATOM     31  C   UNL     1       5.322   3.844  14.559  0.00  0.00    +0.000 A 
ATOM     32  C   UNL     1       5.197   4.027  15.938  0.00  0.00    +0.000 A 
BRANCH  30  33
ATOM     33  O   UNL     1       6.577   4.025  12.573  0.00  0.00    +0.000 OA
ATOM     34  H   UNL     1       7.099   3.218  12.438  0.00  0.00    +0.000 HD
ENDBRANCH  30  33
ENDBRANCH  26  27
ENDBRANCH   3  26
TORSDOF 9
ENDMDL
MODEL 2
REMARK VINA RESULT:      -7.2      5.105      8.505
REMARK  Name = 
REMARK  9 active torsions:
REMARK  status: ('A' for Active; 'I' for Inactive)
REMARK    1  A    between atoms: O_1  and  C_2
REMARK    2  A    between atoms: C_2  and  C_3
REMARK    3  A    between atoms: C_5  and  C_6
REMARK    4  A    between atoms: C_8  and  C_9
REMARK    5  A    between atoms: C_9  and  C_10
REMARK    6  A    between atoms: C_13  and  O_14
REMARK    7  A    between atoms: C_24  and  O_25
REMARK    8  A    between atoms: C_26  and  O_27
REMARK    9  A    between atoms: C_28  and  O_29
REMARK                            x       y       z     vdW  Elec       q    Type
REMARK                         _______ _______ _______ _____ _____    ______ ____
ROOT
ATOM      1  C   UNL     1      -2.477  12.723  20.291  0.00  0.00    +0.000 A 
ATOM      2  C   UNL     1      -1.159  12.414  19.910  0.00  0.00    +0.000 A 
ATOM      3  C   UNL     1      -0.859  11.525  18.851  0.00  0.00    +0.000 A 
ATOM      4  C   UNL     1      -1.920  10.962  18.126  0.00  0.00    +0.000 A 
ATOM      5 CL   UNL     1      -1.651   9.872  16.814  0.00  0.00    +0.000 Cl
ATOM      6  C   UNL     1      -3.222  11.306  18.474  0.00  0.00    +0.000 A 
ATOM      7  C   UNL     1      -3.502  12.168  19.530  0.00  0.00    +0.000 A 
ATOM      8  C   UNL     1      -4.968  12.323  19.665  0.00  0.00    +0.000 C 
ATOM      9  C   UNL     1      -5.457  11.483  18.488  0.00  0.00    +0.000 C 
ATOM     10  O   UNL     1      -4.344  10.843  17.834  0.00  0.00    +0.000 OA
ENDROOT
BRANCH   1  13
ATOM     11  C   UNL     1      -3.653  13.475  23.706  0.00  0.00    +0.000 C 
ATOM     12  O   UNL     1      -3.443  12.800  22.456  0.00  0.00    +0.000 OA
ATOM     13  C   UNL     1      -2.736  13.599  21.502  0.00  0.00    +0.000 C 
ATOM     14  C   UNL     1      -3.568  14.852  21.140  0.00  0.00    +0.000 C 
ATOM     15  C   UNL     1      -3.907  15.630  22.424  0.00  0.00    +0.000 C 
ATOM     16  C   UNL     1      -4.529  14.713  23.493  0.00  0.00    +0.000 C 
BRANCH  14  17
ATOM     17  O   UNL     1      -2.883  15.692  20.207  0.00  0.00    +0.000 OA
ATOM     18  H   UNL     1      -3.488  15.935  19.485  0.00  0.00    +0.000 HD
ENDBRANCH  14  17
BRANCH  15  19
ATOM     19  O   UNL     1      -4.783  16.729  22.143  0.00  0.00    +0.000 OA
ATOM     20  H   UNL     1      -5.610  16.601  22.645  0.00  0.00    +0.000 HD
ENDBRANCH  15  19
BRANCH  16  21
ATOM     21  O   UNL     1      -4.716  15.411  24.728  0.00  0.00    +0.000 OA
ATOM     22  H   UNL     1      -5.668  15.579  24.854  0.00  0.00    +0.000 HD
ENDBRANCH  16  21
BRANCH  11  23
ATOM     23  C   UNL     1      -4.330  12.491  24.675  0.00  0.00    +0.000 C 
BRANCH  23  24
ATOM     24  O   UNL     1      -5.737  12.735  24.709  0.00  0.00    +0.000 OA
ATOM     25  H   UNL     1      -6.114  12.110  25.351  0.00  0.00    +0.000 HD
ENDBRANCH  23  24
ENDBRANCH  11  23
ENDBRANCH   1  13
BRANCH   3  26
ATOM     26  C   UNL     1       0.596  11.215  18.572  0.00  0.00    +0.000 C 
BRANCH  26  27
ATOM     27  C   UNL     1       1.061   9.846  19.021  0.00  0.00    +0.000 A 
ATOM     28  C   UNL     1       1.761   9.012  18.135  0.00  0.00    +0.000 A 
ATOM     29  C   UNL     1       2.280   7.786  18.563  0.00  0.00    +0.000 A 
ATOM     30  C   UNL     1       2.096   7.387  19.883  0.00  0.00    +0.000 A 
ATOM     31  C   UNL     1       1.382   8.181  20.770  0.00  0.00    +0.000 A 
ATOM     32  C   UNL     1       0.867   9.407  20.342  0.00  0.00    +0.000 A 
BRANCH  30  33
ATOM     33  O   UNL     1       2.613   6.217  20.352  0.00  0.00    +0.000 OA
ATOM     34  H   UNL     1       2.143   5.481  19.927  0.00  0.00    +0.000 HD
ENDBRANCH  30  33
ENDBRANCH  26  27
ENDBRANCH   3  26
TORSDOF 9
ENDMDL
MODEL 3
REMARK VINA RESULT:      -7.1      5.642      9.095
REMARK  Name = 
REMARK  9 active torsions:
REMARK  status: ('A' for Active; 'I' for Inactive)
REMARK    1  A    between atoms: O_1  and  C_2
REMARK    2  A    between atoms: C_2  and  C_3
REMARK    3  A    between atoms: C_5  and  C_6
REMARK    4  A    between atoms: C_8  and  C_9
REMARK    5  A    between atoms: C_9  and  C_10
REMARK    6  A    between atoms: C_13  and  O_14
REMARK    7  A    between atoms: C_24  and  O_25
REMARK    8  A    between atoms: C_26  and  O_27
REMARK    9  A    between atoms: C_28  and  O_29
REMARK                            x       y       z     vdW  Elec       q    Type
REMARK                         _______ _______ _______ _____ _____    ______ ____
ROOT
ATOM      1  C   UNL     1      -3.409  12.901  20.170  0.00  0.00    +0.000 A 
ATOM      2  C   UNL     1      -2.038  12.760  19.890  0.00  0.00    +0.000 A 
ATOM      3  C   UNL     1      -1.550  11.903  18.876  0.00  0.00    +0.000 A 
ATOM      4  C   UNL     1      -2.474  11.198  18.090  0.00  0.00    +0.000 A 
ATOM      5 CL   UNL     1      -1.972  10.134  16.826  0.00  0.00    +0.000 Cl
ATOM      6  C   UNL     1      -3.831  11.375  18.337  0.00  0.00    +0.000 A 
ATOM      7  C   UNL     1      -4.295  12.208  19.350  0.00  0.00    +0.000 A 
ATOM      8  C   UNL     1      -5.775  12.173  19.378  0.00  0.00    +0.000 C 
ATOM      9  C   UNL     1      -6.065  11.262  18.189  0.00  0.00    +0.000 C 
ATOM     10  O   UNL     1      -4.835  10.762  17.630  0.00  0.00    +0.000 OA
ENDROOT
BRANCH   1  13
ATOM     11  C   UNL     1      -5.060  13.565  23.401  0.00  0.00    +0.000 C 
ATOM     12  O   UNL     1      -4.655  12.913  22.187  0.00  0.00    +0.000 OA
ATOM     13  C   UNL     1      -3.866  13.753  21.338  0.00  0.00    +0.000 C 
ATOM     14  C   UNL     1      -4.699  14.971  20.874  0.00  0.00    +0.000 C 
ATOM     15  C   UNL     1      -5.242  15.720  22.104  0.00  0.00    +0.000 C 
ATOM     16  C   UNL     1      -5.956  14.765  23.078  0.00  0.00    +0.000 C 
BRANCH  14  17
ATOM     17  O   UNL     1      -3.937  15.850  20.043  0.00  0.00    +0.000 OA
ATOM     18  H   UNL     1      -4.533  16.485  19.611  0.00  0.00    +0.000 HD
ENDBRANCH  14  17
BRANCH  15  19
ATOM     19  O   UNL     1      -6.123  16.780  21.714  0.00  0.00    +0.000 OA
ATOM     20  H   UNL     1      -6.831  16.405  21.158  0.00  0.00    +0.000 HD
ENDBRANCH  15  19
BRANCH  16  21
ATOM     21  O   UNL     1      -6.337  15.442  24.280  0.00  0.00    +0.000 OA
ATOM     22  H   UNL     1      -6.846  14.827  24.840  0.00  0.00    +0.000 HD
ENDBRANCH  16  21
BRANCH  11  23
ATOM     23  C   UNL     1      -5.812  12.543  24.268  0.00  0.00    +0.000 C 
BRANCH  23  24
ATOM     24  O   UNL     1      -4.881  11.654  24.887  0.00  0.00    +0.000 OA
ATOM     25  H   UNL     1      -4.806  11.930  25.816  0.00  0.00    +0.000 HD
ENDBRANCH  23  24
ENDBRANCH  11  23
ENDBRANCH   1  13
BRANCH   3  26
ATOM     26  C   UNL     1      -0.051  11.781  18.708  0.00  0.00    +0.000 C 
BRANCH  26  27
ATOM     27  C   UNL     1       0.535  10.441  19.102  0.00  0.00    +0.000 A 
ATOM     28  C   UNL     1       1.286   9.698  18.177  0.00  0.00    +0.000 A 
ATOM     29  C   UNL     1       1.913   8.507  18.556  0.00  0.00    +0.000 A 
ATOM     30  C   UNL     1       1.787   8.052  19.864  0.00  0.00    +0.000 A 
ATOM     31  C   UNL     1       1.025   8.754  20.789  0.00  0.00    +0.000 A 
ATOM     32  C   UNL     1       0.402   9.945  20.410  0.00  0.00    +0.000 A 
BRANCH  30  33
ATOM     33  O   UNL     1       2.408   6.914  20.285  0.00  0.00    +0.000 OA
ATOM     34  H   UNL     1       2.313   6.851  21.249  0.00  0.00    +0.000 HD
ENDBRANCH  30  33
ENDBRANCH  26  27
ENDBRANCH   3  26
TORSDOF 9
ENDMDL
MODEL 4
REMARK VINA RESULT:      -7.0      1.949      2.687
REMARK  Name = 
REMARK  9 active torsions:
REMARK  status: ('A' for Active; 'I' for Inactive)
REMARK    1  A    between atoms: O_1  and  C_2
REMARK    2  A    between atoms: C_2  and  C_3
REMARK    3  A    between atoms: C_5  and  C_6
REMARK    4  A    between atoms: C_8  and  C_9
REMARK    5  A    between atoms: C_9  and  C_10
REMARK    6  A    between atoms: C_13  and  O_14
REMARK    7  A    between atoms: C_24  and  O_25
REMARK    8  A    between atoms: C_26  and  O_27
REMARK    9  A    between atoms: C_28  and  O_29
REMARK                            x       y       z     vdW  Elec       q    Type
REMARK                         _______ _______ _______ _____ _____    ______ ____
ROOT
ATOM      1  C   UNL     1       2.696   6.489  19.211  0.00  0.00    +0.000 A 
ATOM      2  C   UNL     1       3.872   6.329  18.458  0.00  0.00    +0.000 A 
ATOM      3  C   UNL     1       4.423   5.060  18.162  0.00  0.00    +0.000 A 
ATOM      4  C   UNL     1       3.745   3.914  18.603  0.00  0.00    +0.000 A 
ATOM      5 CL   UNL     1       4.338   2.324  18.283  0.00  0.00    +0.000 Cl
ATOM      6  C   UNL     1       2.556   4.073  19.307  0.00  0.00    +0.000 A 
ATOM      7  C   UNL     1       2.036   5.328  19.606  0.00  0.00    +0.000 A 
ATOM      8  C   UNL     1       0.781   5.171  20.377  0.00  0.00    +0.000 C 
ATOM      9  C   UNL     1       0.642   3.651  20.396  0.00  0.00    +0.000 C 
ATOM     10  O   UNL     1       1.787   3.036  19.775  0.00  0.00    +0.000 OA
ENDROOT
BRANCH   1  13
ATOM     11  C   UNL     1       0.920   8.987  21.265  0.00  0.00    +0.000 C 
ATOM     12  O   UNL     1       1.360   7.729  20.728  0.00  0.00    +0.000 OA
ATOM     13  C   UNL     1       2.211   7.876  19.587  0.00  0.00    +0.000 C 
ATOM     14  C   UNL     1       1.436   8.550  18.430  0.00  0.00    +0.000 C 
ATOM     15  C   UNL     1       0.861   9.893  18.913  0.00  0.00    +0.000 C 
ATOM     16  C   UNL     1       0.075   9.733  20.227  0.00  0.00    +0.000 C 
BRANCH  14  17
ATOM     17  O   UNL     1       2.262   8.739  17.278  0.00  0.00    +0.000 OA
ATOM     18  H   UNL     1       1.793   9.295  16.632  0.00  0.00    +0.000 HD
ENDBRANCH  14  17
BRANCH  15  19
ATOM     19  O   UNL     1       0.031  10.488  17.908  0.00  0.00    +0.000 OA
ATOM     20  H   UNL     1       0.125  11.457  17.962  0.00  0.00    +0.000 HD
ENDBRANCH  15  19
BRANCH  16  21
ATOM     21  O   UNL     1      -0.339  11.002  20.741  0.00  0.00    +0.000 OA
ATOM     22  H   UNL     1      -1.003  11.384  20.137  0.00  0.00    +0.000 HD
ENDBRANCH  16  21
BRANCH  11  23
ATOM     23  C   UNL     1       0.099   8.707  22.534  0.00  0.00    +0.000 C 
BRANCH  23  24
ATOM     24  O   UNL     1       0.337   9.731  23.501  0.00  0.00    +0.000 OA
ATOM     25  H   UNL     1      -0.496   9.861  23.983  0.00  0.00    +0.000 HD
ENDBRANCH  23  24
ENDBRANCH  11  23
ENDBRANCH   1  13
BRANCH   3  26
ATOM     26  C   UNL     1       5.729   5.012  17.399  0.00  0.00    +0.000 C 
BRANCH  26  27
ATOM     27  C   UNL     1       6.734   6.081  17.772  0.00  0.00    +0.000 A 
ATOM     28  C   UNL     1       6.778   7.289  17.060  0.00  0.00    +0.000 A 
ATOM     29  C   UNL     1       7.634   8.323  17.453  0.00  0.00    +0.000 A 
ATOM     30  C   UNL     1       8.456   8.147  18.561  0.00  0.00    +0.000 A 
ATOM     31  C   UNL     1       8.452   6.950  19.264  0.00  0.00    +0.000 A 
ATOM     32  C   UNL     1       7.594   5.920  18.872  0.00  0.00    +0.000 A 
BRANCH  30  33
ATOM     33  O   UNL     1       9.281   9.140  19.000  0.00  0.00    +0.000 OA
ATOM     34  H   UNL     1      10.200   8.855  18.869  0.00  0.00    +0.000 HD
ENDBRANCH  30  33
ENDBRANCH  26  27
ENDBRANCH   3  26
TORSDOF 9
ENDMDL
MODEL 5
REMARK VINA RESULT:      -7.0      5.661      9.177
REMARK  Name = 
REMARK  9 active torsions:
REMARK  status: ('A' for Active; 'I' for Inactive)
REMARK    1  A    between atoms: O_1  and  C_2
REMARK    2  A    between atoms: C_2  and  C_3
REMARK    3  A    between atoms: C_5  and  C_6
REMARK    4  A    between atoms: C_8  and  C_9
REMARK    5  A    between atoms: C_9  and  C_10
REMARK    6  A    between atoms: C_13  and  O_14
REMARK    7  A    between atoms: C_24  and  O_25
REMARK    8  A    between atoms: C_26  and  O_27
REMARK    9  A    between atoms: C_28  and  O_29
REMARK                            x       y       z     vdW  Elec       q    Type
REMARK                         _______ _______ _______ _____ _____    ______ ____
ROOT
ATOM      1  C   UNL     1      -3.493  12.745  20.129  0.00  0.00    +0.000 A 
ATOM      2  C   UNL     1      -2.119  12.624  19.854  0.00  0.00    +0.000 A 
ATOM      3  C   UNL     1      -1.616  11.786  18.831  0.00  0.00    +0.000 A 
ATOM      4  C   UNL     1      -2.527  11.081  18.032  0.00  0.00    +0.000 A 
ATOM      5 CL   UNL     1      -2.007  10.040  16.756  0.00  0.00    +0.000 Cl
ATOM      6  C   UNL     1      -3.888  11.239  18.274  0.00  0.00    +0.000 A 
ATOM      7  C   UNL     1      -4.367  12.053  19.296  0.00  0.00    +0.000 A 
ATOM      8  C   UNL     1      -5.846  12.000  19.316  0.00  0.00    +0.000 C 
ATOM      9  C   UNL     1      -6.120  11.101  18.113  0.00  0.00    +0.000 C 
ATOM     10  O   UNL     1      -4.881  10.623  17.553  0.00  0.00    +0.000 OA
ENDROOT
BRANCH   1  13
ATOM     11  C   UNL     1      -4.937  13.315  23.475  0.00  0.00    +0.000 C 
ATOM     12  O   UNL     1      -4.548  12.672  22.251  0.00  0.00    +0.000 OA
ATOM     13  C   UNL     1      -3.966  13.576  21.306  0.00  0.00    +0.000 C 
ATOM     14  C   UNL     1      -5.004  14.641  20.881  0.00  0.00    +0.000 C 
ATOM     15  C   UNL     1      -5.540  15.361  22.131  0.00  0.00    +0.000 C 
ATOM     16  C   UNL     1      -6.022  14.360  23.198  0.00  0.00    +0.000 C 
BRANCH  14  17
ATOM     17  O   UNL     1      -4.451  15.581  19.956  0.00  0.00    +0.000 OA
ATOM     18  H   UNL     1      -5.019  16.369  19.917  0.00  0.00    +0.000 HD
ENDBRANCH  14  17
BRANCH  15  19
ATOM     19  O   UNL     1      -6.596  16.267  21.790  0.00  0.00    +0.000 OA
ATOM     20  H   UNL     1      -6.549  16.451  20.833  0.00  0.00    +0.000 HD
ENDBRANCH  15  19
BRANCH  16  21
ATOM     21  O   UNL     1      -6.391  15.030  24.407  0.00  0.00    +0.000 OA
ATOM     22  H   UNL     1      -5.804  14.729  25.125  0.00  0.00    +0.000 HD
ENDBRANCH  16  21
BRANCH  11  23
ATOM     23  C   UNL     1      -5.455  12.237  24.441  0.00  0.00    +0.000 C 
BRANCH  23  24
ATOM     24  O   UNL     1      -6.801  11.894  24.107  0.00  0.00    +0.000 OA
ATOM     25  H   UNL     1      -7.155  11.385  24.855  0.00  0.00    +0.000 HD
ENDBRANCH  23  24
ENDBRANCH  11  23
ENDBRANCH   1  13
BRANCH   3  26
ATOM     26  C   UNL     1      -0.114  11.684  18.669  0.00  0.00    +0.000 C 
BRANCH  26  27
ATOM     27  C   UNL     1       0.517  10.448  19.274  0.00  0.00    +0.000 A 
ATOM     28  C   UNL     1       0.209  10.070  20.591  0.00  0.00    +0.000 A 
ATOM     29  C   UNL     1       0.708   8.881  21.130  0.00  0.00    +0.000 A 
ATOM     30  C   UNL     1       1.524   8.065  20.354  0.00  0.00    +0.000 A 
ATOM     31  C   UNL     1       1.867   8.432  19.060  0.00  0.00    +0.000 A 
ATOM     32  C   UNL     1       1.365   9.619  18.521  0.00  0.00    +0.000 A 
BRANCH  30  33
ATOM     33  O   UNL     1       2.006   6.882  20.828  0.00  0.00    +0.000 OA
ATOM     34  H   UNL     1       2.528   6.460  20.126  0.00  0.00    +0.000 HD
ENDBRANCH  30  33
ENDBRANCH  26  27
ENDBRANCH   3  26
TORSDOF 9
ENDMDL
MODEL 6
REMARK VINA RESULT:      -7.0      5.986      9.752
REMARK  Name = 
REMARK  9 active torsions:
REMARK  status: ('A' for Active; 'I' for Inactive)
REMARK    1  A    between atoms: O_1  and  C_2
REMARK    2  A    between atoms: C_2  and  C_3
REMARK    3  A    between atoms: C_5  and  C_6
REMARK    4  A    between atoms: C_8  and  C_9
REMARK    5  A    between atoms: C_9  and  C_10
REMARK    6  A    between atoms: C_13  and  O_14
REMARK    7  A    between atoms: C_24  and  O_25
REMARK    8  A    between atoms: C_26  and  O_27
REMARK    9  A    between atoms: C_28  and  O_29
REMARK                            x       y       z     vdW  Elec       q    Type
REMARK                         _______ _______ _______ _____ _____    ______ ____
ROOT
ATOM      1  C   UNL     1      -4.230  12.871  20.487  0.00  0.00    +0.000 A 
ATOM      2  C   UNL     1      -2.840  12.832  20.279  0.00  0.00    +0.000 A 
ATOM      3  C   UNL     1      -2.248  12.127  19.204  0.00  0.00    +0.000 A 
ATOM      4  C   UNL     1      -3.085  11.475  18.287  0.00  0.00    +0.000 A 
ATOM      5 CL   UNL     1      -2.453  10.596  16.942  0.00  0.00    +0.000 Cl
ATOM      6  C   UNL     1      -4.462  11.554  18.467  0.00  0.00    +0.000 A 
ATOM      7  C   UNL     1      -5.028  12.237  19.539  0.00  0.00    +0.000 A 
ATOM      8  C   UNL     1      -6.503  12.125  19.470  0.00  0.00    +0.000 C 
ATOM      9  C   UNL     1      -6.674  11.348  18.168  0.00  0.00    +0.000 C 
ATOM     10  O   UNL     1      -5.387  10.980  17.633  0.00  0.00    +0.000 OA
ENDROOT
BRANCH   1  13
ATOM     11  C   UNL     1      -5.571  15.697  22.442  0.00  0.00    +0.000 C 
ATOM     12  O   UNL     1      -4.929  14.944  21.400  0.00  0.00    +0.000 OA
ATOM     13  C   UNL     1      -4.800  13.554  21.715  0.00  0.00    +0.000 C 
ATOM     14  C   UNL     1      -3.889  13.372  22.952  0.00  0.00    +0.000 C 
ATOM     15  C   UNL     1      -4.451  14.192  24.127  0.00  0.00    +0.000 C 
ATOM     16  C   UNL     1      -4.725  15.651  23.719  0.00  0.00    +0.000 C 
BRANCH  14  17
ATOM     17  O   UNL     1      -3.756  11.996  23.315  0.00  0.00    +0.000 OA
ATOM     18  H   UNL     1      -4.629  11.568  23.291  0.00  0.00    +0.000 HD
ENDBRANCH  14  17
BRANCH  15  19
ATOM     19  O   UNL     1      -3.566  14.150  25.253  0.00  0.00    +0.000 OA
ATOM     20  H   UNL     1      -3.591  13.252  25.633  0.00  0.00    +0.000 HD
ENDBRANCH  15  19
BRANCH  16  21
ATOM     21  O   UNL     1      -5.372  16.370  24.773  0.00  0.00    +0.000 OA
ATOM     22  H   UNL     1      -4.720  16.559  25.472  0.00  0.00    +0.000 HD
ENDBRANCH  16  21
BRANCH  11  23
ATOM     23  C   UNL     1      -5.739  17.145  21.955  0.00  0.00    +0.000 C 
BRANCH  23  24
ATOM     24  O   UNL     1      -4.644  17.941  22.409  0.00  0.00    +0.000 OA
ATOM     25  H   UNL     1      -4.910  18.323  23.262  0.00  0.00    +0.000 HD
ENDBRANCH  23  24
ENDBRANCH  11  23
ENDBRANCH   1  13
BRANCH   3  26
ATOM     26  C   UNL     1      -0.737  12.100  19.117  0.00  0.00    +0.000 C 
BRANCH  26  27
ATOM     27  C   UNL     1      -0.088  10.806  19.560  0.00  0.00    +0.000 A 
ATOM     28  C   UNL     1       0.817  10.144  18.715  0.00  0.00    +0.000 A 
ATOM     29  C   UNL     1       1.496   9.001  19.147  0.00  0.00    +0.000 A 
ATOM     30  C   UNL     1       1.267   8.512  20.429  0.00  0.00    +0.000 A 
ATOM     31  C   UNL     1       0.355   9.131  21.272  0.00  0.00    +0.000 A 
ATOM     32  C   UNL     1      -0.320  10.275  20.840  0.00  0.00    +0.000 A 
BRANCH  30  33
ATOM     33  O   UNL     1       1.932   7.420  20.903  0.00  0.00    +0.000 OA
ATOM     34  H   UNL     1       1.641   7.256  21.815  0.00  0.00    +0.000 HD
ENDBRANCH  30  33
ENDBRANCH  26  27
ENDBRANCH   3  26
TORSDOF 9
ENDMDL
MODEL 7
REMARK VINA RESULT:      -7.0      2.638      3.921
REMARK  Name = 
REMARK  9 active torsions:
REMARK  status: ('A' for Active; 'I' for Inactive)
REMARK    1  A    between atoms: O_1  and  C_2
REMARK    2  A    between atoms: C_2  and  C_3
REMARK    3  A    between atoms: C_5  and  C_6
REMARK    4  A    between atoms: C_8  and  C_9
REMARK    5  A    between atoms: C_9  and  C_10
REMARK    6  A    between atoms: C_13  and  O_14
REMARK    7  A    between atoms: C_24  and  O_25
REMARK    8  A    between atoms: C_26  and  O_27
REMARK    9  A    between atoms: C_28  and  O_29
REMARK                            x       y       z     vdW  Elec       q    Type
REMARK                         _______ _______ _______ _____ _____    ______ ____
ROOT
ATOM      1  C   UNL     1       2.786   6.139  18.097  0.00  0.00    +0.000 A 
ATOM      2  C   UNL     1       3.951   6.609  17.465  0.00  0.00    +0.000 A 
ATOM      3  C   UNL     1       4.891   5.745  16.856  0.00  0.00    +0.000 A 
ATOM      4  C   UNL     1       4.628   4.367  16.846  0.00  0.00    +0.000 A 
ATOM      5 CL   UNL     1       5.713   3.236  16.121  0.00  0.00    +0.000 Cl
ATOM      6  C   UNL     1       3.451   3.908  17.429  0.00  0.00    +0.000 A 
ATOM      7  C   UNL     1       2.545   4.770  18.041  0.00  0.00    +0.000 A 
ATOM      8  C   UNL     1       1.411   3.988  18.583  0.00  0.00    +0.000 C 
ATOM      9  C   UNL     1       1.781   2.581  18.119  0.00  0.00    +0.000 C 
ATOM     10  O   UNL     1       3.067   2.592  17.469  0.00  0.00    +0.000 OA
ENDROOT
BRANCH   1  13
ATOM     11  C   UNL     1       1.103   9.366  18.704  0.00  0.00    +0.000 C 
ATOM     12  O   UNL     1       2.008   8.378  18.186  0.00  0.00    +0.000 OA
ATOM     13  C   UNL     1       1.869   7.105  18.825  0.00  0.00    +0.000 C 
ATOM     14  C   UNL     1       2.228   7.221  20.324  0.00  0.00    +0.000 C 
ATOM     15  C   UNL     1       1.353   8.306  20.977  0.00  0.00    +0.000 C 
ATOM     16  C   UNL     1       1.400   9.625  20.184  0.00  0.00    +0.000 C 
BRANCH  14  17
ATOM     17  O   UNL     1       2.076   5.973  21.005  0.00  0.00    +0.000 OA
ATOM     18  H   UNL     1       2.176   5.243  20.369  0.00  0.00    +0.000 HD
ENDBRANCH  14  17
BRANCH  15  19
ATOM     19  O   UNL     1       1.743   8.532  22.337  0.00  0.00    +0.000 OA
ATOM     20  H   UNL     1       2.007   7.679  22.729  0.00  0.00    +0.000 HD
ENDBRANCH  15  19
BRANCH  16  21
ATOM     21  O   UNL     1       0.481  10.583  20.717  0.00  0.00    +0.000 OA
ATOM     22  H   UNL     1      -0.428  10.296  20.512  0.00  0.00    +0.000 HD
ENDBRANCH  16  21
BRANCH  11  23
ATOM     23  C   UNL     1       1.275  10.654  17.882  0.00  0.00    +0.000 C 
BRANCH  23  24
ATOM     24  O   UNL     1       0.179  11.535  18.127  0.00  0.00    +0.000 OA
ATOM     25  H   UNL     1      -0.254  11.688  17.271  0.00  0.00    +0.000 HD
ENDBRANCH  23  24
ENDBRANCH  11  23
ENDBRANCH   1  13
BRANCH   3  26
ATOM     26  C   UNL     1       6.142   6.357  16.264  0.00  0.00    +0.000 C 
BRANCH  26  27
ATOM     27  C   UNL     1       6.955   7.209  17.215  0.00  0.00    +0.000 A 
ATOM     28  C   UNL     1       7.690   6.609  18.249  0.00  0.00    +0.000 A 
ATOM     29  C   UNL     1       8.521   7.373  19.075  0.00  0.00    +0.000 A 
ATOM     30  C   UNL     1       8.615   8.745  18.871  0.00  0.00    +0.000 A 
ATOM     31  C   UNL     1       7.875   9.366  17.874  0.00  0.00    +0.000 A 
ATOM     32  C   UNL     1       7.048   8.601  17.048  0.00  0.00    +0.000 A 
BRANCH  30  33
ATOM     33  O   UNL     1       9.438   9.523  19.630  0.00  0.00    +0.000 OA
ATOM     34  H   UNL     1      10.128   8.957  20.014  0.00  0.00    +0.000 HD
ENDBRANCH  30  33
ENDBRANCH  26  27
ENDBRANCH   3  26
TORSDOF 9
ENDMDL
MODEL 8
REMARK VINA RESULT:      -6.9      1.261      1.667
REMARK  Name = 
REMARK  9 active torsions:
REMARK  status: ('A' for Active; 'I' for Inactive)
REMARK    1  A    between atoms: O_1  and  C_2
REMARK    2  A    between atoms: C_2  and  C_3
REMARK    3  A    between atoms: C_5  and  C_6
REMARK    4  A    between atoms: C_8  and  C_9
REMARK    5  A    between atoms: C_9  and  C_10
REMARK    6  A    between atoms: C_13  and  O_14
REMARK    7  A    between atoms: C_24  and  O_25
REMARK    8  A    between atoms: C_26  and  O_27
REMARK    9  A    between atoms: C_28  and  O_29
REMARK                            x       y       z     vdW  Elec       q    Type
REMARK                         _______ _______ _______ _____ _____    ______ ____
ROOT
ATOM      1  C   UNL     1       2.656   5.646  19.132  0.00  0.00    +0.000 A 
ATOM      2  C   UNL     1       2.934   5.225  17.820  0.00  0.00    +0.000 A 
ATOM      3  C   UNL     1       3.188   3.873  17.490  0.00  0.00    +0.000 A 
ATOM      4  C   UNL     1       3.118   2.909  18.507  0.00  0.00    +0.000 A 
ATOM      5 CL   UNL     1       3.406   1.234  18.198  0.00  0.00    +0.000 Cl
ATOM      6  C   UNL     1       2.795   3.321  19.795  0.00  0.00    +0.000 A 
ATOM      7  C   UNL     1       2.566   4.658  20.108  0.00  0.00    +0.000 A 
ATOM      8  C   UNL     1       2.269   4.782  21.553  0.00  0.00    +0.000 C 
ATOM      9  C   UNL     1       2.292   3.317  21.980  0.00  0.00    +0.000 C 
ATOM     10  O   UNL     1       2.675   2.479  20.872  0.00  0.00    +0.000 OA
ENDROOT
BRANCH   1  13
ATOM     11  C   UNL     1       1.124   8.599  20.727  0.00  0.00    +0.000 C 
ATOM     12  O   UNL     1       1.329   7.257  20.259  0.00  0.00    +0.000 OA
ATOM     13  C   UNL     1       2.497   7.123  19.443  0.00  0.00    +0.000 C 
ATOM     14  C   UNL     1       2.347   7.970  18.158  0.00  0.00    +0.000 C 
ATOM     15  C   UNL     1       2.061   9.433  18.540  0.00  0.00    +0.000 C 
ATOM     16  C   UNL     1       0.894   9.539  19.539  0.00  0.00    +0.000 C 
BRANCH  14  17
ATOM     17  O   UNL     1       3.507   7.883  17.326  0.00  0.00    +0.000 OA
ATOM     18  H   UNL     1       4.291   7.723  17.880  0.00  0.00    +0.000 HD
ENDBRANCH  14  17
BRANCH  15  19
ATOM     19  O   UNL     1       1.790  10.225  17.377  0.00  0.00    +0.000 OA
ATOM     20  H   UNL     1       2.173  11.112  17.510  0.00  0.00    +0.000 HD
ENDBRANCH  15  19
BRANCH  16  21
ATOM     21  O   UNL     1       0.722  10.885  19.993  0.00  0.00    +0.000 OA
ATOM     22  H   UNL     1       1.204  10.997  20.833  0.00  0.00    +0.000 HD
ENDBRANCH  16  21
BRANCH  11  23
ATOM     23  C   UNL     1      -0.095   8.601  21.664  0.00  0.00    +0.000 C 
BRANCH  23  24
ATOM     24  O   UNL     1       0.084   9.577  22.690  0.00  0.00    +0.000 OA
ATOM     25  H   UNL     1      -0.754   9.626  23.180  0.00  0.00    +0.000 HD
ENDBRANCH  23  24
ENDBRANCH  11  23
ENDBRANCH   1  13
BRANCH   3  26
ATOM     26  C   UNL     1       3.541   3.544  16.055  0.00  0.00    +0.000 C 
BRANCH  26  27
ATOM     27  C   UNL     1       4.885   4.061  15.587  0.00  0.00    +0.000 A 
ATOM     28  C   UNL     1       5.267   3.922  14.243  0.00  0.00    +0.000 A 
ATOM     29  C   UNL     1       6.461   4.479  13.777  0.00  0.00    +0.000 A 
ATOM     30  C   UNL     1       7.284   5.174  14.657  0.00  0.00    +0.000 A 
ATOM     31  C   UNL     1       6.943   5.298  15.997  0.00  0.00    +0.000 A 
ATOM     32  C   UNL     1       5.747   4.744  16.461  0.00  0.00    +0.000 A 
BRANCH  30  33
ATOM     33  O   UNL     1       8.440   5.761  14.238  0.00  0.00    +0.000 OA
ATOM     34  H   UNL     1       9.176   5.153  14.418  0.00  0.00    +0.000 HD
ENDBRANCH  30  33
ENDBRANCH  26  27
ENDBRANCH   3  26
TORSDOF 9
ENDMDL
MODEL 9
REMARK VINA RESULT:      -6.8      3.114      5.065
REMARK  Name = 
REMARK  9 active torsions:
REMARK  status: ('A' for Active; 'I' for Inactive)
REMARK    1  A    between atoms: O_1  and  C_2
REMARK    2  A    between atoms: C_2  and  C_3
REMARK    3  A    between atoms: C_5  and  C_6
REMARK    4  A    between atoms: C_8  and  C_9
REMARK    5  A    between atoms: C_9  and  C_10
REMARK    6  A    between atoms: C_13  and  O_14
REMARK    7  A    between atoms: C_24  and  O_25
REMARK    8  A    between atoms: C_26  and  O_27
REMARK    9  A    between atoms: C_28  and  O_29
REMARK                            x       y       z     vdW  Elec       q    Type
REMARK                         _______ _______ _______ _____ _____    ______ ____
ROOT
ATOM      1  C   UNL     1       1.232  10.145  19.076  0.00  0.00    +0.000 A 
ATOM      2  C   UNL     1       1.659   9.077  18.267  0.00  0.00    +0.000 A 
ATOM      3  C   UNL     1       1.868   7.772  18.773  0.00  0.00    +0.000 A 
ATOM      4  C   UNL     1       1.599   7.526  20.128  0.00  0.00    +0.000 A 
ATOM      5 CL   UNL     1       1.819   5.965  20.832  0.00  0.00    +0.000 Cl
ATOM      6  C   UNL     1       1.132   8.573  20.915  0.00  0.00    +0.000 A 
ATOM      7  C   UNL     1       0.948   9.855  20.407  0.00  0.00    +0.000 A 
ATOM      8  C   UNL     1       0.466  10.748  21.485  0.00  0.00    +0.000 C 
ATOM      9  C   UNL     1       0.337   9.761  22.643  0.00  0.00    +0.000 C 
ATOM     10  O   UNL     1       0.813   8.460  22.245  0.00  0.00    +0.000 OA
ENDROOT
BRANCH   1  13
ATOM     11  C   UNL     1       2.411  13.549  18.281  0.00  0.00    +0.000 C 
ATOM     12  O   UNL     1       2.325  12.239  18.864  0.00  0.00    +0.000 OA
ATOM     13  C   UNL     1       1.127  11.545  18.500  0.00  0.00    +0.000 C 
ATOM     14  C   UNL     1      -0.109  12.300  19.041  0.00  0.00    +0.000 C 
ATOM     15  C   UNL     1      -0.090  13.750  18.525  0.00  0.00    +0.000 C 
ATOM     16  C   UNL     1       1.266  14.428  18.794  0.00  0.00    +0.000 C 
BRANCH  14  17
ATOM     17  O   UNL     1      -1.329  11.650  18.675  0.00  0.00    +0.000 OA
ATOM     18  H   UNL     1      -1.128  10.796  18.256  0.00  0.00    +0.000 HD
ENDBRANCH  14  17
BRANCH  15  19
ATOM     19  O   UNL     1      -1.151  14.517  19.106  0.00  0.00    +0.000 OA
ATOM     20  H   UNL     1      -1.318  14.181  20.007  0.00  0.00    +0.000 HD
ENDBRANCH  15  19
BRANCH  16  21
ATOM     21  O   UNL     1       1.324  15.725  18.193  0.00  0.00    +0.000 OA
ATOM     22  H   UNL     1       2.258  15.997  18.120  0.00  0.00    +0.000 HD
ENDBRANCH  16  21
BRANCH  11  23
ATOM     23  C   UNL     1       3.772  14.155  18.661  0.00  0.00    +0.000 C 
BRANCH  23  24
ATOM     24  O   UNL     1       4.297  14.898  17.559  0.00  0.00    +0.000 OA
ATOM     25  H   UNL     1       3.539  15.317  17.118  0.00  0.00    +0.000 HD
ENDBRANCH  23  24
ENDBRANCH  11  23
ENDBRANCH   1  13
BRANCH   3  26
ATOM     26  C   UNL     1       2.391   6.716  17.824  0.00  0.00    +0.000 C 
BRANCH  26  27
ATOM     27  C   UNL     1       3.880   6.456  17.906  0.00  0.00    +0.000 A 
ATOM     28  C   UNL     1       4.387   5.537  18.838  0.00  0.00    +0.000 A 
ATOM     29  C   UNL     1       5.747   5.215  18.860  0.00  0.00    +0.000 A 
ATOM     30  C   UNL     1       6.609   5.817  17.951  0.00  0.00    +0.000 A 
ATOM     31  C   UNL     1       6.137   6.751  17.038  0.00  0.00    +0.000 A 
ATOM     32  C   UNL     1       4.777   7.069  17.015  0.00  0.00    +0.000 A 
BRANCH  30  33
ATOM     33  O   UNL     1       7.936   5.508  17.915  0.00  0.00    +0.000 OA
ATOM     34  H   UNL     1       8.033   4.613  17.551  0.00  0.00    +0.000 HD
ENDBRANCH  30  33
ENDBRANCH  26  27
ENDBRANCH   3  26
TORSDOF 9
ENDMDL
