MODEL 1
REMARK VINA RESULT:      -8.0      0.000      0.000
REMARK  Name = 
REMARK  6 active torsions:
REMARK  status: ('A' for Active; 'I' for Inactive)
REMARK    1  A    between atoms: C_2  and  C_3
REMARK    2  A    between atoms: C_2  and  O_13
REMARK    3  A    between atoms: C_3  and  N_4
REMARK    4  A    between atoms: C_5  and  C_7
REMARK    5  A    between atoms: O_13  and  C_14
REMARK    6  A    between atoms: C_14  and  N_15
REMARK                            x       y       z     vdW  Elec       q    Type
REMARK                         _______ _______ _______ _____ _____    ______ ____
ROOT
ATOM      1  O   UNL     1       7.348   7.559  16.735  0.00  0.00    +0.000 OA
ATOM      2  C   UNL     1       6.840   6.546  17.205  0.00  0.00    +0.000 C 
ENDROOT
BRANCH   2   3
ATOM      3  C   UNL     1       7.400   5.148  17.014  0.00  0.00    +0.000 C 
BRANCH   3   4
ATOM      4  N   UNL     1       6.783   4.464  15.892  0.00  0.00    +0.000 N 
ATOM      5  C   UNL     1       7.169   4.760  14.602  0.00  0.00    +0.000 C 
ATOM      6  O   UNL     1       8.053   5.570  14.343  0.00  0.00    +0.000 OA
ATOM      7  H   UNL     1       6.046   3.802  16.087  0.00  0.00    +0.000 HD
BRANCH   5   8
ATOM      8  C   UNL     1       6.425   4.093  13.500  0.00  0.00    +0.000 A 
ATOM      9  C   UNL     1       7.175   3.446  12.504  0.00  0.00    +0.000 A 
ATOM     10  C   UNL     1       6.536   2.814  11.438  0.00  0.00    +0.000 A 
ATOM     11  C   UNL     1       5.144   2.816  11.364  0.00  0.00    +0.000 A 
ATOM     12  C   UNL     1       4.391   3.444  12.357  0.00  0.00    +0.000 A 
ATOM     13  C   UNL     1       5.028   4.081  13.427  0.00  0.00    +0.000 A 
ENDBRANCH   5   8
ENDBRANCH   3   4
ENDBRANCH   2   3
BRANCH   2  14
ATOM     14  O   UNL     1       5.700   6.505  17.943  0.00  0.00    +0.000 OA
BRANCH  14  15
ATOM     15  C   UNL     1       4.499   6.552  17.191  0.00  0.00    +0.000 C 
BRANCH  15  16
ATOM     16  N   UNL     1       3.549   5.588  17.694  0.00  0.00    +0.000 N 
ATOM     17  C   UNL     1       2.770   5.874  18.782  0.00  0.00    +0.000 C 
ATOM     18  O   UNL     1       2.682   6.913  19.406  0.00  0.00    +0.000 OA
ATOM     19  C   UNL     1       2.075   4.641  19.135  0.00  0.00    +0.000 A 
ATOM     20  C   UNL     1       1.173   4.386  20.148  0.00  0.00    +0.000 A 
ATOM     21  C   UNL     1       0.718   3.072  20.277  0.00  0.00    +0.000 A 
ATOM     22  C   UNL     1       1.171   2.059  19.404  0.00  0.00    +0.000 A 
ATOM     23  C   UNL     1       2.083   2.347  18.382  0.00  0.00    +0.000 A 
ATOM     24  C   UNL     1       2.515   3.653  18.275  0.00  0.00    +0.000 A 
ATOM     25  C   UNL     1       3.487   4.260  17.368  0.00  0.00    +0.000 C 
ATOM     26  O   UNL     1       4.105   3.619  16.539  0.00  0.00    +0.000 OA
ENDBRANCH  15  16
ENDBRANCH  14  15
ENDBRANCH   2  14
TORSDOF 6
ENDMDL
MODEL 2
REMARK VINA RESULT:      -7.9      3.745      6.450
REMARK  Name = 
REMARK  6 active torsions:
REMARK  status: ('A' for Active; 'I' for Inactive)
REMARK    1  A    between atoms: C_2  and  C_3
REMARK    2  A    between atoms: C_2  and  O_13
REMARK    3  A    between atoms: C_3  and  N_4
REMARK    4  A    between atoms: C_5  and  C_7
REMARK    5  A    between atoms: O_13  and  C_14
REMARK    6  A    between atoms: C_14  and  N_15
REMARK                            x       y       z     vdW  Elec       q    Type
REMARK                         _______ _______ _______ _____ _____    ______ ____
ROOT
ATOM      1  O   UNL     1       7.740   5.752  20.336  0.00  0.00    +0.000 OA
ATOM      2  C   UNL     1       7.724   5.710  19.110  0.00  0.00    +0.000 C 
ENDROOT
BRANCH   2   3
ATOM      3  C   UNL     1       7.865   6.930  18.217  0.00  0.00    +0.000 C 
BRANCH   3   4
ATOM      4  N   UNL     1       8.651   7.976  18.846  0.00  0.00    +0.000 N 
ATOM      5  C   UNL     1       8.516   9.285  18.437  0.00  0.00    +0.000 C 
ATOM      6  O   UNL     1       7.723   9.631  17.567  0.00  0.00    +0.000 OA
ATOM      7  H   UNL     1       9.316   7.709  19.556  0.00  0.00    +0.000 HD
BRANCH   5   8
ATOM      8  C   UNL     1       9.423  10.289  19.056  0.00  0.00    +0.000 A 
ATOM      9  C   UNL     1       9.182  10.651  20.391  0.00  0.00    +0.000 A 
ATOM     10  C   UNL     1       9.990  11.596  21.023  0.00  0.00    +0.000 A 
ATOM     11  C   UNL     1      11.049  12.178  20.329  0.00  0.00    +0.000 A 
ATOM     12  C   UNL     1      11.305  11.812  19.008  0.00  0.00    +0.000 A 
ATOM     13  C   UNL     1      10.497  10.867  18.369  0.00  0.00    +0.000 A 
ENDBRANCH   5   8
ENDBRANCH   3   4
ENDBRANCH   2   3
BRANCH   2  14
ATOM     14  O   UNL     1       7.558   4.589  18.361  0.00  0.00    +0.000 OA
BRANCH  14  15
ATOM     15  C   UNL     1       6.476   4.637  17.446  0.00  0.00    +0.000 C 
BRANCH  15  16
ATOM     16  N   UNL     1       5.217   4.676  18.153  0.00  0.00    +0.000 N 
ATOM     17  C   UNL     1       4.446   5.806  18.150  0.00  0.00    +0.000 C 
ATOM     18  O   UNL     1       4.618   6.845  17.545  0.00  0.00    +0.000 OA
ATOM     19  C   UNL     1       3.361   5.575  19.097  0.00  0.00    +0.000 A 
ATOM     20  C   UNL     1       2.312   6.392  19.465  0.00  0.00    +0.000 A 
ATOM     21  C   UNL     1       1.453   5.915  20.458  0.00  0.00    +0.000 A 
ATOM     22  C   UNL     1       1.662   4.651  21.051  0.00  0.00    +0.000 A 
ATOM     23  C   UNL     1       2.732   3.840  20.654  0.00  0.00    +0.000 A 
ATOM     24  C   UNL     1       3.565   4.334  19.671  0.00  0.00    +0.000 A 
ATOM     25  C   UNL     1       4.778   3.772  19.082  0.00  0.00    +0.000 C 
ATOM     26  O   UNL     1       5.255   2.712  19.443  0.00  0.00    +0.000 OA
ENDBRANCH  15  16
ENDBRANCH  14  15
ENDBRANCH   2  14
TORSDOF 6
ENDMDL
MODEL 3
REMARK VINA RESULT:      -7.9      4.213      6.758
REMARK  Name = 
REMARK  6 active torsions:
REMARK  status: ('A' for Active; 'I' for Inactive)
REMARK    1  A    between atoms: C_2  and  C_3
REMARK    2  A    between atoms: C_2  and  O_13
REMARK    3  A    between atoms: C_3  and  N_4
REMARK    4  A    between atoms: C_5  and  C_7
REMARK    5  A    between atoms: O_13  and  C_14
REMARK    6  A    between atoms: C_14  and  N_15
REMARK                            x       y       z     vdW  Elec       q    Type
REMARK                         _______ _______ _______ _____ _____    ______ ____
ROOT
ATOM      1  O   UNL     1       8.277   6.602  19.053  0.00  0.00    +0.000 OA
ATOM      2  C   UNL     1       7.826   7.048  18.003  0.00  0.00    +0.000 C 
ENDROOT
BRANCH   2   3
ATOM      3  C   UNL     1       7.697   8.529  17.696  0.00  0.00    +0.000 C 
BRANCH   3   4
ATOM      4  N   UNL     1       8.799   9.296  18.246  0.00  0.00    +0.000 N 
ATOM      5  C   UNL     1       8.843  10.664  18.081  0.00  0.00    +0.000 C 
ATOM      6  O   UNL     1       7.961  11.292  17.505  0.00  0.00    +0.000 OA
ATOM      7  H   UNL     1       9.540   8.795  18.714  0.00  0.00    +0.000 HD
BRANCH   5   8
ATOM      8  C   UNL     1      10.051  11.372  18.585  0.00  0.00    +0.000 A 
ATOM      9  C   UNL     1      10.222  11.462  19.976  0.00  0.00    +0.000 A 
ATOM     10  C   UNL     1      11.327  12.125  20.510  0.00  0.00    +0.000 A 
ATOM     11  C   UNL     1      12.273  12.693  19.658  0.00  0.00    +0.000 A 
ATOM     12  C   UNL     1      12.118  12.595  18.275  0.00  0.00    +0.000 A 
ATOM     13  C   UNL     1      11.011  11.933  17.735  0.00  0.00    +0.000 A 
ENDBRANCH   5   8
ENDBRANCH   3   4
ENDBRANCH   2   3
BRANCH   2  14
ATOM     14  O   UNL     1       7.353   6.305  16.968  0.00  0.00    +0.000 OA
BRANCH  14  15
ATOM     15  C   UNL     1       7.218   4.920  17.240  0.00  0.00    +0.000 C 
BRANCH  15  16
ATOM     16  N   UNL     1       5.852   4.603  17.583  0.00  0.00    +0.000 N 
ATOM     17  C   UNL     1       5.481   4.417  18.887  0.00  0.00    +0.000 C 
ATOM     18  O   UNL     1       6.145   4.556  19.895  0.00  0.00    +0.000 OA
ATOM     19  C   UNL     1       4.105   3.933  18.867  0.00  0.00    +0.000 A 
ATOM     20  C   UNL     1       3.266   3.596  19.908  0.00  0.00    +0.000 A 
ATOM     21  C   UNL     1       2.005   3.096  19.571  0.00  0.00    +0.000 A 
ATOM     22  C   UNL     1       1.623   2.946  18.220  0.00  0.00    +0.000 A 
ATOM     23  C   UNL     1       2.494   3.301  17.184  0.00  0.00    +0.000 A 
ATOM     24  C   UNL     1       3.732   3.794  17.544  0.00  0.00    +0.000 A 
ATOM     25  C   UNL     1       4.869   4.197  16.720  0.00  0.00    +0.000 C 
ATOM     26  O   UNL     1       4.866   4.115  15.506  0.00  0.00    +0.000 OA
ENDBRANCH  15  16
ENDBRANCH  14  15
ENDBRANCH   2  14
TORSDOF 6
ENDMDL
MODEL 4
REMARK VINA RESULT:      -7.7      0.841      1.318
REMARK  Name = 
REMARK  6 active torsions:
REMARK  status: ('A' for Active; 'I' for Inactive)
REMARK    1  A    between atoms: C_2  and  C_3
REMARK    2  A    between atoms: C_2  and  O_13
REMARK    3  A    between atoms: C_3  and  N_4
REMARK    4  A    between atoms: C_5  and  C_7
REMARK    5  A    between atoms: O_13  and  C_14
REMARK    6  A    between atoms: C_14  and  N_15
REMARK                            x       y       z     vdW  Elec       q    Type
REMARK                         _______ _______ _______ _____ _____    ______ ____
ROOT
ATOM      1  O   UNL     1       7.761   5.183  17.220  0.00  0.00    +0.000 OA
ATOM      2  C   UNL     1       6.754   5.855  17.024  0.00  0.00    +0.000 C 
ENDROOT
BRANCH   2   3
ATOM      3  C   UNL     1       6.324   6.362  15.660  0.00  0.00    +0.000 C 
BRANCH   3   4
ATOM      4  N   UNL     1       6.035   5.275  14.742  0.00  0.00    +0.000 N 
ATOM      5  C   UNL     1       6.936   4.944  13.753  0.00  0.00    +0.000 C 
ATOM      6  O   UNL     1       8.015   5.513  13.621  0.00  0.00    +0.000 OA
ATOM      7  H   UNL     1       5.147   4.803  14.829  0.00  0.00    +0.000 HD
BRANCH   5   8
ATOM      8  C   UNL     1       6.530   3.887  12.788  0.00  0.00    +0.000 A 
ATOM      9  C   UNL     1       5.156   3.682  12.584  0.00  0.00    +0.000 A 
ATOM     10  C   UNL     1       4.713   2.698  11.701  0.00  0.00    +0.000 A 
ATOM     11  C   UNL     1       5.638   1.917  11.011  0.00  0.00    +0.000 A 
ATOM     12  C   UNL     1       7.005   2.124  11.197  0.00  0.00    +0.000 A 
ATOM     13  C   UNL     1       7.455   3.109  12.082  0.00  0.00    +0.000 A 
ENDBRANCH   5   8
ENDBRANCH   3   4
ENDBRANCH   2   3
BRANCH   2  14
ATOM     14  O   UNL     1       5.884   6.270  17.981  0.00  0.00    +0.000 OA
BRANCH  14  15
ATOM     15  C   UNL     1       4.608   6.661  17.501  0.00  0.00    +0.000 C 
BRANCH  15  16
ATOM     16  N   UNL     1       3.608   5.688  17.873  0.00  0.00    +0.000 N 
ATOM     17  C   UNL     1       2.806   5.888  18.963  0.00  0.00    +0.000 C 
ATOM     18  O   UNL     1       2.736   6.859  19.691  0.00  0.00    +0.000 OA
ATOM     19  C   UNL     1       2.056   4.654  19.164  0.00  0.00    +0.000 A 
ATOM     20  C   UNL     1       1.114   4.331  20.119  0.00  0.00    +0.000 A 
ATOM     21  C   UNL     1       0.607   3.029  20.096  0.00  0.00    +0.000 A 
ATOM     22  C   UNL     1       1.051   2.096  19.134  0.00  0.00    +0.000 A 
ATOM     23  C   UNL     1       2.004   2.453  18.174  0.00  0.00    +0.000 A 
ATOM     24  C   UNL     1       2.487   3.745  18.217  0.00  0.00    +0.000 A 
ATOM     25  C   UNL     1       3.509   4.405  17.407  0.00  0.00    +0.000 C 
ATOM     26  O   UNL     1       4.129   3.830  16.532  0.00  0.00    +0.000 OA
ENDBRANCH  15  16
ENDBRANCH  14  15
ENDBRANCH   2  14
TORSDOF 6
ENDMDL
MODEL 5
REMARK VINA RESULT:      -7.7      5.316      8.265
REMARK  Name = 
REMARK  6 active torsions:
REMARK  status: ('A' for Active; 'I' for Inactive)
REMARK    1  A    between atoms: C_2  and  C_3
REMARK    2  A    between atoms: C_2  and  O_13
REMARK    3  A    between atoms: C_3  and  N_4
REMARK    4  A    between atoms: C_5  and  C_7
REMARK    5  A    between atoms: O_13  and  C_14
REMARK    6  A    between atoms: C_14  and  N_15
REMARK                            x       y       z     vdW  Elec       q    Type
REMARK                         _______ _______ _______ _____ _____    ______ ____
ROOT
ATOM      1  O   UNL     1      -0.721   8.413  21.804  0.00  0.00    +0.000 OA
ATOM      2  C   UNL     1       0.306   9.058  21.617  0.00  0.00    +0.000 C 
ENDROOT
BRANCH   2   3
ATOM      3  C   UNL     1       1.660   8.435  21.330  0.00  0.00    +0.000 C 
BRANCH   3   4
ATOM      4  N   UNL     1       1.552   7.022  21.014  0.00  0.00    +0.000 N 
ATOM      5  C   UNL     1       2.068   6.534  19.833  0.00  0.00    +0.000 C 
ATOM      6  O   UNL     1       2.659   7.242  19.024  0.00  0.00    +0.000 OA
ATOM      7  H   UNL     1       1.060   6.427  21.663  0.00  0.00    +0.000 HD
BRANCH   5   8
ATOM      8  C   UNL     1       1.834   5.096  19.530  0.00  0.00    +0.000 A 
ATOM      9  C   UNL     1       2.202   4.629  18.258  0.00  0.00    +0.000 A 
ATOM     10  C   UNL     1       1.996   3.294  17.910  0.00  0.00    +0.000 A 
ATOM     11  C   UNL     1       1.430   2.416  18.833  0.00  0.00    +0.000 A 
ATOM     12  C   UNL     1       1.076   2.869  20.104  0.00  0.00    +0.000 A 
ATOM     13  C   UNL     1       1.279   4.207  20.457  0.00  0.00    +0.000 A 
ENDBRANCH   5   8
ENDBRANCH   3   4
ENDBRANCH   2   3
BRANCH   2  14
ATOM     14  O   UNL     1       0.405  10.413  21.656  0.00  0.00    +0.000 OA
BRANCH  14  15
ATOM     15  C   UNL     1       0.619  11.034  20.400  0.00  0.00    +0.000 C 
BRANCH  15  16
ATOM     16  N   UNL     1      -0.545  10.886  19.558  0.00  0.00    +0.000 N 
ATOM     17  C   UNL     1      -0.469  10.219  18.366  0.00  0.00    +0.000 C 
ATOM     18  O   UNL     1       0.472   9.617  17.888  0.00  0.00    +0.000 OA
ATOM     19  C   UNL     1      -1.748  10.417  17.693  0.00  0.00    +0.000 A 
ATOM     20  C   UNL     1      -2.190   9.955  16.470  0.00  0.00    +0.000 A 
ATOM     21  C   UNL     1      -3.460  10.367  16.058  0.00  0.00    +0.000 A 
ATOM     22  C   UNL     1      -4.243  11.220  16.865  0.00  0.00    +0.000 A 
ATOM     23  C   UNL     1      -3.771  11.668  18.104  0.00  0.00    +0.000 A 
ATOM     24  C   UNL     1      -2.515  11.246  18.489  0.00  0.00    +0.000 A 
ATOM     25  C   UNL     1      -1.725  11.571  19.675  0.00  0.00    +0.000 C 
ATOM     26  O   UNL     1      -2.110  12.345  20.531  0.00  0.00    +0.000 OA
ENDBRANCH  15  16
ENDBRANCH  14  15
ENDBRANCH   2  14
TORSDOF 6
ENDMDL
MODEL 6
REMARK VINA RESULT:      -7.7      1.236      1.307
REMARK  Name = 
REMARK  6 active torsions:
REMARK  status: ('A' for Active; 'I' for Inactive)
REMARK    1  A    between atoms: C_2  and  C_3
REMARK    2  A    between atoms: C_2  and  O_13
REMARK    3  A    between atoms: C_3  and  N_4
REMARK    4  A    between atoms: C_5  and  C_7
REMARK    5  A    between atoms: O_13  and  C_14
REMARK    6  A    between atoms: C_14  and  N_15
REMARK                            x       y       z     vdW  Elec       q    Type
REMARK                         _______ _______ _______ _____ _____    ______ ____
ROOT
ATOM      1  O   UNL     1       7.368   7.227  16.711  0.00  0.00    +0.000 OA
ATOM      2  C   UNL     1       6.721   6.192  16.593  0.00  0.00    +0.000 C 
ENDROOT
BRANCH   2   3
ATOM      3  C   UNL     1       7.339   4.825  16.361  0.00  0.00    +0.000 C 
BRANCH   3   4
ATOM      4  N   UNL     1       6.684   4.107  15.283  0.00  0.00    +0.000 N 
ATOM      5  C   UNL     1       6.972   4.413  13.970  0.00  0.00    +0.000 C 
ATOM      6  O   UNL     1       7.800   5.260  13.652  0.00  0.00    +0.000 OA
ATOM      7  H   UNL     1       5.992   3.414  15.526  0.00  0.00    +0.000 HD
BRANCH   5   8
ATOM      8  C   UNL     1       6.190   3.707  12.920  0.00  0.00    +0.000 A 
ATOM      9  C   UNL     1       6.848   2.720  12.168  0.00  0.00    +0.000 A 
ATOM     10  C   UNL     1       6.173   2.032  11.160  0.00  0.00    +0.000 A 
ATOM     11  C   UNL     1       4.833   2.318  10.903  0.00  0.00    +0.000 A 
ATOM     12  C   UNL     1       4.168   3.286  11.656  0.00  0.00    +0.000 A 
ATOM     13  C   UNL     1       4.841   3.980  12.666  0.00  0.00    +0.000 A 
ENDBRANCH   5   8
ENDBRANCH   3   4
ENDBRANCH   2   3
BRANCH   2  14
ATOM     14  O   UNL     1       5.365   6.100  16.626  0.00  0.00    +0.000 OA
BRANCH  14  15
ATOM     15  C   UNL     1       4.761   6.602  17.806  0.00  0.00    +0.000 C 
BRANCH  15  16
ATOM     16  N   UNL     1       4.025   5.558  18.481  0.00  0.00    +0.000 N 
ATOM     17  C   UNL     1       2.684   5.687  18.718  0.00  0.00    +0.000 C 
ATOM     18  O   UNL     1       1.928   6.571  18.365  0.00  0.00    +0.000 OA
ATOM     19  C   UNL     1       2.299   4.565  19.568  0.00  0.00    +0.000 A 
ATOM     20  C   UNL     1       1.068   4.227  20.090  0.00  0.00    +0.000 A 
ATOM     21  C   UNL     1       1.022   3.114  20.934  0.00  0.00    +0.000 A 
ATOM     22  C   UNL     1       2.190   2.380  21.231  0.00  0.00    +0.000 A 
ATOM     23  C   UNL     1       3.425   2.744  20.683  0.00  0.00    +0.000 A 
ATOM     24  C   UNL     1       3.444   3.845  19.851  0.00  0.00    +0.000 A 
ATOM     25  C   UNL     1       4.558   4.505  19.174  0.00  0.00    +0.000 C 
ATOM     26  O   UNL     1       5.713   4.140  19.296  0.00  0.00    +0.000 OA
ENDBRANCH  15  16
ENDBRANCH  14  15
ENDBRANCH   2  14
TORSDOF 6
ENDMDL
MODEL 7
REMARK VINA RESULT:      -7.6      2.802      6.018
REMARK  Name = 
REMARK  6 active torsions:
REMARK  status: ('A' for Active; 'I' for Inactive)
REMARK    1  A    between atoms: C_2  and  C_3
REMARK    2  A    between atoms: C_2  and  O_13
REMARK    3  A    between atoms: C_3  and  N_4
REMARK    4  A    between atoms: C_5  and  C_7
REMARK    5  A    between atoms: O_13  and  C_14
REMARK    6  A    between atoms: C_14  and  N_15
REMARK                            x       y       z     vdW  Elec       q    Type
REMARK                         _______ _______ _______ _____ _____    ______ ____
ROOT
ATOM      1  O   UNL     1       6.414   6.581  17.473  0.00  0.00    +0.000 OA
ATOM      2  C   UNL     1       5.440   6.393  16.750  0.00  0.00    +0.000 C 
ENDROOT
BRANCH   2   3
ATOM      3  C   UNL     1       4.293   7.375  16.599  0.00  0.00    +0.000 C 
BRANCH   3   4
ATOM      4  N   UNL     1       3.437   7.395  17.770  0.00  0.00    +0.000 N 
ATOM      5  C   UNL     1       2.527   8.416  17.948  0.00  0.00    +0.000 C 
ATOM      6  O   UNL     1       2.374   9.318  17.130  0.00  0.00    +0.000 OA
ATOM      7  H   UNL     1       3.556   6.667  18.459  0.00  0.00    +0.000 HD
BRANCH   5   8
ATOM      8  C   UNL     1       1.754   8.426  19.219  0.00  0.00    +0.000 A 
ATOM      9  C   UNL     1       0.839   9.472  19.418  0.00  0.00    +0.000 A 
ATOM     10  C   UNL     1       0.094   9.544  20.595  0.00  0.00    +0.000 A 
ATOM     11  C   UNL     1       0.251   8.566  21.576  0.00  0.00    +0.000 A 
ATOM     12  C   UNL     1       1.147   7.515  21.379  0.00  0.00    +0.000 A 
ATOM     13  C   UNL     1       1.898   7.440  20.201  0.00  0.00    +0.000 A 
ENDBRANCH   5   8
ENDBRANCH   3   4
ENDBRANCH   2   3
BRANCH   2  14
ATOM     14  O   UNL     1       5.219   5.284  15.997  0.00  0.00    +0.000 OA
BRANCH  14  15
ATOM     15  C   UNL     1       5.276   4.058  16.707  0.00  0.00    +0.000 C 
BRANCH  15  16
ATOM     16  N   UNL     1       4.228   4.000  17.699  0.00  0.00    +0.000 N 
ATOM     17  C   UNL     1       4.526   4.011  19.034  0.00  0.00    +0.000 C 
ATOM     18  O   UNL     1       5.606   4.145  19.574  0.00  0.00    +0.000 OA
ATOM     19  C   UNL     1       3.278   3.753  19.744  0.00  0.00    +0.000 A 
ATOM     20  C   UNL     1       3.027   3.663  21.098  0.00  0.00    +0.000 A 
ATOM     21  C   UNL     1       1.723   3.338  21.481  0.00  0.00    +0.000 A 
ATOM     22  C   UNL     1       0.719   3.112  20.515  0.00  0.00    +0.000 A 
ATOM     23  C   UNL     1       1.001   3.215  19.148  0.00  0.00    +0.000 A 
ATOM     24  C   UNL     1       2.295   3.539  18.796  0.00  0.00    +0.000 A 
ATOM     25  C   UNL     1       2.918   3.669  17.480  0.00  0.00    +0.000 C 
ATOM     26  O   UNL     1       2.315   3.463  16.443  0.00  0.00    +0.000 OA
ENDBRANCH  15  16
ENDBRANCH  14  15
ENDBRANCH   2  14
TORSDOF 6
ENDMDL
MODEL 8
REMARK VINA RESULT:      -7.6      1.628      2.014
REMARK  Name = 
REMARK  6 active torsions:
REMARK  status: ('A' for Active; 'I' for Inactive)
REMARK    1  A    between atoms: C_2  and  C_3
REMARK    2  A    between atoms: C_2  and  O_13
REMARK    3  A    between atoms: C_3  and  N_4
REMARK    4  A    between atoms: C_5  and  C_7
REMARK    5  A    between atoms: O_13  and  C_14
REMARK    6  A    between atoms: C_14  and  N_15
REMARK                            x       y       z     vdW  Elec       q    Type
REMARK                         _______ _______ _______ _____ _____    ______ ____
ROOT
ATOM      1  O   UNL     1       8.059   4.355  17.411  0.00  0.00    +0.000 OA
ATOM      2  C   UNL     1       7.317   5.326  17.313  0.00  0.00    +0.000 C 
ENDROOT
BRANCH   2   3
ATOM      3  C   UNL     1       6.910   5.954  15.992  0.00  0.00    +0.000 C 
BRANCH   3   4
ATOM      4  N   UNL     1       6.462   4.960  15.033  0.00  0.00    +0.000 N 
ATOM      5  C   UNL     1       7.085   4.848  13.808  0.00  0.00    +0.000 C 
ATOM      6  O   UNL     1       8.046   5.540  13.486  0.00  0.00    +0.000 OA
ATOM      7  H   UNL     1       5.667   4.389  15.277  0.00  0.00    +0.000 HD
BRANCH   5   8
ATOM      8  C   UNL     1       6.511   3.877  12.839  0.00  0.00    +0.000 A 
ATOM      9  C   UNL     1       5.115   3.859  12.682  0.00  0.00    +0.000 A 
ATOM     10  C   UNL     1       4.516   2.962  11.798  0.00  0.00    +0.000 A 
ATOM     11  C   UNL     1       5.306   2.084  11.058  0.00  0.00    +0.000 A 
ATOM     12  C   UNL     1       6.694   2.107  11.197  0.00  0.00    +0.000 A 
ATOM     13  C   UNL     1       7.300   3.003  12.083  0.00  0.00    +0.000 A 
ENDBRANCH   5   8
ENDBRANCH   3   4
ENDBRANCH   2   3
BRANCH   2  14
ATOM     14  O   UNL     1       6.763   6.005  18.352  0.00  0.00    +0.000 OA
BRANCH  14  15
ATOM     15  C   UNL     1       6.301   5.193  19.418  0.00  0.00    +0.000 C 
BRANCH  15  16
ATOM     16  N   UNL     1       5.059   4.548  19.060  0.00  0.00    +0.000 N 
ATOM     17  C   UNL     1       4.030   5.263  18.512  0.00  0.00    +0.000 C 
ATOM     18  O   UNL     1       4.005   6.432  18.180  0.00  0.00    +0.000 OA
ATOM     19  C   UNL     1       2.882   4.365  18.450  0.00  0.00    +0.000 A 
ATOM     20  C   UNL     1       1.604   4.587  17.982  0.00  0.00    +0.000 A 
ATOM     21  C   UNL     1       0.689   3.538  18.112  0.00  0.00    +0.000 A 
ATOM     22  C   UNL     1       1.070   2.314  18.701  0.00  0.00    +0.000 A 
ATOM     23  C   UNL     1       2.376   2.115  19.163  0.00  0.00    +0.000 A 
ATOM     24  C   UNL     1       3.261   3.165  19.020  0.00  0.00    +0.000 A 
ATOM     25  C   UNL     1       4.654   3.297  19.440  0.00  0.00    +0.000 C 
ATOM     26  O   UNL     1       5.247   2.421  20.043  0.00  0.00    +0.000 OA
ENDBRANCH  15  16
ENDBRANCH  14  15
ENDBRANCH   2  14
TORSDOF 6
ENDMDL
MODEL 9
REMARK VINA RESULT:      -7.5      2.583      4.865
REMARK  Name = 
REMARK  6 active torsions:
REMARK  status: ('A' for Active; 'I' for Inactive)
REMARK    1  A    between atoms: C_2  and  C_3
REMARK    2  A    between atoms: C_2  and  O_13
REMARK    3  A    between atoms: C_3  and  N_4
REMARK    4  A    between atoms: C_5  and  C_7
REMARK    5  A    between atoms: O_13  and  C_14
REMARK    6  A    between atoms: C_14  and  N_15
REMARK                            x       y       z     vdW  Elec       q    Type
REMARK                         _______ _______ _______ _____ _____    ______ ____
ROOT
ATOM      1  O   UNL     1       7.180   5.191  14.962  0.00  0.00    +0.000 OA
ATOM      2  C   UNL     1       6.908   5.163  16.158  0.00  0.00    +0.000 C 
ENDROOT
BRANCH   2   3
ATOM      3  C   UNL     1       7.098   6.338  17.100  0.00  0.00    +0.000 C 
BRANCH   3   4
ATOM      4  N   UNL     1       5.881   6.656  17.823  0.00  0.00    +0.000 N 
ATOM      5  C   UNL     1       4.753   7.059  17.141  0.00  0.00    +0.000 C 
ATOM      6  O   UNL     1       4.709   7.134  15.917  0.00  0.00    +0.000 OA
ATOM      7  H   UNL     1       5.902   6.610  18.832  0.00  0.00    +0.000 HD
BRANCH   5   8
ATOM      8  C   UNL     1       3.574   7.464  17.953  0.00  0.00    +0.000 A 
ATOM      9  C   UNL     1       3.294   6.723  19.112  0.00  0.00    +0.000 A 
ATOM     10  C   UNL     1       2.195   7.046  19.908  0.00  0.00    +0.000 A 
ATOM     11  C   UNL     1       1.375   8.116  19.557  0.00  0.00    +0.000 A 
ATOM     12  C   UNL     1       1.655   8.867  18.415  0.00  0.00    +0.000 A 
ATOM     13  C   UNL     1       2.755   8.546  17.612  0.00  0.00    +0.000 A 
ENDBRANCH   5   8
ENDBRANCH   3   4
ENDBRANCH   2   3
BRANCH   2  14
ATOM     14  O   UNL     1       6.424   4.087  16.832  0.00  0.00    +0.000 OA
BRANCH  14  15
ATOM     15  C   UNL     1       5.146   3.642  16.408  0.00  0.00    +0.000 C 
BRANCH  15  16
ATOM     16  N   UNL     1       4.294   3.392  17.547  0.00  0.00    +0.000 N 
ATOM     17  C   UNL     1       2.943   3.243  17.392  0.00  0.00    +0.000 C 
ATOM     18  O   UNL     1       2.291   3.210  16.367  0.00  0.00    +0.000 OA
ATOM     19  C   UNL     1       2.370   3.196  18.733  0.00  0.00    +0.000 A 
ATOM     20  C   UNL     1       1.058   3.056  19.136  0.00  0.00    +0.000 A 
ATOM     21  C   UNL     1       0.807   3.111  20.509  0.00  0.00    +0.000 A 
ATOM     22  C   UNL     1       1.857   3.305  21.431  0.00  0.00    +0.000 A 
ATOM     23  C   UNL     1       3.180   3.439  20.995  0.00  0.00    +0.000 A 
ATOM     24  C   UNL     1       3.402   3.380  19.634  0.00  0.00    +0.000 A 
ATOM     25  C   UNL     1       4.635   3.535  18.865  0.00  0.00    +0.000 C 
ATOM     26  O   UNL     1       5.708   3.784  19.383  0.00  0.00    +0.000 OA
ENDBRANCH  15  16
ENDBRANCH  14  15
ENDBRANCH   2  14
TORSDOF 6
ENDMDL
