MODEL 1
REMARK VINA RESULT:      -8.0      0.000      0.000
REMARK  Name = 
REMARK  6 active torsions:
REMARK  status: ('A' for Active; 'I' for Inactive)
REMARK    1  A    between atoms: C_1  and  N_2
REMARK    2  A    between atoms: C_4  and  C_5
REMARK    3  A    between atoms: C_7  and  C_8
REMARK    4  A    between atoms: N_11  and  C_12
REMARK    5  A    between atoms: N_14  and  S_15
REMARK    6  A    between atoms: S_15  and  C_18
REMARK                            x       y       z     vdW  Elec       q    Type
REMARK                         _______ _______ _______ _____ _____    ______ ____
ROOT
ATOM      1  C   UNL     1       2.970   7.392  18.231  0.00  0.00    +0.000 A 
ATOM      2  C   UNL     1       4.037   7.433  17.308  0.00  0.00    +0.000 A 
ATOM      3  C   UNL     1       4.485   6.131  17.202  0.00  0.00    +0.000 A 
ATOM      4  N   UNL     1       3.771   5.423  18.153  0.00  0.00    +0.000 N 
ATOM      5  N   UNL     1       2.791   6.171  18.740  0.00  0.00    +0.000 NA
ENDROOT
BRANCH   1   9
ATOM      6  C   UNL     1      -0.115  10.638  20.443  0.00  0.00    +0.000 C 
ATOM      7  N   UNL     1       0.784   9.968  19.534  0.00  0.00    +0.000 N 
ATOM      8  C   UNL     1       1.376   8.750  19.712  0.00  0.00    +0.000 A 
ATOM      9  C   UNL     1       2.127   8.528  18.580  0.00  0.00    +0.000 A 
ATOM     10  C   UNL     1       1.928   9.675  17.787  0.00  0.00    +0.000 A 
ATOM     11  N   UNL     1       1.102  10.556  18.366  0.00  0.00    +0.000 NA
ENDBRANCH   1   9
BRANCH   3  12
ATOM     12  C   UNL     1       5.520   5.658  16.245  0.00  0.00    +0.000 A 
ATOM     13  C   UNL     1       6.928   5.723  16.311  0.00  0.00    +0.000 A 
ATOM     14  N   UNL     1       7.514   5.170  15.246  0.00  0.00    +0.000 NA
ATOM     15  N   UNL     1       6.481   4.774  14.486  0.00  0.00    +0.000 N 
ATOM     16  C   UNL     1       6.730   4.174  13.198  0.00  0.00    +0.000 C 
ATOM     17  C   UNL     1       5.262   5.007  15.058  0.00  0.00    +0.000 A 
ENDBRANCH   3  12
BRANCH   4  18
ATOM     18  S   UNL     1       4.088   3.781  18.552  0.00  0.00    +0.000 S 
ATOM     19  O   UNL     1       3.745   3.022  17.363  0.00  0.00    +0.000 OA
ATOM     20  O   UNL     1       5.412   3.741  19.146  0.00  0.00    +0.000 OA
BRANCH  18  21
ATOM     21  C   UNL     1       2.977   3.231  19.812  0.00  0.00    +0.000 A 
ATOM     22  C   UNL     1       3.178   2.885  21.134  0.00  0.00    +0.000 A 
ATOM     23  C   UNL     1       1.967   2.526  21.790  0.00  0.00    +0.000 A 
ATOM     24  C   UNL     1       0.880   2.615  20.948  0.00  0.00    +0.000 A 
ATOM     25  S   UNL     1       1.325   3.129  19.377  0.00  0.00    +0.000 S 
ENDBRANCH  18  21
ENDBRANCH   4  18
TORSDOF 4
ENDMDL
MODEL 2
REMARK VINA RESULT:      -7.9      0.930      1.321
REMARK  Name = 
REMARK  6 active torsions:
REMARK  status: ('A' for Active; 'I' for Inactive)
REMARK    1  A    between atoms: C_1  and  N_2
REMARK    2  A    between atoms: C_4  and  C_5
REMARK    3  A    between atoms: C_7  and  C_8
REMARK    4  A    between atoms: N_11  and  C_12
REMARK    5  A    between atoms: N_14  and  S_15
REMARK    6  A    between atoms: S_15  and  C_18
REMARK                            x       y       z     vdW  Elec       q    Type
REMARK                         _______ _______ _______ _____ _____    ______ ____
ROOT
ATOM      1  C   UNL     1       2.746   7.600  18.132  0.00  0.00    +0.000 A 
ATOM      2  C   UNL     1       3.960   7.608  17.413  0.00  0.00    +0.000 A 
ATOM      3  C   UNL     1       4.231   6.282  17.132  0.00  0.00    +0.000 A 
ATOM      4  N   UNL     1       3.260   5.563  17.806  0.00  0.00    +0.000 N 
ATOM      5  N   UNL     1       2.304   6.362  18.365  0.00  0.00    +0.000 NA
ENDROOT
BRANCH   1   9
ATOM      6  C   UNL     1       0.730  12.151  18.552  0.00  0.00    +0.000 C 
ATOM      7  N   UNL     1       1.121  10.777  18.754  0.00  0.00    +0.000 N 
ATOM      8  C   UNL     1       1.924  10.023  17.946  0.00  0.00    +0.000 A 
ATOM      9  C   UNL     1       2.022   8.792  18.555  0.00  0.00    +0.000 A 
ATOM     10  C   UNL     1       1.235   8.905  19.718  0.00  0.00    +0.000 A 
ATOM     11  N   UNL     1       0.687  10.120  19.845  0.00  0.00    +0.000 NA
ENDBRANCH   1   9
BRANCH   3  12
ATOM     12  C   UNL     1       5.347   5.801  16.276  0.00  0.00    +0.000 A 
ATOM     13  C   UNL     1       6.743   5.840  16.482  0.00  0.00    +0.000 A 
ATOM     14  N   UNL     1       7.422   5.289  15.474  0.00  0.00    +0.000 NA
ATOM     15  N   UNL     1       6.464   4.919  14.611  0.00  0.00    +0.000 N 
ATOM     16  C   UNL     1       6.829   4.327  13.346  0.00  0.00    +0.000 C 
ATOM     17  C   UNL     1       5.198   5.167  15.062  0.00  0.00    +0.000 A 
ENDBRANCH   3  12
BRANCH   4  18
ATOM     18  S   UNL     1       3.263   3.848  17.929  0.00  0.00    +0.000 S 
ATOM     19  O   UNL     1       2.361   3.386  16.890  0.00  0.00    +0.000 OA
ATOM     20  O   UNL     1       4.653   3.433  17.996  0.00  0.00    +0.000 OA
BRANCH  18  21
ATOM     21  C   UNL     1       2.534   3.342  19.458  0.00  0.00    +0.000 A 
ATOM     22  C   UNL     1       1.240   3.416  19.935  0.00  0.00    +0.000 A 
ATOM     23  C   UNL     1       1.107   2.845  21.232  0.00  0.00    +0.000 A 
ATOM     24  C   UNL     1       2.303   2.349  21.701  0.00  0.00    +0.000 A 
ATOM     25  S   UNL     1       3.576   2.572  20.578  0.00  0.00    +0.000 S 
ENDBRANCH  18  21
ENDBRANCH   4  18
TORSDOF 4
ENDMDL
MODEL 3
REMARK VINA RESULT:      -7.1      1.888      2.431
REMARK  Name = 
REMARK  6 active torsions:
REMARK  status: ('A' for Active; 'I' for Inactive)
REMARK    1  A    between atoms: C_1  and  N_2
REMARK    2  A    between atoms: C_4  and  C_5
REMARK    3  A    between atoms: C_7  and  C_8
REMARK    4  A    between atoms: N_11  and  C_12
REMARK    5  A    between atoms: N_14  and  S_15
REMARK    6  A    between atoms: S_15  and  C_18
REMARK                            x       y       z     vdW  Elec       q    Type
REMARK                         _______ _______ _______ _____ _____    ______ ____
ROOT
ATOM      1  C   UNL     1       1.969   8.554  18.414  0.00  0.00    +0.000 A 
ATOM      2  C   UNL     1       3.086   8.453  17.558  0.00  0.00    +0.000 A 
ATOM      3  C   UNL     1       3.678   7.243  17.864  0.00  0.00    +0.000 A 
ATOM      4  N   UNL     1       2.980   6.764  18.958  0.00  0.00    +0.000 N 
ATOM      5  N   UNL     1       1.886   7.525  19.260  0.00  0.00    +0.000 NA
ENDROOT
BRANCH   1   9
ATOM      6  C   UNL     1      -2.095  11.384  17.756  0.00  0.00    +0.000 C 
ATOM      7  N   UNL     1      -0.786  10.884  18.105  0.00  0.00    +0.000 N 
ATOM      8  C   UNL     1      -0.304   9.625  17.892  0.00  0.00    +0.000 A 
ATOM      9  C   UNL     1       0.986   9.629  18.375  0.00  0.00    +0.000 A 
ATOM     10  C   UNL     1       1.179  10.935  18.866  0.00  0.00    +0.000 A 
ATOM     11  N   UNL     1       0.098  11.707  18.697  0.00  0.00    +0.000 NA
ENDBRANCH   1   9
BRANCH   3  12
ATOM     12  C   UNL     1       4.822   6.641  17.130  0.00  0.00    +0.000 A 
ATOM     13  C   UNL     1       6.193   6.977  17.134  0.00  0.00    +0.000 A 
ATOM     14  N   UNL     1       6.914   6.182  16.339  0.00  0.00    +0.000 NA
ATOM     15  N   UNL     1       6.003   5.354  15.808  0.00  0.00    +0.000 N 
ATOM     16  C   UNL     1       6.411   4.372  14.833  0.00  0.00    +0.000 C 
ATOM     17  C   UNL     1       4.737   5.560  16.280  0.00  0.00    +0.000 A 
ENDBRANCH   3  12
BRANCH   4  18
ATOM     18  S   UNL     1       3.443   5.364  19.843  0.00  0.00    +0.000 S 
ATOM     19  O   UNL     1       4.889   5.432  19.941  0.00  0.00    +0.000 OA
ATOM     20  O   UNL     1       2.584   5.302  21.012  0.00  0.00    +0.000 OA
BRANCH  18  21
ATOM     21  C   UNL     1       3.092   3.905  18.909  0.00  0.00    +0.000 A 
ATOM     22  C   UNL     1       2.154   3.637  17.931  0.00  0.00    +0.000 A 
ATOM     23  C   UNL     1       2.260   2.309  17.428  0.00  0.00    +0.000 A 
ATOM     24  C   UNL     1       3.280   1.610  18.035  0.00  0.00    +0.000 A 
ATOM     25  S   UNL     1       4.101   2.553  19.202  0.00  0.00    +0.000 S 
ENDBRANCH  18  21
ENDBRANCH   4  18
TORSDOF 4
ENDMDL
MODEL 4
REMARK VINA RESULT:      -6.7      3.791      5.977
REMARK  Name = 
REMARK  6 active torsions:
REMARK  status: ('A' for Active; 'I' for Inactive)
REMARK    1  A    between atoms: C_1  and  N_2
REMARK    2  A    between atoms: C_4  and  C_5
REMARK    3  A    between atoms: C_7  and  C_8
REMARK    4  A    between atoms: N_11  and  C_12
REMARK    5  A    between atoms: N_14  and  S_15
REMARK    6  A    between atoms: S_15  and  C_18
REMARK                            x       y       z     vdW  Elec       q    Type
REMARK                         _______ _______ _______ _____ _____    ______ ____
ROOT
ATOM      1  C   UNL     1       5.609   4.452  14.984  0.00  0.00    +0.000 A 
ATOM      2  C   UNL     1       6.463   5.524  15.322  0.00  0.00    +0.000 A 
ATOM      3  C   UNL     1       6.388   5.637  16.697  0.00  0.00    +0.000 A 
ATOM      4  N   UNL     1       5.407   4.740  17.082  0.00  0.00    +0.000 N 
ATOM      5  N   UNL     1       4.973   3.959  16.049  0.00  0.00    +0.000 NA
ENDROOT
BRANCH   1   9
ATOM      6  C   UNL     1       3.877   2.821  10.592  0.00  0.00    +0.000 C 
ATOM      7  N   UNL     1       4.712   3.196  11.708  0.00  0.00    +0.000 N 
ATOM      8  C   UNL     1       4.305   3.740  12.893  0.00  0.00    +0.000 A 
ATOM      9  C   UNL     1       5.448   3.908  13.642  0.00  0.00    +0.000 A 
ATOM     10  C   UNL     1       6.489   3.444  12.815  0.00  0.00    +0.000 A 
ATOM     11  N   UNL     1       6.041   3.003  11.632  0.00  0.00    +0.000 NA
ENDBRANCH   1   9
BRANCH   3  12
ATOM     12  C   UNL     1       7.218   6.550  17.526  0.00  0.00    +0.000 A 
ATOM     13  C   UNL     1       7.951   6.305  18.707  0.00  0.00    +0.000 A 
ATOM     14  N   UNL     1       8.583   7.395  19.149  0.00  0.00    +0.000 NA
ATOM     15  N   UNL     1       8.235   8.343  18.266  0.00  0.00    +0.000 N 
ATOM     16  C   UNL     1       8.691   9.699  18.455  0.00  0.00    +0.000 C 
ATOM     17  C   UNL     1       7.450   7.880  17.248  0.00  0.00    +0.000 A 
ENDBRANCH   3  12
BRANCH   4  18
ATOM     18  S   UNL     1       4.801   4.625  18.687  0.00  0.00    +0.000 S 
ATOM     19  O   UNL     1       5.825   3.922  19.436  0.00  0.00    +0.000 OA
ATOM     20  O   UNL     1       4.336   5.950  19.056  0.00  0.00    +0.000 OA
BRANCH  18  21
ATOM     21  C   UNL     1       3.372   3.584  18.729  0.00  0.00    +0.000 A 
ATOM     22  C   UNL     1       3.212   2.247  19.036  0.00  0.00    +0.000 A 
ATOM     23  C   UNL     1       1.851   1.835  18.967  0.00  0.00    +0.000 A 
ATOM     24  C   UNL     1       1.017   2.873  18.616  0.00  0.00    +0.000 A 
ATOM     25  S   UNL     1       1.875   4.334  18.373  0.00  0.00    +0.000 S 
ENDBRANCH  18  21
ENDBRANCH   4  18
TORSDOF 4
ENDMDL
MODEL 5
REMARK VINA RESULT:      -6.6      2.655      4.826
REMARK  Name = 
REMARK  6 active torsions:
REMARK  status: ('A' for Active; 'I' for Inactive)
REMARK    1  A    between atoms: C_1  and  N_2
REMARK    2  A    between atoms: C_4  and  C_5
REMARK    3  A    between atoms: C_7  and  C_8
REMARK    4  A    between atoms: N_11  and  C_12
REMARK    5  A    between atoms: N_14  and  S_15
REMARK    6  A    between atoms: S_15  and  C_18
REMARK                            x       y       z     vdW  Elec       q    Type
REMARK                         _______ _______ _______ _____ _____    ______ ____
ROOT
ATOM      1  C   UNL     1       2.137   8.759  18.100  0.00  0.00    +0.000 A 
ATOM      2  C   UNL     1       1.607   7.579  18.663  0.00  0.00    +0.000 A 
ATOM      3  C   UNL     1       2.514   6.583  18.356  0.00  0.00    +0.000 A 
ATOM      4  N   UNL     1       3.443   7.183  17.524  0.00  0.00    +0.000 N 
ATOM      5  N   UNL     1       3.261   8.532  17.418  0.00  0.00    +0.000 NA
ENDROOT
BRANCH   1   9
ATOM      6  C   UNL     1      -0.866  12.685  18.823  0.00  0.00    +0.000 C 
ATOM      7  N   UNL     1       0.266  11.823  18.582  0.00  0.00    +0.000 N 
ATOM      8  C   UNL     1       0.263  10.458  18.528  0.00  0.00    +0.000 A 
ATOM      9  C   UNL     1       1.562  10.089  18.260  0.00  0.00    +0.000 A 
ATOM     10  C   UNL     1       2.270  11.304  18.181  0.00  0.00    +0.000 A 
ATOM     11  N   UNL     1       1.478  12.367  18.373  0.00  0.00    +0.000 NA
ENDBRANCH   1   9
BRANCH   3  12
ATOM     12  C   UNL     1       2.445   5.182  18.850  0.00  0.00    +0.000 A 
ATOM     13  C   UNL     1       1.859   4.035  18.275  0.00  0.00    +0.000 A 
ATOM     14  N   UNL     1       2.021   2.947  19.031  0.00  0.00    +0.000 NA
ATOM     15  N   UNL     1       2.689   3.402  20.102  0.00  0.00    +0.000 N 
ATOM     16  C   UNL     1       2.999   2.502  21.187  0.00  0.00    +0.000 C 
ATOM     17  C   UNL     1       3.005   4.729  20.024  0.00  0.00    +0.000 A 
ENDBRANCH   3  12
BRANCH   4  18
ATOM     18  S   UNL     1       4.687   6.319  16.711  0.00  0.00    +0.000 S 
ATOM     19  O   UNL     1       4.263   4.931  16.721  0.00  0.00    +0.000 OA
ATOM     20  O   UNL     1       4.966   7.040  15.482  0.00  0.00    +0.000 OA
BRANCH  18  21
ATOM     21  C   UNL     1       6.184   6.371  17.651  0.00  0.00    +0.000 A 
ATOM     22  C   UNL     1       7.253   7.246  17.638  0.00  0.00    +0.000 A 
ATOM     23  C   UNL     1       8.240   6.909  18.608  0.00  0.00    +0.000 A 
ATOM     24  C   UNL     1       7.888   5.792  19.333  0.00  0.00    +0.000 A 
ATOM     25  S   UNL     1       6.376   5.158  18.843  0.00  0.00    +0.000 S 
ENDBRANCH  18  21
ENDBRANCH   4  18
TORSDOF 4
ENDMDL
MODEL 6
REMARK VINA RESULT:      -6.5      2.770      4.805
REMARK  Name = 
REMARK  6 active torsions:
REMARK  status: ('A' for Active; 'I' for Inactive)
REMARK    1  A    between atoms: C_1  and  N_2
REMARK    2  A    between atoms: C_4  and  C_5
REMARK    3  A    between atoms: C_7  and  C_8
REMARK    4  A    between atoms: N_11  and  C_12
REMARK    5  A    between atoms: N_14  and  S_15
REMARK    6  A    between atoms: S_15  and  C_18
REMARK                            x       y       z     vdW  Elec       q    Type
REMARK                         _______ _______ _______ _____ _____    ______ ____
ROOT
ATOM      1  C   UNL     1       2.143   8.820  18.130  0.00  0.00    +0.000 A 
ATOM      2  C   UNL     1       1.672   7.632  18.729  0.00  0.00    +0.000 A 
ATOM      3  C   UNL     1       2.595   6.659  18.397  0.00  0.00    +0.000 A 
ATOM      4  N   UNL     1       3.471   7.275  17.521  0.00  0.00    +0.000 N 
ATOM      5  N   UNL     1       3.244   8.617  17.404  0.00  0.00    +0.000 NA
ENDROOT
BRANCH   1   9
ATOM      6  C   UNL     1       1.207  13.708  18.563  0.00  0.00    +0.000 C 
ATOM      7  N   UNL     1       1.100  12.270  18.480  0.00  0.00    +0.000 N 
ATOM      8  C   UNL     1       2.118  11.380  18.287  0.00  0.00    +0.000 A 
ATOM      9  C   UNL     1       1.534  10.133  18.296  0.00  0.00    +0.000 A 
ATOM     10  C   UNL     1       0.161  10.383  18.491  0.00  0.00    +0.000 A 
ATOM     11  N   UNL     1      -0.107  11.689  18.609  0.00  0.00    +0.000 NA
ENDBRANCH   1   9
BRANCH   3  12
ATOM     12  C   UNL     1       2.590   5.265  18.912  0.00  0.00    +0.000 A 
ATOM     13  C   UNL     1       3.331   4.669  19.954  0.00  0.00    +0.000 A 
ATOM     14  N   UNL     1       3.030   3.379  20.121  0.00  0.00    +0.000 NA
ATOM     15  N   UNL     1       2.113   3.142  19.170  0.00  0.00    +0.000 N 
ATOM     16  C   UNL     1       1.585   1.810  19.001  0.00  0.00    +0.000 C 
ATOM     17  C   UNL     1       1.783   4.251  18.443  0.00  0.00    +0.000 A 
ENDBRANCH   3  12
BRANCH   4  18
ATOM     18  S   UNL     1       4.707   6.437  16.668  0.00  0.00    +0.000 S 
ATOM     19  O   UNL     1       4.301   5.044  16.671  0.00  0.00    +0.000 OA
ATOM     20  O   UNL     1       4.948   7.177  15.442  0.00  0.00    +0.000 OA
BRANCH  18  21
ATOM     21  C   UNL     1       6.225   6.498  17.573  0.00  0.00    +0.000 A 
ATOM     22  C   UNL     1       7.231   7.443  17.629  0.00  0.00    +0.000 A 
ATOM     23  C   UNL     1       8.267   7.079  18.534  0.00  0.00    +0.000 A 
ATOM     24  C   UNL     1       8.015   5.870  19.144  0.00  0.00    +0.000 A 
ATOM     25  S   UNL     1       6.536   5.184  18.625  0.00  0.00    +0.000 S 
ENDBRANCH  18  21
ENDBRANCH   4  18
TORSDOF 4
ENDMDL
MODEL 7
REMARK VINA RESULT:      -6.5      1.535      2.138
REMARK  Name = 
REMARK  6 active torsions:
REMARK  status: ('A' for Active; 'I' for Inactive)
REMARK    1  A    between atoms: C_1  and  N_2
REMARK    2  A    between atoms: C_4  and  C_5
REMARK    3  A    between atoms: C_7  and  C_8
REMARK    4  A    between atoms: N_11  and  C_12
REMARK    5  A    between atoms: N_14  and  S_15
REMARK    6  A    between atoms: S_15  and  C_18
REMARK                            x       y       z     vdW  Elec       q    Type
REMARK                         _______ _______ _______ _____ _____    ______ ____
ROOT
ATOM      1  C   UNL     1       2.101   8.246  18.101  0.00  0.00    +0.000 A 
ATOM      2  C   UNL     1       3.494   8.080  17.945  0.00  0.00    +0.000 A 
ATOM      3  C   UNL     1       3.677   6.739  17.669  0.00  0.00    +0.000 A 
ATOM      4  N   UNL     1       2.426   6.165  17.812  0.00  0.00    +0.000 N 
ATOM      5  N   UNL     1       1.441   7.090  18.008  0.00  0.00    +0.000 NA
ENDROOT
BRANCH   1   9
ATOM      6  C   UNL     1      -1.157  11.922  19.012  0.00  0.00    +0.000 C 
ATOM      7  N   UNL     1       0.026  11.151  18.711  0.00  0.00    +0.000 N 
ATOM      8  C   UNL     1       0.123   9.791  18.632  0.00  0.00    +0.000 A 
ATOM      9  C   UNL     1       1.435   9.526  18.307  0.00  0.00    +0.000 A 
ATOM     10  C   UNL     1       2.045  10.792  18.223  0.00  0.00    +0.000 A 
ATOM     11  N   UNL     1       1.185  11.789  18.465  0.00  0.00    +0.000 NA
ENDBRANCH   1   9
BRANCH   3  12
ATOM     12  C   UNL     1       4.973   6.111  17.301  0.00  0.00    +0.000 A 
ATOM     13  C   UNL     1       5.571   5.913  16.037  0.00  0.00    +0.000 A 
ATOM     14  N   UNL     1       6.761   5.315  16.125  0.00  0.00    +0.000 NA
ATOM     15  N   UNL     1       6.916   5.107  17.441  0.00  0.00    +0.000 N 
ATOM     16  C   UNL     1       8.085   4.413  17.924  0.00  0.00    +0.000 C 
ATOM     17  C   UNL     1       5.890   5.603  18.195  0.00  0.00    +0.000 A 
ENDBRANCH   3  12
BRANCH   4  18
ATOM     18  S   UNL     1       2.146   4.469  17.754  0.00  0.00    +0.000 S 
ATOM     19  O   UNL     1       0.816   4.317  17.195  0.00  0.00    +0.000 OA
ATOM     20  O   UNL     1       3.321   3.870  17.146  0.00  0.00    +0.000 OA
BRANCH  18  21
ATOM     21  C   UNL     1       2.059   3.806  19.391  0.00  0.00    +0.000 A 
ATOM     22  C   UNL     1       1.041   3.777  20.324  0.00  0.00    +0.000 A 
ATOM     23  C   UNL     1       1.417   3.098  21.516  0.00  0.00    +0.000 A 
ATOM     24  C   UNL     1       2.710   2.624  21.452  0.00  0.00    +0.000 A 
ATOM     25  S   UNL     1       3.458   3.000  19.960  0.00  0.00    +0.000 S 
ENDBRANCH  18  21
ENDBRANCH   4  18
TORSDOF 4
ENDMDL
MODEL 8
REMARK VINA RESULT:      -6.5      1.781      2.105
REMARK  Name = 
REMARK  6 active torsions:
REMARK  status: ('A' for Active; 'I' for Inactive)
REMARK    1  A    between atoms: C_1  and  N_2
REMARK    2  A    between atoms: C_4  and  C_5
REMARK    3  A    between atoms: C_7  and  C_8
REMARK    4  A    between atoms: N_11  and  C_12
REMARK    5  A    between atoms: N_14  and  S_15
REMARK    6  A    between atoms: S_15  and  C_18
REMARK                            x       y       z     vdW  Elec       q    Type
REMARK                         _______ _______ _______ _____ _____    ______ ____
ROOT
ATOM      1  C   UNL     1       2.048   8.269  18.651  0.00  0.00    +0.000 A 
ATOM      2  C   UNL     1       3.121   8.266  17.735  0.00  0.00    +0.000 A 
ATOM      3  C   UNL     1       3.798   7.084  17.963  0.00  0.00    +0.000 A 
ATOM      4  N   UNL     1       3.189   6.525  19.072  0.00  0.00    +0.000 N 
ATOM      5  N   UNL     1       2.071   7.208  19.460  0.00  0.00    +0.000 NA
ENDROOT
BRANCH   1   9
ATOM      6  C   UNL     1      -1.102  11.916  19.970  0.00  0.00    +0.000 C 
ATOM      7  N   UNL     1      -0.381  10.887  19.259  0.00  0.00    +0.000 N 
ATOM      8  C   UNL     1       0.658  10.137  19.731  0.00  0.00    +0.000 A 
ATOM      9  C   UNL     1       1.003   9.284  18.706  0.00  0.00    +0.000 A 
ATOM     10  C   UNL     1       0.119   9.609  17.659  0.00  0.00    +0.000 A 
ATOM     11  N   UNL     1      -0.733  10.585  17.996  0.00  0.00    +0.000 NA
ENDBRANCH   1   9
BRANCH   3  12
ATOM     12  C   UNL     1       4.933   6.578  17.147  0.00  0.00    +0.000 A 
ATOM     13  C   UNL     1       6.291   6.963  17.127  0.00  0.00    +0.000 A 
ATOM     14  N   UNL     1       7.008   6.254  16.252  0.00  0.00    +0.000 NA
ATOM     15  N   UNL     1       6.106   5.432  15.695  0.00  0.00    +0.000 N 
ATOM     16  C   UNL     1       6.511   4.536  14.638  0.00  0.00    +0.000 C 
ATOM     17  C   UNL     1       4.853   5.557  16.225  0.00  0.00    +0.000 A 
ENDBRANCH   3  12
BRANCH   4  18
ATOM     18  S   UNL     1       3.780   5.125  19.877  0.00  0.00    +0.000 S 
ATOM     19  O   UNL     1       5.224   5.263  19.880  0.00  0.00    +0.000 OA
ATOM     20  O   UNL     1       3.007   4.984  21.098  0.00  0.00    +0.000 OA
BRANCH  18  21
ATOM     21  C   UNL     1       3.437   3.678  18.920  0.00  0.00    +0.000 A 
ATOM     22  C   UNL     1       4.110   2.479  18.785  0.00  0.00    +0.000 A 
ATOM     23  C   UNL     1       3.436   1.576  17.915  0.00  0.00    +0.000 A 
ATOM     24  C   UNL     1       2.268   2.113  17.419  0.00  0.00    +0.000 A 
ATOM     25  S   UNL     1       1.991   3.697  18.005  0.00  0.00    +0.000 S 
ENDBRANCH  18  21
ENDBRANCH   4  18
TORSDOF 4
ENDMDL
MODEL 9
REMARK VINA RESULT:      -6.4      2.776      4.749
REMARK  Name = 
REMARK  6 active torsions:
REMARK  status: ('A' for Active; 'I' for Inactive)
REMARK    1  A    between atoms: C_1  and  N_2
REMARK    2  A    between atoms: C_4  and  C_5
REMARK    3  A    between atoms: C_7  and  C_8
REMARK    4  A    between atoms: N_11  and  C_12
REMARK    5  A    between atoms: N_14  and  S_15
REMARK    6  A    between atoms: S_15  and  C_18
REMARK                            x       y       z     vdW  Elec       q    Type
REMARK                         _______ _______ _______ _____ _____    ______ ____
ROOT
ATOM      1  C   UNL     1       2.104   8.779  18.142  0.00  0.00    +0.000 A 
ATOM      2  C   UNL     1       1.617   7.602  18.749  0.00  0.00    +0.000 A 
ATOM      3  C   UNL     1       2.543   6.621  18.450  0.00  0.00    +0.000 A 
ATOM      4  N   UNL     1       3.438   7.221  17.582  0.00  0.00    +0.000 N 
ATOM      5  N   UNL     1       3.219   8.562  17.442  0.00  0.00    +0.000 NA
ENDROOT
BRANCH   1   9
ATOM      6  C   UNL     1      -0.992  12.645  18.797  0.00  0.00    +0.000 C 
ATOM      7  N   UNL     1       0.160  11.805  18.569  0.00  0.00    +0.000 N 
ATOM      8  C   UNL     1       0.190  10.440  18.543  0.00  0.00    +0.000 A 
ATOM      9  C   UNL     1       1.497  10.097  18.277  0.00  0.00    +0.000 A 
ATOM     10  C   UNL     1       2.174  11.327  18.170  0.00  0.00    +0.000 A 
ATOM     11  N   UNL     1       1.358  12.374  18.343  0.00  0.00    +0.000 NA
ENDBRANCH   1   9
BRANCH   3  12
ATOM     12  C   UNL     1       2.522   5.234  18.984  0.00  0.00    +0.000 A 
ATOM     13  C   UNL     1       3.287   4.634  20.007  0.00  0.00    +0.000 A 
ATOM     14  N   UNL     1       2.960   3.355  20.203  0.00  0.00    +0.000 NA
ATOM     15  N   UNL     1       2.003   3.128  19.291  0.00  0.00    +0.000 N 
ATOM     16  C   UNL     1       1.436   1.808  19.161  0.00  0.00    +0.000 C 
ATOM     17  C   UNL     1       1.674   4.235  18.560  0.00  0.00    +0.000 A 
ENDBRANCH   3  12
BRANCH   4  18
ATOM     18  S   UNL     1       4.688   6.367  16.767  0.00  0.00    +0.000 S 
ATOM     19  O   UNL     1       4.217   4.998  16.665  0.00  0.00    +0.000 OA
ATOM     20  O   UNL     1       5.047   7.157  15.602  0.00  0.00    +0.000 OA
BRANCH  18  21
ATOM     21  C   UNL     1       6.142   6.302  17.771  0.00  0.00    +0.000 A 
ATOM     22  C   UNL     1       6.576   5.388  18.711  0.00  0.00    +0.000 A 
ATOM     23  C   UNL     1       7.846   5.732  19.256  0.00  0.00    +0.000 A 
ATOM     24  C   UNL     1       8.341   6.895  18.709  0.00  0.00    +0.000 A 
ATOM     25  S   UNL     1       7.278   7.563  17.546  0.00  0.00    +0.000 S 
ENDBRANCH  18  21
ENDBRANCH   4  18
TORSDOF 4
ENDMDL
