MODEL 1
REMARK VINA RESULT:      -8.0      0.000      0.000
REMARK  Name = 
REMARK  13 active torsions:
REMARK  status: ('A' for Active; 'I' for Inactive)
REMARK    1  A    between atoms: C_1  and  O_2
REMARK    2  A    between atoms: O_2  and  C_3
REMARK    3  A    between atoms: C_8  and  C_9
REMARK    4  A    between atoms: C_9  and  C_10
REMARK    5  A    between atoms: C_9  and  C_11
REMARK    6  A    between atoms: C_11  and  O_13
REMARK    7  A    between atoms: O_13  and  C_14
REMARK    8  A    between atoms: C_14  and  C_15
REMARK    9  A    between atoms: C_15  and  C_16
REMARK   10  A    between atoms: C_20  and  C_21
REMARK   11  A    between atoms: C_22  and  C_23
REMARK   12  A    between atoms: C_24  and  O_25
REMARK   13  A    between atoms: C_26  and  C_27
REMARK                            x       y       z     vdW  Elec       q    Type
REMARK                         _______ _______ _______ _____ _____    ______ ____
ROOT
ATOM      1  O   UNL     1       5.147   5.598  19.730  0.00  0.00    +0.000 OA
ENDROOT
BRANCH   1   2
ATOM      2  C   UNL     1       6.425   5.622  19.262  0.00  0.00    +0.000 C 
ATOM      3  O   UNL     1       7.382   5.138  19.851  0.00  0.00    +0.000 OA
BRANCH   2   4
ATOM      4  C   UNL     1       6.466   6.389  17.939  0.00  0.00    +0.000 C 
ATOM      5  C   UNL     1       7.745   7.220  17.931  0.00  0.00    +0.000 C 
BRANCH   4  11
ATOM      6  C   UNL     1       6.693   3.438  12.059  0.00  0.00    +0.000 A 
ATOM      7  C   UNL     1       7.545   4.541  12.073  0.00  0.00    +0.000 A 
ATOM      8  C   UNL     1       7.655   5.325  13.223  0.00  0.00    +0.000 A 
ATOM      9  C   UNL     1       6.918   5.019  14.371  0.00  0.00    +0.000 A 
ATOM     10  C   UNL     1       7.038   5.810  15.527  0.00  0.00    +0.000 A 
ATOM     11  C   UNL     1       6.331   5.513  16.698  0.00  0.00    +0.000 A 
ATOM     12  C   UNL     1       5.476   4.401  16.691  0.00  0.00    +0.000 A 
ATOM     13  C   UNL     1       5.333   3.612  15.541  0.00  0.00    +0.000 A 
ATOM     14  C   UNL     1       6.051   3.909  14.371  0.00  0.00    +0.000 A 
ATOM     15  C   UNL     1       5.939   3.137  13.198  0.00  0.00    +0.000 A 
BRANCH   6  17
ATOM     16  C   UNL     1       6.306   1.236  11.291  0.00  0.00    +0.000 C 
ATOM     17  O   UNL     1       6.498   2.614  10.983  0.00  0.00    +0.000 OA
ENDBRANCH   6  17
ENDBRANCH   4  11
ENDBRANCH   2   4
ENDBRANCH   1   2
BRANCH   1  18
ATOM     18  C   UNL     1       4.156   4.837  19.019  0.00  0.00    +0.000 C 
BRANCH  18  19
ATOM     19  C   UNL     1       2.699   5.266  19.311  0.00  0.00    +0.000 C 
ATOM     20  C   UNL     1       1.663   4.440  18.531  0.00  0.00    +0.000 C 
ATOM     21  C   UNL     1       2.443   5.091  20.827  0.00  0.00    +0.000 C 
ATOM     22  O   UNL     1       1.474   6.066  21.250  0.00  0.00    +0.000 OA
ATOM     23  C   UNL     1       1.640   7.097  20.353  0.00  0.00    +0.000 A 
ATOM     24  C   UNL     1       1.089   8.363  20.547  0.00  0.00    +0.000 A 
ATOM     25  C   UNL     1       0.293   8.660  21.786  0.00  0.00    +0.000 C 
ATOM     26  C   UNL     1       1.309   9.332  19.547  0.00  0.00    +0.000 A 
ATOM     27  C   UNL     1       0.758  10.729  19.664  0.00  0.00    +0.000 C 
ATOM     28  C   UNL     1       2.059   8.974  18.401  0.00  0.00    +0.000 A 
ATOM     29  C   UNL     1       2.568   7.679  18.204  0.00  0.00    +0.000 A 
ATOM     30  C   UNL     1       3.295   7.371  16.934  0.00  0.00    +0.000 C 
ATOM     31  C   UNL     1       2.366   6.736  19.214  0.00  0.00    +0.000 A 
BRANCH  28  32
ATOM     32  O   UNL     1       2.309   9.882  17.404  0.00  0.00    +0.000 OA
ATOM     33  H   UNL     1       2.101   9.504  16.539  0.00  0.00    +0.000 HD
ENDBRANCH  28  32
ENDBRANCH  18  19
ENDBRANCH   1  18
TORSDOF 7
ENDMDL
MODEL 2
REMARK VINA RESULT:      -8.0      2.396      4.364
REMARK  Name = 
REMARK  13 active torsions:
REMARK  status: ('A' for Active; 'I' for Inactive)
REMARK    1  A    between atoms: C_1  and  O_2
REMARK    2  A    between atoms: O_2  and  C_3
REMARK    3  A    between atoms: C_8  and  C_9
REMARK    4  A    between atoms: C_9  and  C_10
REMARK    5  A    between atoms: C_9  and  C_11
REMARK    6  A    between atoms: C_11  and  O_13
REMARK    7  A    between atoms: O_13  and  C_14
REMARK    8  A    between atoms: C_14  and  C_15
REMARK    9  A    between atoms: C_15  and  C_16
REMARK   10  A    between atoms: C_20  and  C_21
REMARK   11  A    between atoms: C_22  and  C_23
REMARK   12  A    between atoms: C_24  and  O_25
REMARK   13  A    between atoms: C_26  and  C_27
REMARK                            x       y       z     vdW  Elec       q    Type
REMARK                         _______ _______ _______ _____ _____    ______ ____
ROOT
ATOM      1  O   UNL     1       1.642   7.410  20.829  0.00  0.00    +0.000 OA
ENDROOT
BRANCH   1   2
ATOM      2  C   UNL     1       2.341   7.137  19.694  0.00  0.00    +0.000 C 
ATOM      3  O   UNL     1       2.291   7.814  18.676  0.00  0.00    +0.000 OA
BRANCH   2   4
ATOM      4  C   UNL     1       3.132   5.840  19.884  0.00  0.00    +0.000 C 
ATOM      5  C   UNL     1       2.230   4.859  20.626  0.00  0.00    +0.000 C 
BRANCH   4  11
ATOM      6  C   UNL     1       6.460   4.218  14.442  0.00  0.00    +0.000 A 
ATOM      7  C   UNL     1       7.092   5.277  15.089  0.00  0.00    +0.000 A 
ATOM      8  C   UNL     1       6.556   5.794  16.270  0.00  0.00    +0.000 A 
ATOM      9  C   UNL     1       5.385   5.261  16.819  0.00  0.00    +0.000 A 
ATOM     10  C   UNL     1       4.855   5.784  18.011  0.00  0.00    +0.000 A 
ATOM     11  C   UNL     1       3.698   5.254  18.596  0.00  0.00    +0.000 A 
ATOM     12  C   UNL     1       3.061   4.183  17.951  0.00  0.00    +0.000 A 
ATOM     13  C   UNL     1       3.569   3.662  16.752  0.00  0.00    +0.000 A 
ATOM     14  C   UNL     1       4.735   4.191  16.174  0.00  0.00    +0.000 A 
ATOM     15  C   UNL     1       5.278   3.691  14.975  0.00  0.00    +0.000 A 
BRANCH   6  17
ATOM     16  C   UNL     1       5.870   3.343  12.326  0.00  0.00    +0.000 C 
ATOM     17  O   UNL     1       6.889   3.647  13.273  0.00  0.00    +0.000 OA
ENDBRANCH   6  17
ENDBRANCH   4  11
ENDBRANCH   2   4
ENDBRANCH   1   2
BRANCH   1  18
ATOM     18  C   UNL     1       1.609   8.759  21.323  0.00  0.00    +0.000 C 
BRANCH  18  19
ATOM     19  C   UNL     1       0.200   9.252  21.726  0.00  0.00    +0.000 C 
ATOM     20  C   UNL     1      -0.900   8.213  21.452  0.00  0.00    +0.000 C 
ATOM     21  C   UNL     1       0.220   9.575  23.239  0.00  0.00    +0.000 C 
ATOM     22  O   UNL     1      -0.722  10.629  23.502  0.00  0.00    +0.000 OA
ATOM     23  C   UNL     1      -0.779  11.316  22.310  0.00  0.00    +0.000 A 
ATOM     24  C   UNL     1      -1.368  12.574  22.191  0.00  0.00    +0.000 A 
ATOM     25  C   UNL     1      -1.956  13.251  23.397  0.00  0.00    +0.000 C 
ATOM     26  C   UNL     1      -1.386  13.170  20.913  0.00  0.00    +0.000 A 
ATOM     27  C   UNL     1      -1.997  14.527  20.681  0.00  0.00    +0.000 C 
ATOM     28  C   UNL     1      -0.823  12.464  19.823  0.00  0.00    +0.000 A 
ATOM     29  C   UNL     1      -0.274  11.177  19.956  0.00  0.00    +0.000 A 
ATOM     30  C   UNL     1       0.242  10.479  18.738  0.00  0.00    +0.000 C 
ATOM     31  C   UNL     1      -0.238  10.611  21.231  0.00  0.00    +0.000 A 
BRANCH  28  32
ATOM     32  O   UNL     1      -0.808  13.003  18.561  0.00  0.00    +0.000 OA
ATOM     33  H   UNL     1      -1.540  13.623  18.447  0.00  0.00    +0.000 HD
ENDBRANCH  28  32
ENDBRANCH  18  19
ENDBRANCH   1  18
TORSDOF 7
ENDMDL
MODEL 3
REMARK VINA RESULT:      -8.0      2.898      8.757
REMARK  Name = 
REMARK  13 active torsions:
REMARK  status: ('A' for Active; 'I' for Inactive)
REMARK    1  A    between atoms: C_1  and  O_2
REMARK    2  A    between atoms: O_2  and  C_3
REMARK    3  A    between atoms: C_8  and  C_9
REMARK    4  A    between atoms: C_9  and  C_10
REMARK    5  A    between atoms: C_9  and  C_11
REMARK    6  A    between atoms: C_11  and  O_13
REMARK    7  A    between atoms: O_13  and  C_14
REMARK    8  A    between atoms: C_14  and  C_15
REMARK    9  A    between atoms: C_15  and  C_16
REMARK   10  A    between atoms: C_20  and  C_21
REMARK   11  A    between atoms: C_22  and  C_23
REMARK   12  A    between atoms: C_24  and  O_25
REMARK   13  A    between atoms: C_26  and  C_27
REMARK                            x       y       z     vdW  Elec       q    Type
REMARK                         _______ _______ _______ _____ _____    ______ ____
ROOT
ATOM      1  O   UNL     1       2.438   6.327  19.042  0.00  0.00    +0.000 OA
ENDROOT
BRANCH   1   2
ATOM      2  C   UNL     1       1.961   7.338  19.818  0.00  0.00    +0.000 C 
ATOM      3  O   UNL     1       1.502   7.185  20.942  0.00  0.00    +0.000 OA
BRANCH   2   4
ATOM      4  C   UNL     1       2.040   8.655  19.042  0.00  0.00    +0.000 C 
ATOM      5  C   UNL     1       2.640   8.345  17.675  0.00  0.00    +0.000 C 
BRANCH   4  11
ATOM      6  C   UNL     1      -3.729  11.394  17.450  0.00  0.00    +0.000 A 
ATOM      7  C   UNL     1      -3.286  10.578  16.412  0.00  0.00    +0.000 A 
ATOM      8  C   UNL     1      -2.074   9.895  16.528  0.00  0.00    +0.000 A 
ATOM      9  C   UNL     1      -1.291  10.018  17.680  0.00  0.00    +0.000 A 
ATOM     10  C   UNL     1      -0.074   9.323  17.792  0.00  0.00    +0.000 A 
ATOM     11  C   UNL     1       0.719   9.408  18.943  0.00  0.00    +0.000 A 
ATOM     12  C   UNL     1       0.274  10.224  19.993  0.00  0.00    +0.000 A 
ATOM     13  C   UNL     1      -0.930  10.936  19.890  0.00  0.00    +0.000 A 
ATOM     14  C   UNL     1      -1.725  10.841  18.736  0.00  0.00    +0.000 A 
ATOM     15  C   UNL     1      -2.942  11.536  18.598  0.00  0.00    +0.000 A 
BRANCH   6  17
ATOM     16  C   UNL     1      -5.945  11.610  18.245  0.00  0.00    +0.000 C 
ATOM     17  O   UNL     1      -4.891  12.119  17.434  0.00  0.00    +0.000 OA
ENDBRANCH   6  17
ENDBRANCH   4  11
ENDBRANCH   2   4
ENDBRANCH   1   2
BRANCH   1  18
ATOM     18  C   UNL     1       2.877   5.111  19.670  0.00  0.00    +0.000 C 
BRANCH  18  19
ATOM     19  C   UNL     1       3.477   4.074  18.692  0.00  0.00    +0.000 C 
ATOM     20  C   UNL     1       3.820   2.738  19.371  0.00  0.00    +0.000 C 
ATOM     21  C   UNL     1       2.440   3.817  17.573  0.00  0.00    +0.000 C 
ATOM     22  O   UNL     1       3.138   3.479  16.361  0.00  0.00    +0.000 OA
ATOM     23  C   UNL     1       4.355   4.107  16.504  0.00  0.00    +0.000 A 
ATOM     24  C   UNL     1       5.250   4.269  15.447  0.00  0.00    +0.000 A 
ATOM     25  C   UNL     1       4.897   3.770  14.074  0.00  0.00    +0.000 C 
ATOM     26  C   UNL     1       6.476   4.909  15.720  0.00  0.00    +0.000 A 
ATOM     27  C   UNL     1       7.508   5.134  14.646  0.00  0.00    +0.000 C 
ATOM     28  C   UNL     1       6.742   5.340  17.042  0.00  0.00    +0.000 A 
ATOM     29  C   UNL     1       5.844   5.128  18.103  0.00  0.00    +0.000 A 
ATOM     30  C   UNL     1       6.235   5.560  19.481  0.00  0.00    +0.000 C 
ATOM     31  C   UNL     1       4.623   4.517  17.813  0.00  0.00    +0.000 A 
BRANCH  28  32
ATOM     32  O   UNL     1       7.915   5.976  17.358  0.00  0.00    +0.000 OA
ATOM     33  H   UNL     1       7.748   6.893  17.615  0.00  0.00    +0.000 HD
ENDBRANCH  28  32
ENDBRANCH  18  19
ENDBRANCH   1  18
TORSDOF 7
ENDMDL
MODEL 4
REMARK VINA RESULT:      -8.0      4.631      8.207
REMARK  Name = 
REMARK  13 active torsions:
REMARK  status: ('A' for Active; 'I' for Inactive)
REMARK    1  A    between atoms: C_1  and  O_2
REMARK    2  A    between atoms: O_2  and  C_3
REMARK    3  A    between atoms: C_8  and  C_9
REMARK    4  A    between atoms: C_9  and  C_10
REMARK    5  A    between atoms: C_9  and  C_11
REMARK    6  A    between atoms: C_11  and  O_13
REMARK    7  A    between atoms: O_13  and  C_14
REMARK    8  A    between atoms: C_14  and  C_15
REMARK    9  A    between atoms: C_15  and  C_16
REMARK   10  A    between atoms: C_20  and  C_21
REMARK   11  A    between atoms: C_22  and  C_23
REMARK   12  A    between atoms: C_24  and  O_25
REMARK   13  A    between atoms: C_26  and  C_27
REMARK                            x       y       z     vdW  Elec       q    Type
REMARK                         _______ _______ _______ _____ _____    ______ ____
ROOT
ATOM      1  O   UNL     1      -0.424  11.420  19.477  0.00  0.00    +0.000 OA
ENDROOT
BRANCH   1   2
ATOM      2  C   UNL     1      -0.372  10.433  18.540  0.00  0.00    +0.000 C 
ATOM      3  O   UNL     1      -1.336   9.770  18.186  0.00  0.00    +0.000 OA
BRANCH   2   4
ATOM      4  C   UNL     1       1.073  10.261  18.066  0.00  0.00    +0.000 C 
ATOM      5  C   UNL     1       1.846  11.504  18.492  0.00  0.00    +0.000 C 
BRANCH   4  11
ATOM      6  C   UNL     1       4.489   4.700  18.922  0.00  0.00    +0.000 A 
ATOM      7  C   UNL     1       4.769   5.244  17.671  0.00  0.00    +0.000 A 
ATOM      8  C   UNL     1       4.150   6.429  17.269  0.00  0.00    +0.000 A 
ATOM      9  C   UNL     1       3.245   7.085  18.110  0.00  0.00    +0.000 A 
ATOM     10  C   UNL     1       2.630   8.280  17.701  0.00  0.00    +0.000 A 
ATOM     11  C   UNL     1       1.739   8.971  18.531  0.00  0.00    +0.000 A 
ATOM     12  C   UNL     1       1.458   8.430  19.794  0.00  0.00    +0.000 A 
ATOM     13  C   UNL     1       2.051   7.229  20.210  0.00  0.00    +0.000 A 
ATOM     14  C   UNL     1       2.951   6.545  19.377  0.00  0.00    +0.000 A 
ATOM     15  C   UNL     1       3.571   5.340  19.762  0.00  0.00    +0.000 A 
BRANCH   6  17
ATOM     16  C   UNL     1       4.108   2.463  19.586  0.00  0.00    +0.000 C 
ATOM     17  O   UNL     1       5.026   3.537  19.409  0.00  0.00    +0.000 OA
ENDBRANCH   6  17
ENDBRANCH   4  11
ENDBRANCH   2   4
ENDBRANCH   1   2
BRANCH   1  18
ATOM     18  C   UNL     1      -1.424  11.352  20.507  0.00  0.00    +0.000 C 
BRANCH  18  19
ATOM     19  C   UNL     1      -2.458  12.502  20.463  0.00  0.00    +0.000 C 
ATOM     20  C   UNL     1      -1.815  13.879  20.228  0.00  0.00    +0.000 C 
ATOM     21  C   UNL     1      -3.450  12.209  19.313  0.00  0.00    +0.000 C 
ATOM     22  O   UNL     1      -4.731  12.770  19.651  0.00  0.00    +0.000 OA
ATOM     23  C   UNL     1      -4.731  12.768  21.028  0.00  0.00    +0.000 A 
ATOM     24  C   UNL     1      -5.884  12.981  21.783  0.00  0.00    +0.000 A 
ATOM     25  C   UNL     1      -7.205  13.201  21.101  0.00  0.00    +0.000 C 
ATOM     26  C   UNL     1      -5.756  12.979  23.187  0.00  0.00    +0.000 A 
ATOM     27  C   UNL     1      -6.941  13.197  24.090  0.00  0.00    +0.000 C 
ATOM     28  C   UNL     1      -4.475  12.778  23.755  0.00  0.00    +0.000 A 
ATOM     29  C   UNL     1      -3.318  12.610  22.975  0.00  0.00    +0.000 A 
ATOM     30  C   UNL     1      -1.996  12.466  23.660  0.00  0.00    +0.000 C 
ATOM     31  C   UNL     1      -3.463  12.586  21.587  0.00  0.00    +0.000 A 
BRANCH  28  32
ATOM     32  O   UNL     1      -4.298  12.759  25.115  0.00  0.00    +0.000 OA
ATOM     33  H   UNL     1      -4.546  13.609  25.503  0.00  0.00    +0.000 HD
ENDBRANCH  28  32
ENDBRANCH  18  19
ENDBRANCH   1  18
TORSDOF 7
ENDMDL
MODEL 5
REMARK VINA RESULT:      -7.8      4.129      7.616
REMARK  Name = 
REMARK  13 active torsions:
REMARK  status: ('A' for Active; 'I' for Inactive)
REMARK    1  A    between atoms: C_1  and  O_2
REMARK    2  A    between atoms: O_2  and  C_3
REMARK    3  A    between atoms: C_8  and  C_9
REMARK    4  A    between atoms: C_9  and  C_10
REMARK    5  A    between atoms: C_9  and  C_11
REMARK    6  A    between atoms: C_11  and  O_13
REMARK    7  A    between atoms: O_13  and  C_14
REMARK    8  A    between atoms: C_14  and  C_15
REMARK    9  A    between atoms: C_15  and  C_16
REMARK   10  A    between atoms: C_20  and  C_21
REMARK   11  A    between atoms: C_22  and  C_23
REMARK   12  A    between atoms: C_24  and  O_25
REMARK   13  A    between atoms: C_26  and  C_27
REMARK                            x       y       z     vdW  Elec       q    Type
REMARK                         _______ _______ _______ _____ _____    ______ ____
ROOT
ATOM      1  O   UNL     1      -0.982  10.414  21.418  0.00  0.00    +0.000 OA
ENDROOT
BRANCH   1   2
ATOM      2  C   UNL     1      -0.387   9.220  21.686  0.00  0.00    +0.000 C 
ATOM      3  O   UNL     1      -0.958   8.266  22.196  0.00  0.00    +0.000 OA
BRANCH   2   4
ATOM      4  C   UNL     1       1.094   9.295  21.308  0.00  0.00    +0.000 C 
ATOM      5  C   UNL     1       1.893   9.393  22.604  0.00  0.00    +0.000 C 
BRANCH   4  11
ATOM      6  C   UNL     1       2.988   3.668  18.467  0.00  0.00    +0.000 A 
ATOM      7  C   UNL     1       2.590   3.429  19.780  0.00  0.00    +0.000 A 
ATOM      8  C   UNL     1       2.151   4.484  20.581  0.00  0.00    +0.000 A 
ATOM      9  C   UNL     1       2.103   5.790  20.081  0.00  0.00    +0.000 A 
ATOM     10  C   UNL     1       1.655   6.847  20.892  0.00  0.00    +0.000 A 
ATOM     11  C   UNL     1       1.573   8.160  20.411  0.00  0.00    +0.000 A 
ATOM     12  C   UNL     1       1.968   8.405  19.088  0.00  0.00    +0.000 A 
ATOM     13  C   UNL     1       2.433   7.363  18.272  0.00  0.00    +0.000 A 
ATOM     14  C   UNL     1       2.504   6.047  18.756  0.00  0.00    +0.000 A 
ATOM     15  C   UNL     1       2.960   4.974  17.966  0.00  0.00    +0.000 A 
BRANCH   6  17
ATOM     16  C   UNL     1       3.614   1.409  18.156  0.00  0.00    +0.000 C 
ATOM     17  O   UNL     1       3.449   2.711  17.602  0.00  0.00    +0.000 OA
ENDBRANCH   6  17
ENDBRANCH   4  11
ENDBRANCH   2   4
ENDBRANCH   1   2
BRANCH   1  18
ATOM     18  C   UNL     1      -0.211  11.454  20.794  0.00  0.00    +0.000 C 
BRANCH  18  19
ATOM     19  C   UNL     1      -0.829  12.001  19.485  0.00  0.00    +0.000 C 
ATOM     20  C   UNL     1      -0.220  13.345  19.050  0.00  0.00    +0.000 C 
ATOM     21  C   UNL     1      -0.589  10.956  18.369  0.00  0.00    +0.000 C 
ATOM     22  O   UNL     1      -1.664  11.038  17.417  0.00  0.00    +0.000 OA
ATOM     23  C   UNL     1      -2.719  11.515  18.163  0.00  0.00    +0.000 A 
ATOM     24  C   UNL     1      -4.036  11.497  17.704  0.00  0.00    +0.000 A 
ATOM     25  C   UNL     1      -4.360  10.920  16.356  0.00  0.00    +0.000 C 
ATOM     26  C   UNL     1      -5.029  12.035  18.548  0.00  0.00    +0.000 A 
ATOM     27  C   UNL     1      -6.481  12.060  18.146  0.00  0.00    +0.000 C 
ATOM     28  C   UNL     1      -4.644  12.573  19.799  0.00  0.00    +0.000 A 
ATOM     29  C   UNL     1      -3.305  12.622  20.223  0.00  0.00    +0.000 A 
ATOM     30  C   UNL     1      -2.982  13.266  21.534  0.00  0.00    +0.000 C 
ATOM     31  C   UNL     1      -2.335  12.062  19.390  0.00  0.00    +0.000 A 
BRANCH  28  32
ATOM     32  O   UNL     1      -5.573  13.101  20.661  0.00  0.00    +0.000 OA
ATOM     33  H   UNL     1      -5.623  14.061  20.561  0.00  0.00    +0.000 HD
ENDBRANCH  28  32
ENDBRANCH  18  19
ENDBRANCH   1  18
TORSDOF 7
ENDMDL
MODEL 6
REMARK VINA RESULT:      -7.8      4.821      8.552
REMARK  Name = 
REMARK  13 active torsions:
REMARK  status: ('A' for Active; 'I' for Inactive)
REMARK    1  A    between atoms: C_1  and  O_2
REMARK    2  A    between atoms: O_2  and  C_3
REMARK    3  A    between atoms: C_8  and  C_9
REMARK    4  A    between atoms: C_9  and  C_10
REMARK    5  A    between atoms: C_9  and  C_11
REMARK    6  A    between atoms: C_11  and  O_13
REMARK    7  A    between atoms: O_13  and  C_14
REMARK    8  A    between atoms: C_14  and  C_15
REMARK    9  A    between atoms: C_15  and  C_16
REMARK   10  A    between atoms: C_20  and  C_21
REMARK   11  A    between atoms: C_22  and  C_23
REMARK   12  A    between atoms: C_24  and  O_25
REMARK   13  A    between atoms: C_26  and  C_27
REMARK                            x       y       z     vdW  Elec       q    Type
REMARK                         _______ _______ _______ _____ _____    ______ ____
ROOT
ATOM      1  O   UNL     1      -0.519  11.055  21.240  0.00  0.00    +0.000 OA
ENDROOT
BRANCH   1   2
ATOM      2  C   UNL     1       0.758  11.184  20.787  0.00  0.00    +0.000 C 
ATOM      3  O   UNL     1       1.690  11.597  21.464  0.00  0.00    +0.000 OA
BRANCH   2   4
ATOM      4  C   UNL     1       0.814  10.792  19.309  0.00  0.00    +0.000 C 
ATOM      5  C   UNL     1       1.516  11.921  18.562  0.00  0.00    +0.000 C 
BRANCH   4  11
ATOM      6  C   UNL     1       3.140   4.635  19.326  0.00  0.00    +0.000 A 
ATOM      7  C   UNL     1       2.460   4.891  20.514  0.00  0.00    +0.000 A 
ATOM      8  C   UNL     1       1.883   6.143  20.734  0.00  0.00    +0.000 A 
ATOM      9  C   UNL     1       1.978   7.154  19.771  0.00  0.00    +0.000 A 
ATOM     10  C   UNL     1       1.390   8.410  19.998  0.00  0.00    +0.000 A 
ATOM     11  C   UNL     1       1.448   9.432  19.042  0.00  0.00    +0.000 A 
ATOM     12  C   UNL     1       2.127   9.177  17.841  0.00  0.00    +0.000 A 
ATOM     13  C   UNL     1       2.733   7.934  17.608  0.00  0.00    +0.000 A 
ATOM     14  C   UNL     1       2.664   6.909  18.566  0.00  0.00    +0.000 A 
ATOM     15  C   UNL     1       3.255   5.646  18.366  0.00  0.00    +0.000 A 
BRANCH   6  17
ATOM     16  C   UNL     1       4.058   3.258  17.637  0.00  0.00    +0.000 C 
ATOM     17  O   UNL     1       3.755   3.451  19.015  0.00  0.00    +0.000 OA
ENDBRANCH   6  17
ENDBRANCH   4  11
ENDBRANCH   2   4
ENDBRANCH   1   2
BRANCH   1  18
ATOM     18  C   UNL     1      -1.117  12.144  21.963  0.00  0.00    +0.000 C 
BRANCH  18  19
ATOM     19  C   UNL     1      -2.229  12.885  21.184  0.00  0.00    +0.000 C 
ATOM     20  C   UNL     1      -1.858  14.339  20.846  0.00  0.00    +0.000 C 
ATOM     21  C   UNL     1      -2.488  12.114  19.868  0.00  0.00    +0.000 C 
ATOM     22  O   UNL     1      -3.865  12.288  19.490  0.00  0.00    +0.000 OA
ATOM     23  C   UNL     1      -4.503  12.506  20.691  0.00  0.00    +0.000 A 
ATOM     24  C   UNL     1      -5.891  12.461  20.826  0.00  0.00    +0.000 A 
ATOM     25  C   UNL     1      -6.757  12.141  19.642  0.00  0.00    +0.000 C 
ATOM     26  C   UNL     1      -6.431  12.724  22.102  0.00  0.00    +0.000 A 
ATOM     27  C   UNL     1      -7.916  12.698  22.353  0.00  0.00    +0.000 C 
ATOM     28  C   UNL     1      -5.551  13.031  23.167  0.00  0.00    +0.000 A 
ATOM     29  C   UNL     1      -4.158  13.115  22.998  0.00  0.00    +0.000 A 
ATOM     30  C   UNL     1      -3.308  13.508  24.165  0.00  0.00    +0.000 C 
ATOM     31  C   UNL     1      -3.634  12.826  21.737  0.00  0.00    +0.000 A 
BRANCH  28  32
ATOM     32  O   UNL     1      -6.025  13.287  24.428  0.00  0.00    +0.000 OA
ATOM     33  H   UNL     1      -6.654  14.021  24.414  0.00  0.00    +0.000 HD
ENDBRANCH  28  32
ENDBRANCH  18  19
ENDBRANCH   1  18
TORSDOF 7
ENDMDL
MODEL 7
REMARK VINA RESULT:      -7.7      4.417      7.730
REMARK  Name = 
REMARK  13 active torsions:
REMARK  status: ('A' for Active; 'I' for Inactive)
REMARK    1  A    between atoms: C_1  and  O_2
REMARK    2  A    between atoms: O_2  and  C_3
REMARK    3  A    between atoms: C_8  and  C_9
REMARK    4  A    between atoms: C_9  and  C_10
REMARK    5  A    between atoms: C_9  and  C_11
REMARK    6  A    between atoms: C_11  and  O_13
REMARK    7  A    between atoms: O_13  and  C_14
REMARK    8  A    between atoms: C_14  and  C_15
REMARK    9  A    between atoms: C_15  and  C_16
REMARK   10  A    between atoms: C_20  and  C_21
REMARK   11  A    between atoms: C_22  and  C_23
REMARK   12  A    between atoms: C_24  and  O_25
REMARK   13  A    between atoms: C_26  and  C_27
REMARK                            x       y       z     vdW  Elec       q    Type
REMARK                         _______ _______ _______ _____ _____    ______ ____
ROOT
ATOM      1  O   UNL     1      -0.006  10.195  19.556  0.00  0.00    +0.000 OA
ENDROOT
BRANCH   1   2
ATOM      2  C   UNL     1       0.057   9.615  20.786  0.00  0.00    +0.000 C 
ATOM      3  O   UNL     1      -0.866   9.602  21.589  0.00  0.00    +0.000 OA
BRANCH   2   4
ATOM      4  C   UNL     1       1.462   9.051  21.009  0.00  0.00    +0.000 C 
ATOM      5  C   UNL     1       1.663   8.903  22.514  0.00  0.00    +0.000 C 
BRANCH   4  11
ATOM      6  C   UNL     1       2.277   2.908  18.791  0.00  0.00    +0.000 A 
ATOM      7  C   UNL     1       1.716   2.884  20.066  0.00  0.00    +0.000 A 
ATOM      8  C   UNL     1       1.457   4.080  20.738  0.00  0.00    +0.000 A 
ATOM      9  C   UNL     1       1.754   5.313  20.147  0.00  0.00    +0.000 A 
ATOM     10  C   UNL     1       1.486   6.512  20.828  0.00  0.00    +0.000 A 
ATOM     11  C   UNL     1       1.751   7.761  20.251  0.00  0.00    +0.000 A 
ATOM     12  C   UNL     1       2.311   7.790  18.966  0.00  0.00    +0.000 A 
ATOM     13  C   UNL     1       2.600   6.601  18.280  0.00  0.00    +0.000 A 
ATOM     14  C   UNL     1       2.324   5.351  18.860  0.00  0.00    +0.000 A 
ATOM     15  C   UNL     1       2.595   4.136  18.201  0.00  0.00    +0.000 A 
BRANCH   6  17
ATOM     16  C   UNL     1       3.811   1.155  18.389  0.00  0.00    +0.000 C 
ATOM     17  O   UNL     1       2.586   1.797  18.051  0.00  0.00    +0.000 OA
ENDBRANCH   6  17
ENDBRANCH   4  11
ENDBRANCH   2   4
ENDBRANCH   1   2
BRANCH   1  18
ATOM     18  C   UNL     1       0.289  11.596  19.428  0.00  0.00    +0.000 C 
BRANCH  18  19
ATOM     19  C   UNL     1      -0.948  12.479  19.138  0.00  0.00    +0.000 C 
ATOM     20  C   UNL     1      -0.577  13.877  18.616  0.00  0.00    +0.000 C 
ATOM     21  C   UNL     1      -1.812  11.759  18.077  0.00  0.00    +0.000 C 
ATOM     22  O   UNL     1      -3.192  12.109  18.285  0.00  0.00    +0.000 OA
ATOM     23  C   UNL     1      -3.252  12.396  19.631  0.00  0.00    +0.000 A 
ATOM     24  C   UNL     1      -4.457  12.525  20.322  0.00  0.00    +0.000 A 
ATOM     25  C   UNL     1      -5.763  12.328  19.608  0.00  0.00    +0.000 C 
ATOM     26  C   UNL     1      -4.392  12.843  21.694  0.00  0.00    +0.000 A 
ATOM     27  C   UNL     1      -5.635  13.002  22.529  0.00  0.00    +0.000 C 
ATOM     28  C   UNL     1      -3.123  13.026  22.294  0.00  0.00    +0.000 A 
ATOM     29  C   UNL     1      -1.922  12.935  21.569  0.00  0.00    +0.000 A 
ATOM     30  C   UNL     1      -0.629  13.206  22.270  0.00  0.00    +0.000 C 
ATOM     31  C   UNL     1      -1.999  12.593  20.218  0.00  0.00    +0.000 A 
BRANCH  28  32
ATOM     32  O   UNL     1      -3.005  13.328  23.627  0.00  0.00    +0.000 OA
ATOM     33  H   UNL     1      -3.509  14.124  23.841  0.00  0.00    +0.000 HD
ENDBRANCH  28  32
ENDBRANCH  18  19
ENDBRANCH   1  18
TORSDOF 7
ENDMDL
MODEL 8
REMARK VINA RESULT:      -7.6      4.003      7.486
REMARK  Name = 
REMARK  13 active torsions:
REMARK  status: ('A' for Active; 'I' for Inactive)
REMARK    1  A    between atoms: C_1  and  O_2
REMARK    2  A    between atoms: O_2  and  C_3
REMARK    3  A    between atoms: C_8  and  C_9
REMARK    4  A    between atoms: C_9  and  C_10
REMARK    5  A    between atoms: C_9  and  C_11
REMARK    6  A    between atoms: C_11  and  O_13
REMARK    7  A    between atoms: O_13  and  C_14
REMARK    8  A    between atoms: C_14  and  C_15
REMARK    9  A    between atoms: C_15  and  C_16
REMARK   10  A    between atoms: C_20  and  C_21
REMARK   11  A    between atoms: C_22  and  C_23
REMARK   12  A    between atoms: C_24  and  O_25
REMARK   13  A    between atoms: C_26  and  C_27
REMARK                            x       y       z     vdW  Elec       q    Type
REMARK                         _______ _______ _______ _____ _____    ______ ____
ROOT
ATOM      1  O   UNL     1      -1.113   9.992  20.769  0.00  0.00    +0.000 OA
ENDROOT
BRANCH   1   2
ATOM      2  C   UNL     1      -0.395   8.953  21.277  0.00  0.00    +0.000 C 
ATOM      3  O   UNL     1      -0.886   8.005  21.874  0.00  0.00    +0.000 OA
BRANCH   2   4
ATOM      4  C   UNL     1       1.096   9.199  21.033  0.00  0.00    +0.000 C 
ATOM      5  C   UNL     1       1.783   9.228  22.394  0.00  0.00    +0.000 C 
BRANCH   4  11
ATOM      6  C   UNL     1       3.909   4.152  17.880  0.00  0.00    +0.000 A 
ATOM      7  C   UNL     1       3.608   3.788  19.190  0.00  0.00    +0.000 A 
ATOM      8  C   UNL     1       3.007   4.708  20.051  0.00  0.00    +0.000 A 
ATOM      9  C   UNL     1       2.699   6.001  19.616  0.00  0.00    +0.000 A 
ATOM     10  C   UNL     1       2.089   6.919  20.487  0.00  0.00    +0.000 A 
ATOM     11  C   UNL     1       1.747   8.212  20.071  0.00  0.00    +0.000 A 
ATOM     12  C   UNL     1       2.042   8.582  18.751  0.00  0.00    +0.000 A 
ATOM     13  C   UNL     1       2.666   7.681  17.874  0.00  0.00    +0.000 A 
ATOM     14  C   UNL     1       2.999   6.383  18.294  0.00  0.00    +0.000 A 
ATOM     15  C   UNL     1       3.620   5.449  17.442  0.00  0.00    +0.000 A 
BRANCH   6  17
ATOM     16  C   UNL     1       5.519   3.948  16.160  0.00  0.00    +0.000 C 
ATOM     17  O   UNL     1       4.510   3.336  16.959  0.00  0.00    +0.000 OA
ENDBRANCH   6  17
ENDBRANCH   4  11
ENDBRANCH   2   4
ENDBRANCH   1   2
BRANCH   1  18
ATOM     18  C   UNL     1      -0.441  10.982  19.973  0.00  0.00    +0.000 C 
BRANCH  18  19
ATOM     19  C   UNL     1      -1.368  11.747  19.000  0.00  0.00    +0.000 C 
ATOM     20  C   UNL     1      -0.683  12.958  18.344  0.00  0.00    +0.000 C 
ATOM     21  C   UNL     1      -1.816  10.764  17.893  0.00  0.00    +0.000 C 
ATOM     22  O   UNL     1      -3.123  11.147  17.431  0.00  0.00    +0.000 OA
ATOM     23  C   UNL     1      -3.676  11.782  18.521  0.00  0.00    +0.000 A 
ATOM     24  C   UNL     1      -5.035  12.082  18.610  0.00  0.00    +0.000 A 
ATOM     25  C   UNL     1      -5.971  11.692  17.501  0.00  0.00    +0.000 C 
ATOM     26  C   UNL     1      -5.481  12.755  19.766  0.00  0.00    +0.000 A 
ATOM     27  C   UNL     1      -6.930  13.122  19.959  0.00  0.00    +0.000 C 
ATOM     28  C   UNL     1      -4.538  13.100  20.763  0.00  0.00    +0.000 A 
ATOM     29  C   UNL     1      -3.165  12.827  20.633  0.00  0.00    +0.000 A 
ATOM     30  C   UNL     1      -2.230  13.285  21.707  0.00  0.00    +0.000 C 
ATOM     31  C   UNL     1      -2.740  12.137  19.496  0.00  0.00    +0.000 A 
BRANCH  28  32
ATOM     32  O   UNL     1      -4.922  13.748  21.910  0.00  0.00    +0.000 OA
ATOM     33  H   UNL     1      -5.879  13.878  21.923  0.00  0.00    +0.000 HD
ENDBRANCH  28  32
ENDBRANCH  18  19
ENDBRANCH   1  18
TORSDOF 7
ENDMDL
MODEL 9
REMARK VINA RESULT:      -7.6      3.867      7.803
REMARK  Name = 
REMARK  13 active torsions:
REMARK  status: ('A' for Active; 'I' for Inactive)
REMARK    1  A    between atoms: C_1  and  O_2
REMARK    2  A    between atoms: O_2  and  C_3
REMARK    3  A    between atoms: C_8  and  C_9
REMARK    4  A    between atoms: C_9  and  C_10
REMARK    5  A    between atoms: C_9  and  C_11
REMARK    6  A    between atoms: C_11  and  O_13
REMARK    7  A    between atoms: O_13  and  C_14
REMARK    8  A    between atoms: C_14  and  C_15
REMARK    9  A    between atoms: C_15  and  C_16
REMARK   10  A    between atoms: C_20  and  C_21
REMARK   11  A    between atoms: C_22  and  C_23
REMARK   12  A    between atoms: C_24  and  O_25
REMARK   13  A    between atoms: C_26  and  C_27
REMARK                            x       y       z     vdW  Elec       q    Type
REMARK                         _______ _______ _______ _____ _____    ______ ____
ROOT
ATOM      1  O   UNL     1      -0.706  11.824  20.167  0.00  0.00    +0.000 OA
ENDROOT
BRANCH   1   2
ATOM      2  C   UNL     1      -0.673  10.517  19.789  0.00  0.00    +0.000 C 
ATOM      3  O   UNL     1      -1.426  10.020  18.963  0.00  0.00    +0.000 OA
BRANCH   2   4
ATOM      4  C   UNL     1       0.399   9.782  20.597  0.00  0.00    +0.000 C 
ATOM      5  C   UNL     1      -0.305   9.056  21.738  0.00  0.00    +0.000 C 
BRANCH   4  11
ATOM      6  C   UNL     1       4.155   5.012  18.053  0.00  0.00    +0.000 A 
ATOM      7  C   UNL     1       3.706   4.642  19.319  0.00  0.00    +0.000 A 
ATOM      8  C   UNL     1       2.893   5.508  20.053  0.00  0.00    +0.000 A 
ATOM      9  C   UNL     1       2.518   6.751  19.534  0.00  0.00    +0.000 A 
ATOM     10  C   UNL     1       1.695   7.614  20.277  0.00  0.00    +0.000 A 
ATOM     11  C   UNL     1       1.283   8.854  19.772  0.00  0.00    +0.000 A 
ATOM     12  C   UNL     1       1.728   9.229  18.496  0.00  0.00    +0.000 A 
ATOM     13  C   UNL     1       2.563   8.385  17.749  0.00  0.00    +0.000 A 
ATOM     14  C   UNL     1       2.966   7.139  18.256  0.00  0.00    +0.000 A 
ATOM     15  C   UNL     1       3.799   6.262  17.534  0.00  0.00    +0.000 A 
BRANCH   6  17
ATOM     16  C   UNL     1       6.300   4.725  17.103  0.00  0.00    +0.000 C 
ATOM     17  O   UNL     1       4.967   4.249  17.256  0.00  0.00    +0.000 OA
ENDBRANCH   6  17
ENDBRANCH   4  11
ENDBRANCH   2   4
ENDBRANCH   1   2
BRANCH   1  18
ATOM     18  C   UNL     1       0.488  12.431  20.687  0.00  0.00    +0.000 C 
BRANCH  18  19
ATOM     19  C   UNL     1       0.625  13.938  20.362  0.00  0.00    +0.000 C 
ATOM     20  C   UNL     1      -0.486  14.455  19.433  0.00  0.00    +0.000 C 
ATOM     21  C   UNL     1       0.571  14.721  21.695  0.00  0.00    +0.000 C 
ATOM     22  O   UNL     1       1.357  15.919  21.562  0.00  0.00    +0.000 OA
ATOM     23  C   UNL     1       2.293  15.586  20.607  0.00  0.00    +0.000 A 
ATOM     24  C   UNL     1       3.425  16.361  20.358  0.00  0.00    +0.000 A 
ATOM     25  C   UNL     1       3.682  17.605  21.160  0.00  0.00    +0.000 C 
ATOM     26  C   UNL     1       4.300  15.931  19.340  0.00  0.00    +0.000 A 
ATOM     27  C   UNL     1       5.551  16.697  18.996  0.00  0.00    +0.000 C 
ATOM     28  C   UNL     1       3.984  14.755  18.619  0.00  0.00    +0.000 A 
ATOM     29  C   UNL     1       2.814  14.013  18.856  0.00  0.00    +0.000 A 
ATOM     30  C   UNL     1       2.528  12.818  18.003  0.00  0.00    +0.000 C 
ATOM     31  C   UNL     1       1.970  14.434  19.885  0.00  0.00    +0.000 A 
BRANCH  28  32
ATOM     32  O   UNL     1       4.806  14.289  17.625  0.00  0.00    +0.000 OA
ATOM     33  H   UNL     1       5.706  14.623  17.743  0.00  0.00    +0.000 HD
ENDBRANCH  28  32
ENDBRANCH  18  19
ENDBRANCH   1  18
TORSDOF 7
ENDMDL
