MODEL 1
REMARK VINA RESULT:      -8.6      0.000      0.000
REMARK  Name = 
REMARK  10 active torsions:
REMARK  status: ('A' for Active; 'I' for Inactive)
REMARK    1  A    between atoms: C_1  and  N_2
REMARK    2  A    between atoms: N_2  and  C_3
REMARK    3  A    between atoms: C_8  and  N_9
REMARK    4  A    between atoms: C_10  and  C_12
REMARK    5  A    between atoms: C_18  and  C_20
REMARK    6  A    between atoms: C_20  and  C_21
REMARK    7  A    between atoms: C_20  and  C_27
REMARK    8  A    between atoms: C_21  and  C_22
REMARK    9  A    between atoms: C_27  and  N_28
REMARK   10  A    between atoms: N_28  and  O_29
REMARK                            x       y       z     vdW  Elec       q    Type
REMARK                         _______ _______ _______ _____ _____    ______ ____
ROOT
ATOM      1  C   UNL     1       2.350   5.520  18.105  0.00  0.00    +0.000 C 
ATOM      2  C   UNL     1       1.753   4.426  19.023  0.00  0.00    +0.000 C 
ATOM      3  C   UNL     1       1.828   3.041  18.383  0.00  0.00    +0.000 C 
ATOM      4  C   UNL     1       3.249   2.741  17.916  0.00  0.00    +0.000 C 
ATOM      5  N   UNL     1       3.732   3.793  17.035  0.00  0.00    +0.000 NA
ATOM      6  N   UNL     1       3.708   5.092  17.668  0.00  0.00    +0.000 N 
ATOM      7  C   UNL     1       4.629   6.045  17.192  0.00  0.00    +0.000 C 
ATOM      8  O   UNL     1       4.611   7.215  17.576  0.00  0.00    +0.000 OA
ATOM      9  H   UNL     1       3.151   3.837  16.187  0.00  0.00    +0.000 HD
ENDROOT
BRANCH   1  11
ATOM     10  N   UNL     1       1.660   7.907  17.992  0.00  0.00    +0.000 N 
ATOM     11  C   UNL     1       2.112   6.885  18.802  0.00  0.00    +0.000 C 
ATOM     12  O   UNL     1       2.472   7.000  19.976  0.00  0.00    +0.000 OA
ATOM     13  H   UNL     1       1.226   7.653  17.117  0.00  0.00    +0.000 HD
BRANCH  10  21
ATOM     14  C   UNL     1      -0.626  10.231  21.590  0.00  0.00    +0.000 C 
ATOM     15  N   UNL     1       0.017  11.323  20.871  0.00  0.00    +0.000 N 
ATOM     16  C   UNL     1       0.187  12.595  21.546  0.00  0.00    +0.000 C 
ATOM     17  C   UNL     1       0.822  10.962  19.796  0.00  0.00    +0.000 A 
ATOM     18  C   UNL     1       1.550  11.904  19.074  0.00  0.00    +0.000 A 
ATOM     19  C   UNL     1       2.340  11.504  17.999  0.00  0.00    +0.000 A 
ATOM     20  C   UNL     1       2.380  10.161  17.646  0.00  0.00    +0.000 A 
ATOM     21  C   UNL     1       1.615   9.263  18.373  0.00  0.00    +0.000 A 
ATOM     22  N   UNL     1       0.875   9.658  19.430  0.00  0.00    +0.000 NA
ENDBRANCH  10  21
ENDBRANCH   1  11
BRANCH   7  23
ATOM     23  C   UNL     1       5.730   5.536  16.243  0.00  0.00    +0.000 C 
BRANCH  23  24
ATOM     24  C   UNL     1       5.119   4.547  15.228  0.00  0.00    +0.000 C 
BRANCH  24  25
ATOM     25  C   UNL     1       6.120   3.992  14.206  0.00  0.00    +0.000 C 
ATOM     26  C   UNL     1       5.431   3.449  12.956  0.00  0.00    +0.000 C 
ATOM     27  C   UNL     1       6.539   3.400  11.912  0.00  0.00    +0.000 C 
ATOM     28  C   UNL     1       7.527   4.500  12.292  0.00  0.00    +0.000 C 
ATOM     29  C   UNL     1       7.064   5.048  13.639  0.00  0.00    +0.000 C 
ENDBRANCH  24  25
ENDBRANCH  23  24
BRANCH  23  30
ATOM     30  C   UNL     1       6.883   4.899  17.033  0.00  0.00    +0.000 C 
BRANCH  30  31
ATOM     31  N   UNL     1       7.739   5.874  17.708  0.00  0.00    +0.000 N 
ATOM     32  C   UNL     1       7.738   6.037  19.074  0.00  0.00    +0.000 C 
ATOM     33  O   UNL     1       7.324   5.231  19.901  0.00  0.00    +0.000 OA
BRANCH  31  34
ATOM     34  O   UNL     1       7.819   7.097  17.001  0.00  0.00    +0.000 OA
ATOM     35  H   UNL     1       7.949   7.730  17.735  0.00  0.00    +0.000 HD
ENDBRANCH  31  34
ENDBRANCH  30  31
ENDBRANCH  23  30
ENDBRANCH   7  23
TORSDOF 8
ENDMDL
MODEL 2
REMARK VINA RESULT:      -8.5      1.206      1.923
REMARK  Name = 
REMARK  10 active torsions:
REMARK  status: ('A' for Active; 'I' for Inactive)
REMARK    1  A    between atoms: C_1  and  N_2
REMARK    2  A    between atoms: N_2  and  C_3
REMARK    3  A    between atoms: C_8  and  N_9
REMARK    4  A    between atoms: C_10  and  C_12
REMARK    5  A    between atoms: C_18  and  C_20
REMARK    6  A    between atoms: C_20  and  C_21
REMARK    7  A    between atoms: C_20  and  C_27
REMARK    8  A    between atoms: C_21  and  C_22
REMARK    9  A    between atoms: C_27  and  N_28
REMARK   10  A    between atoms: N_28  and  O_29
REMARK                            x       y       z     vdW  Elec       q    Type
REMARK                         _______ _______ _______ _____ _____    ______ ____
ROOT
ATOM      1  C   UNL     1       2.831   5.159  18.712  0.00  0.00    +0.000 C 
ATOM      2  C   UNL     1       2.698   4.451  20.081  0.00  0.00    +0.000 C 
ATOM      3  C   UNL     1       3.191   3.006  20.027  0.00  0.00    +0.000 C 
ATOM      4  C   UNL     1       4.595   2.939  19.437  0.00  0.00    +0.000 C 
ATOM      5  N   UNL     1       4.638   3.595  18.139  0.00  0.00    +0.000 NA
ATOM      6  N   UNL     1       4.221   4.978  18.211  0.00  0.00    +0.000 N 
ATOM      7  C   UNL     1       4.736   5.845  17.228  0.00  0.00    +0.000 C 
ATOM      8  O   UNL     1       4.352   7.010  17.123  0.00  0.00    +0.000 OA
ATOM      9  H   UNL     1       4.022   3.107  17.477  0.00  0.00    +0.000 HD
ENDROOT
BRANCH   1  11
ATOM     10  N   UNL     1       2.196   7.100  20.131  0.00  0.00    +0.000 N 
ATOM     11  C   UNL     1       2.195   6.566  18.858  0.00  0.00    +0.000 C 
ATOM     12  O   UNL     1       1.617   7.039  17.877  0.00  0.00    +0.000 OA
ATOM     13  H   UNL     1       2.853   6.721  20.796  0.00  0.00    +0.000 HD
BRANCH  10  21
ATOM     14  C   UNL     1       1.955  11.604  18.335  0.00  0.00    +0.000 C 
ATOM     15  N   UNL     1       1.085  11.686  19.502  0.00  0.00    +0.000 N 
ATOM     16  C   UNL     1       0.135  12.778  19.585  0.00  0.00    +0.000 C 
ATOM     17  C   UNL     1       0.893  10.503  20.209  0.00  0.00    +0.000 A 
ATOM     18  C   UNL     1       0.028  10.431  21.297  0.00  0.00    +0.000 A 
ATOM     19  C   UNL     1      -0.133   9.231  21.985  0.00  0.00    +0.000 A 
ATOM     20  C   UNL     1       0.590   8.115  21.583  0.00  0.00    +0.000 A 
ATOM     21  C   UNL     1       1.463   8.241  20.515  0.00  0.00    +0.000 A 
ATOM     22  N   UNL     1       1.590   9.402  19.838  0.00  0.00    +0.000 NA
ENDBRANCH  10  21
ENDBRANCH   1  11
BRANCH   7  23
ATOM     23  C   UNL     1       5.879   5.302  16.349  0.00  0.00    +0.000 C 
BRANCH  23  24
ATOM     24  C   UNL     1       5.339   4.181  15.436  0.00  0.00    +0.000 C 
BRANCH  24  25
ATOM     25  C   UNL     1       6.265   3.817  14.268  0.00  0.00    +0.000 C 
ATOM     26  C   UNL     1       5.489   3.465  13.000  0.00  0.00    +0.000 C 
ATOM     27  C   UNL     1       6.516   3.606  11.884  0.00  0.00    +0.000 C 
ATOM     28  C   UNL     1       7.519   4.653  12.363  0.00  0.00    +0.000 C 
ATOM     29  C   UNL     1       7.154   4.969  13.811  0.00  0.00    +0.000 C 
ENDBRANCH  24  25
ENDBRANCH  23  24
BRANCH  23  30
ATOM     30  C   UNL     1       7.051   4.816  17.214  0.00  0.00    +0.000 C 
BRANCH  30  31
ATOM     31  N   UNL     1       7.799   5.899  17.849  0.00  0.00    +0.000 N 
ATOM     32  C   UNL     1       7.756   6.131  19.205  0.00  0.00    +0.000 C 
ATOM     33  O   UNL     1       7.403   5.332  20.067  0.00  0.00    +0.000 OA
BRANCH  31  34
ATOM     34  O   UNL     1       7.779   7.087  17.081  0.00  0.00    +0.000 OA
ATOM     35  H   UNL     1       7.581   7.753  17.769  0.00  0.00    +0.000 HD
ENDBRANCH  31  34
ENDBRANCH  30  31
ENDBRANCH  23  30
ENDBRANCH   7  23
TORSDOF 8
ENDMDL
MODEL 3
REMARK VINA RESULT:      -8.5      2.110      3.858
REMARK  Name = 
REMARK  10 active torsions:
REMARK  status: ('A' for Active; 'I' for Inactive)
REMARK    1  A    between atoms: C_1  and  N_2
REMARK    2  A    between atoms: N_2  and  C_3
REMARK    3  A    between atoms: C_8  and  N_9
REMARK    4  A    between atoms: C_10  and  C_12
REMARK    5  A    between atoms: C_18  and  C_20
REMARK    6  A    between atoms: C_20  and  C_21
REMARK    7  A    between atoms: C_20  and  C_27
REMARK    8  A    between atoms: C_21  and  C_22
REMARK    9  A    between atoms: C_27  and  N_28
REMARK   10  A    between atoms: N_28  and  O_29
REMARK                            x       y       z     vdW  Elec       q    Type
REMARK                         _______ _______ _______ _____ _____    ______ ____
ROOT
ATOM      1  C   UNL     1       2.778   4.479  18.969  0.00  0.00    +0.000 C 
ATOM      2  C   UNL     1       2.725   3.967  20.429  0.00  0.00    +0.000 C 
ATOM      3  C   UNL     1       3.217   2.526  20.546  0.00  0.00    +0.000 C 
ATOM      4  C   UNL     1       4.585   2.370  19.892  0.00  0.00    +0.000 C 
ATOM      5  N   UNL     1       4.553   2.841  18.515  0.00  0.00    +0.000 NA
ATOM      6  N   UNL     1       4.138   4.223  18.420  0.00  0.00    +0.000 N 
ATOM      7  C   UNL     1       4.593   4.943  17.299  0.00  0.00    +0.000 C 
ATOM      8  O   UNL     1       4.202   6.085  17.057  0.00  0.00    +0.000 OA
ATOM      9  H   UNL     1       3.900   2.270  17.962  0.00  0.00    +0.000 HD
ENDROOT
BRANCH   1  11
ATOM     10  N   UNL     1       2.237   6.608  20.137  0.00  0.00    +0.000 N 
ATOM     11  C   UNL     1       2.149   5.897  18.956  0.00  0.00    +0.000 C 
ATOM     12  O   UNL     1       1.502   6.228  17.960  0.00  0.00    +0.000 OA
ATOM     13  H   UNL     1       2.940   6.323  20.802  0.00  0.00    +0.000 HD
BRANCH  10  21
ATOM     14  C   UNL     1       2.145  10.937  17.942  0.00  0.00    +0.000 C 
ATOM     15  N   UNL     1       1.259  11.145  19.080  0.00  0.00    +0.000 N 
ATOM     16  C   UNL     1       0.336  12.263  19.048  0.00  0.00    +0.000 C 
ATOM     17  C   UNL     1       1.024  10.036  19.886  0.00  0.00    +0.000 A 
ATOM     18  C   UNL     1       0.139  10.083  20.961  0.00  0.00    +0.000 A 
ATOM     19  C   UNL     1      -0.064   8.954  21.749  0.00  0.00    +0.000 A 
ATOM     20  C   UNL     1       0.635   7.789  21.463  0.00  0.00    +0.000 A 
ATOM     21  C   UNL     1       1.529   7.796  20.403  0.00  0.00    +0.000 A 
ATOM     22  N   UNL     1       1.697   8.888  19.629  0.00  0.00    +0.000 NA
ENDBRANCH  10  21
ENDBRANCH   1  11
BRANCH   7  23
ATOM     23  C   UNL     1       5.686   4.278  16.439  0.00  0.00    +0.000 C 
BRANCH  23  24
ATOM     24  C   UNL     1       7.077   4.682  16.971  0.00  0.00    +0.000 C 
BRANCH  24  25
ATOM     25  C   UNL     1       7.104   6.030  17.704  0.00  0.00    +0.000 C 
ATOM     26  C   UNL     1       8.167   6.072  18.801  0.00  0.00    +0.000 C 
ATOM     27  C   UNL     1       8.369   7.558  19.066  0.00  0.00    +0.000 C 
ATOM     28  C   UNL     1       8.043   8.270  17.755  0.00  0.00    +0.000 C 
ATOM     29  C   UNL     1       7.495   7.204  16.811  0.00  0.00    +0.000 C 
ENDBRANCH  24  25
ENDBRANCH  23  24
BRANCH  23  30
ATOM     30  C   UNL     1       5.515   4.645  14.958  0.00  0.00    +0.000 C 
BRANCH  30  31
ATOM     31  N   UNL     1       6.446   3.949  14.071  0.00  0.00    +0.000 N 
ATOM     32  C   UNL     1       7.489   4.592  13.443  0.00  0.00    +0.000 C 
ATOM     33  O   UNL     1       7.977   5.670  13.766  0.00  0.00    +0.000 OA
BRANCH  31  34
ATOM     34  O   UNL     1       5.794   3.006  13.242  0.00  0.00    +0.000 OA
ATOM     35  H   UNL     1       4.990   3.502  12.989  0.00  0.00    +0.000 HD
ENDBRANCH  31  34
ENDBRANCH  30  31
ENDBRANCH  23  30
ENDBRANCH   7  23
TORSDOF 8
ENDMDL
MODEL 4
REMARK VINA RESULT:      -8.4      1.304      2.278
REMARK  Name = 
REMARK  10 active torsions:
REMARK  status: ('A' for Active; 'I' for Inactive)
REMARK    1  A    between atoms: C_1  and  N_2
REMARK    2  A    between atoms: N_2  and  C_3
REMARK    3  A    between atoms: C_8  and  N_9
REMARK    4  A    between atoms: C_10  and  C_12
REMARK    5  A    between atoms: C_18  and  C_20
REMARK    6  A    between atoms: C_20  and  C_21
REMARK    7  A    between atoms: C_20  and  C_27
REMARK    8  A    between atoms: C_21  and  C_22
REMARK    9  A    between atoms: C_27  and  N_28
REMARK   10  A    between atoms: N_28  and  O_29
REMARK                            x       y       z     vdW  Elec       q    Type
REMARK                         _______ _______ _______ _____ _____    ______ ____
ROOT
ATOM      1  C   UNL     1       2.887   5.114  18.670  0.00  0.00    +0.000 C 
ATOM      2  C   UNL     1       2.609   4.314  19.966  0.00  0.00    +0.000 C 
ATOM      3  C   UNL     1       3.130   2.882  19.876  0.00  0.00    +0.000 C 
ATOM      4  C   UNL     1       4.595   2.869  19.452  0.00  0.00    +0.000 C 
ATOM      5  N   UNL     1       4.777   3.611  18.213  0.00  0.00    +0.000 NA
ATOM      6  N   UNL     1       4.330   4.981  18.325  0.00  0.00    +0.000 N 
ATOM      7  C   UNL     1       4.939   5.917  17.468  0.00  0.00    +0.000 C 
ATOM      8  O   UNL     1       4.549   7.082  17.395  0.00  0.00    +0.000 OA
ATOM      9  H   UNL     1       4.250   3.161  17.453  0.00  0.00    +0.000 HD
ENDROOT
BRANCH   1  11
ATOM     10  N   UNL     1       2.206   7.024  20.111  0.00  0.00    +0.000 N 
ATOM     11  C   UNL     1       2.214   6.502  18.833  0.00  0.00    +0.000 C 
ATOM     12  O   UNL     1       1.618   6.968  17.858  0.00  0.00    +0.000 OA
ATOM     13  H   UNL     1       2.875   6.656  20.770  0.00  0.00    +0.000 HD
BRANCH  10  21
ATOM     14  C   UNL     1       1.899  11.562  18.414  0.00  0.00    +0.000 C 
ATOM     15  N   UNL     1       1.010  11.599  19.568  0.00  0.00    +0.000 N 
ATOM     16  C   UNL     1       0.036  12.669  19.661  0.00  0.00    +0.000 C 
ATOM     17  C   UNL     1       0.831  10.397  20.244  0.00  0.00    +0.000 A 
ATOM     18  C   UNL     1      -0.050  10.282  21.317  0.00  0.00    +0.000 A 
ATOM     19  C   UNL     1      -0.196   9.063  21.974  0.00  0.00    +0.000 A 
ATOM     20  C   UNL     1       0.556   7.972  21.559  0.00  0.00    +0.000 A 
ATOM     21  C   UNL     1       1.443   8.140  20.508  0.00  0.00    +0.000 A 
ATOM     22  N   UNL     1       1.556   9.318  19.861  0.00  0.00    +0.000 NA
ENDBRANCH  10  21
ENDBRANCH   1  11
BRANCH   7  23
ATOM     23  C   UNL     1       6.186   5.446  16.695  0.00  0.00    +0.000 C 
BRANCH  23  24
ATOM     24  C   UNL     1       5.797   4.297  15.741  0.00  0.00    +0.000 C 
BRANCH  24  25
ATOM     25  C   UNL     1       6.010   4.612  14.255  0.00  0.00    +0.000 C 
ATOM     26  C   UNL     1       7.393   5.200  13.978  0.00  0.00    +0.000 C 
ATOM     27  C   UNL     1       7.591   4.998  12.482  0.00  0.00    +0.000 C 
ATOM     28  C   UNL     1       6.772   3.765  12.110  0.00  0.00    +0.000 C 
ATOM     29  C   UNL     1       5.982   3.379  13.357  0.00  0.00    +0.000 C 
ENDBRANCH  24  25
ENDBRANCH  23  24
BRANCH  23  30
ATOM     30  C   UNL     1       7.304   5.028  17.662  0.00  0.00    +0.000 C 
BRANCH  30  31
ATOM     31  N   UNL     1       7.611   6.037  18.673  0.00  0.00    +0.000 N 
ATOM     32  C   UNL     1       8.060   7.297  18.348  0.00  0.00    +0.000 C 
ATOM     33  O   UNL     1       7.949   7.848  17.257  0.00  0.00    +0.000 OA
BRANCH  31  34
ATOM     34  O   UNL     1       8.269   5.485  19.798  0.00  0.00    +0.000 OA
ATOM     35  H   UNL     1       8.799   4.780  19.379  0.00  0.00    +0.000 HD
ENDBRANCH  31  34
ENDBRANCH  30  31
ENDBRANCH  23  30
ENDBRANCH   7  23
TORSDOF 8
ENDMDL
MODEL 5
REMARK VINA RESULT:      -8.2      1.139      1.233
REMARK  Name = 
REMARK  10 active torsions:
REMARK  status: ('A' for Active; 'I' for Inactive)
REMARK    1  A    between atoms: C_1  and  N_2
REMARK    2  A    between atoms: N_2  and  C_3
REMARK    3  A    between atoms: C_8  and  N_9
REMARK    4  A    between atoms: C_10  and  C_12
REMARK    5  A    between atoms: C_18  and  C_20
REMARK    6  A    between atoms: C_20  and  C_21
REMARK    7  A    between atoms: C_20  and  C_27
REMARK    8  A    between atoms: C_21  and  C_22
REMARK    9  A    between atoms: C_27  and  N_28
REMARK   10  A    between atoms: N_28  and  O_29
REMARK                            x       y       z     vdW  Elec       q    Type
REMARK                         _______ _______ _______ _____ _____    ______ ____
ROOT
ATOM      1  C   UNL     1       2.655   5.467  18.465  0.00  0.00    +0.000 C 
ATOM      2  C   UNL     1       2.453   4.972  19.918  0.00  0.00    +0.000 C 
ATOM      3  C   UNL     1       2.962   3.545  20.111  0.00  0.00    +0.000 C 
ATOM      4  C   UNL     1       4.398   3.414  19.614  0.00  0.00    +0.000 C 
ATOM      5  N   UNL     1       4.507   3.867  18.236  0.00  0.00    +0.000 NA
ATOM      6  N   UNL     1       4.073   5.237  18.073  0.00  0.00    +0.000 N 
ATOM      7  C   UNL     1       4.633   5.953  16.998  0.00  0.00    +0.000 C 
ATOM      8  O   UNL     1       4.245   7.082  16.697  0.00  0.00    +0.000 OA
ATOM      9  H   UNL     1       3.933   3.273  17.623  0.00  0.00    +0.000 HD
ENDROOT
BRANCH   1  11
ATOM     10  N   UNL     1       2.218   7.718  19.427  0.00  0.00    +0.000 N 
ATOM     11  C   UNL     1       1.999   6.868  18.361  0.00  0.00    +0.000 C 
ATOM     12  O   UNL     1       1.227   7.072  17.421  0.00  0.00    +0.000 OA
ATOM     13  H   UNL     1       3.003   7.522  20.028  0.00  0.00    +0.000 HD
BRANCH  10  21
ATOM     14  C   UNL     1      -0.221   9.487  23.234  0.00  0.00    +0.000 C 
ATOM     15  N   UNL     1      -0.421  10.521  22.227  0.00  0.00    +0.000 N 
ATOM     16  C   UNL     1      -0.839  11.841  22.658  0.00  0.00    +0.000 C 
ATOM     17  C   UNL     1       0.228  10.329  21.012  0.00  0.00    +0.000 A 
ATOM     18  C   UNL     1       0.177  11.279  19.994  0.00  0.00    +0.000 A 
ATOM     19  C   UNL     1       0.835  11.047  18.789  0.00  0.00    +0.000 A 
ATOM     20  C   UNL     1       1.525   9.856  18.608  0.00  0.00    +0.000 A 
ATOM     21  C   UNL     1       1.522   8.926  19.635  0.00  0.00    +0.000 A 
ATOM     22  N   UNL     1       0.905   9.173  20.810  0.00  0.00    +0.000 NA
ENDBRANCH  10  21
ENDBRANCH   1  11
BRANCH   7  23
ATOM     23  C   UNL     1       5.829   5.304  16.275  0.00  0.00    +0.000 C 
BRANCH  23  24
ATOM     24  C   UNL     1       5.318   4.202  15.322  0.00  0.00    +0.000 C 
BRANCH  24  25
ATOM     25  C   UNL     1       6.293   3.842  14.194  0.00  0.00    +0.000 C 
ATOM     26  C   UNL     1       5.569   3.426  12.914  0.00  0.00    +0.000 C 
ATOM     27  C   UNL     1       6.623   3.576  11.825  0.00  0.00    +0.000 C 
ATOM     28  C   UNL     1       7.572   4.673  12.303  0.00  0.00    +0.000 C 
ATOM     29  C   UNL     1       7.151   5.015  13.730  0.00  0.00    +0.000 C 
ENDBRANCH  24  25
ENDBRANCH  23  24
BRANCH  23  30
ATOM     30  C   UNL     1       6.848   4.755  17.285  0.00  0.00    +0.000 C 
BRANCH  30  31
ATOM     31  N   UNL     1       7.736   5.776  17.835  0.00  0.00    +0.000 N 
ATOM     32  C   UNL     1       7.776   6.075  19.178  0.00  0.00    +0.000 C 
ATOM     33  O   UNL     1       7.374   5.363  20.092  0.00  0.00    +0.000 OA
BRANCH  31  34
ATOM     34  O   UNL     1       7.813   6.921  17.008  0.00  0.00    +0.000 OA
ATOM     35  H   UNL     1       7.994   6.513  16.138  0.00  0.00    +0.000 HD
ENDBRANCH  31  34
ENDBRANCH  30  31
ENDBRANCH  23  30
ENDBRANCH   7  23
TORSDOF 8
ENDMDL
MODEL 6
REMARK VINA RESULT:      -8.1      3.590      9.438
REMARK  Name = 
REMARK  10 active torsions:
REMARK  status: ('A' for Active; 'I' for Inactive)
REMARK    1  A    between atoms: C_1  and  N_2
REMARK    2  A    between atoms: N_2  and  C_3
REMARK    3  A    between atoms: C_8  and  N_9
REMARK    4  A    between atoms: C_10  and  C_12
REMARK    5  A    between atoms: C_18  and  C_20
REMARK    6  A    between atoms: C_20  and  C_21
REMARK    7  A    between atoms: C_20  and  C_27
REMARK    8  A    between atoms: C_21  and  C_22
REMARK    9  A    between atoms: C_27  and  N_28
REMARK   10  A    between atoms: N_28  and  O_29
REMARK                            x       y       z     vdW  Elec       q    Type
REMARK                         _______ _______ _______ _____ _____    ______ ____
ROOT
ATOM      1  C   UNL     1       1.397   9.132  20.088  0.00  0.00    +0.000 C 
ATOM      2  C   UNL     1       1.469   8.315  21.401  0.00  0.00    +0.000 C 
ATOM      3  C   UNL     1       1.032   9.139  22.610  0.00  0.00    +0.000 C 
ATOM      4  C   UNL     1      -0.329   9.779  22.361  0.00  0.00    +0.000 C 
ATOM      5  N   UNL     1      -0.314  10.555  21.130  0.00  0.00    +0.000 NA
ATOM      6  N   UNL     1       0.048   9.753  19.983  0.00  0.00    +0.000 N 
ATOM      7  C   UNL     1      -0.434  10.185  18.732  0.00  0.00    +0.000 C 
ATOM      8  O   UNL     1      -0.087   9.649  17.680  0.00  0.00    +0.000 OA
ATOM      9  H   UNL     1       0.359  11.327  21.209  0.00  0.00    +0.000 HD
ENDROOT
BRANCH   1  11
ATOM     10  N   UNL     1       2.008   6.883  19.219  0.00  0.00    +0.000 N 
ATOM     11  C   UNL     1       1.972   8.238  18.958  0.00  0.00    +0.000 C 
ATOM     12  O   UNL     1       2.478   8.800  17.984  0.00  0.00    +0.000 OA
ATOM     13  H   UNL     1       1.404   6.531  19.946  0.00  0.00    +0.000 HD
BRANCH  10  21
ATOM     14  C   UNL     1       6.498   6.826  17.375  0.00  0.00    +0.000 C 
ATOM     15  N   UNL     1       5.932   5.588  16.857  0.00  0.00    +0.000 N 
ATOM     16  C   UNL     1       6.833   4.560  16.373  0.00  0.00    +0.000 C 
ATOM     17  C   UNL     1       4.641   5.280  17.274  0.00  0.00    +0.000 A 
ATOM     18  C   UNL     1       4.016   4.090  16.910  0.00  0.00    +0.000 A 
ATOM     19  C   UNL     1       2.720   3.821  17.342  0.00  0.00    +0.000 A 
ATOM     20  C   UNL     1       2.055   4.757  18.124  0.00  0.00    +0.000 A 
ATOM     21  C   UNL     1       2.704   5.941  18.435  0.00  0.00    +0.000 A 
ATOM     22  N   UNL     1       3.971   6.179  18.035  0.00  0.00    +0.000 NA
ENDBRANCH  10  21
ENDBRANCH   1  11
BRANCH   7  23
ATOM     23  C   UNL     1      -1.500  11.298  18.743  0.00  0.00    +0.000 C 
BRANCH  23  24
ATOM     24  C   UNL     1      -2.768  10.803  18.016  0.00  0.00    +0.000 C 
BRANCH  24  25
ATOM     25  C   UNL     1      -3.877  11.856  17.893  0.00  0.00    +0.000 C 
ATOM     26  C   UNL     1      -4.979  11.429  16.925  0.00  0.00    +0.000 C 
ATOM     27  C   UNL     1      -6.160  12.319  17.289  0.00  0.00    +0.000 C 
ATOM     28  C   UNL     1      -5.998  12.652  18.770  0.00  0.00    +0.000 C 
ATOM     29  C   UNL     1      -4.642  12.093  19.192  0.00  0.00    +0.000 C 
ENDBRANCH  24  25
ENDBRANCH  23  24
BRANCH  23  30
ATOM     30  C   UNL     1      -0.952  12.588  18.115  0.00  0.00    +0.000 C 
BRANCH  30  31
ATOM     31  N   UNL     1       0.298  13.047  18.717  0.00  0.00    +0.000 N 
ATOM     32  C   UNL     1       0.358  14.134  19.559  0.00  0.00    +0.000 C 
ATOM     33  O   UNL     1      -0.583  14.633  20.167  0.00  0.00    +0.000 OA
BRANCH  31  34
ATOM     34  O   UNL     1       1.384  12.984  17.811  0.00  0.00    +0.000 OA
ATOM     35  H   UNL     1       0.954  12.587  17.029  0.00  0.00    +0.000 HD
ENDBRANCH  31  34
ENDBRANCH  30  31
ENDBRANCH  23  30
ENDBRANCH   7  23
TORSDOF 8
ENDMDL
MODEL 7
REMARK VINA RESULT:      -7.9      3.527      8.770
REMARK  Name = 
REMARK  10 active torsions:
REMARK  status: ('A' for Active; 'I' for Inactive)
REMARK    1  A    between atoms: C_1  and  N_2
REMARK    2  A    between atoms: N_2  and  C_3
REMARK    3  A    between atoms: C_8  and  N_9
REMARK    4  A    between atoms: C_10  and  C_12
REMARK    5  A    between atoms: C_18  and  C_20
REMARK    6  A    between atoms: C_20  and  C_21
REMARK    7  A    between atoms: C_20  and  C_27
REMARK    8  A    between atoms: C_21  and  C_22
REMARK    9  A    between atoms: C_27  and  N_28
REMARK   10  A    between atoms: N_28  and  O_29
REMARK                            x       y       z     vdW  Elec       q    Type
REMARK                         _______ _______ _______ _____ _____    ______ ____
ROOT
ATOM      1  C   UNL     1       1.491   9.115  20.157  0.00  0.00    +0.000 C 
ATOM      2  C   UNL     1       1.523   8.270  21.453  0.00  0.00    +0.000 C 
ATOM      3  C   UNL     1       1.074   9.075  22.671  0.00  0.00    +0.000 C 
ATOM      4  C   UNL     1      -0.272   9.741  22.408  0.00  0.00    +0.000 C 
ATOM      5  N   UNL     1      -0.220  10.542  21.194  0.00  0.00    +0.000 NA
ATOM      6  N   UNL     1       0.154   9.760  20.037  0.00  0.00    +0.000 N 
ATOM      7  C   UNL     1      -0.296  10.226  18.787  0.00  0.00    +0.000 C 
ATOM      8  O   UNL     1       0.066   9.706  17.731  0.00  0.00    +0.000 OA
ATOM      9  H   UNL     1       0.464  11.303  21.303  0.00  0.00    +0.000 HD
ENDROOT
BRANCH   1  11
ATOM     10  N   UNL     1       2.100   6.877  19.259  0.00  0.00    +0.000 N 
ATOM     11  C   UNL     1       2.075   8.236  19.020  0.00  0.00    +0.000 C 
ATOM     12  O   UNL     1       2.598   8.811  18.062  0.00  0.00    +0.000 OA
ATOM     13  H   UNL     1       1.484   6.517  19.972  0.00  0.00    +0.000 HD
BRANCH  10  21
ATOM     14  C   UNL     1       6.637   6.787  17.536  0.00  0.00    +0.000 C 
ATOM     15  N   UNL     1       6.064   5.573  16.969  0.00  0.00    +0.000 N 
ATOM     16  C   UNL     1       6.960   4.542  16.482  0.00  0.00    +0.000 C 
ATOM     17  C   UNL     1       4.757   5.279  17.343  0.00  0.00    +0.000 A 
ATOM     18  C   UNL     1       4.121   4.111  16.930  0.00  0.00    +0.000 A 
ATOM     19  C   UNL     1       2.809   3.854  17.319  0.00  0.00    +0.000 A 
ATOM     20  C   UNL     1       2.139   4.781  18.108  0.00  0.00    +0.000 A 
ATOM     21  C   UNL     1       2.801   5.944  18.469  0.00  0.00    +0.000 A 
ATOM     22  N   UNL     1       4.082   6.169  18.110  0.00  0.00    +0.000 NA
ENDBRANCH  10  21
ENDBRANCH   1  11
BRANCH   7  23
ATOM     23  C   UNL     1      -1.345  11.355  18.800  0.00  0.00    +0.000 C 
BRANCH  23  24
ATOM     24  C   UNL     1      -2.674  10.829  18.219  0.00  0.00    +0.000 C 
BRANCH  24  25
ATOM     25  C   UNL     1      -2.818  11.018  16.703  0.00  0.00    +0.000 C 
ATOM     26  C   UNL     1      -2.402   9.774  15.920  0.00  0.00    +0.000 C 
ATOM     27  C   UNL     1      -3.043   9.963  14.552  0.00  0.00    +0.000 C 
ATOM     28  C   UNL     1      -4.292  10.810  14.784  0.00  0.00    +0.000 C 
ATOM     29  C   UNL     1      -4.258  11.237  16.248  0.00  0.00    +0.000 C 
ENDBRANCH  24  25
ENDBRANCH  23  24
BRANCH  23  30
ATOM     30  C   UNL     1      -0.835  12.583  18.032  0.00  0.00    +0.000 C 
BRANCH  30  31
ATOM     31  N   UNL     1       0.374  13.172  18.605  0.00  0.00    +0.000 N 
ATOM     32  C   UNL     1       0.384  14.417  19.190  0.00  0.00    +0.000 C 
ATOM     33  O   UNL     1      -0.593  15.031  19.607  0.00  0.00    +0.000 OA
BRANCH  31  34
ATOM     34  O   UNL     1       1.519  12.921  17.812  0.00  0.00    +0.000 OA
ATOM     35  H   UNL     1       1.387  13.557  17.083  0.00  0.00    +0.000 HD
ENDBRANCH  31  34
ENDBRANCH  30  31
ENDBRANCH  23  30
ENDBRANCH   7  23
TORSDOF 8
ENDMDL
MODEL 8
REMARK VINA RESULT:      -7.9      1.986      3.486
REMARK  Name = 
REMARK  10 active torsions:
REMARK  status: ('A' for Active; 'I' for Inactive)
REMARK    1  A    between atoms: C_1  and  N_2
REMARK    2  A    between atoms: N_2  and  C_3
REMARK    3  A    between atoms: C_8  and  N_9
REMARK    4  A    between atoms: C_10  and  C_12
REMARK    5  A    between atoms: C_18  and  C_20
REMARK    6  A    between atoms: C_20  and  C_21
REMARK    7  A    between atoms: C_20  and  C_27
REMARK    8  A    between atoms: C_21  and  C_22
REMARK    9  A    between atoms: C_27  and  N_28
REMARK   10  A    between atoms: N_28  and  O_29
REMARK                            x       y       z     vdW  Elec       q    Type
REMARK                         _______ _______ _______ _____ _____    ______ ____
ROOT
ATOM      1  C   UNL     1       2.611   5.213  18.622  0.00  0.00    +0.000 C 
ATOM      2  C   UNL     1       2.460   4.840  20.117  0.00  0.00    +0.000 C 
ATOM      3  C   UNL     1       2.841   3.385  20.383  0.00  0.00    +0.000 C 
ATOM      4  C   UNL     1       4.222   3.079  19.812  0.00  0.00    +0.000 C 
ATOM      5  N   UNL     1       4.282   3.425  18.400  0.00  0.00    +0.000 NA
ATOM      6  N   UNL     1       3.971   4.817  18.164  0.00  0.00    +0.000 N 
ATOM      7  C   UNL     1       4.524   5.400  17.008  0.00  0.00    +0.000 C 
ATOM      8  O   UNL     1       4.226   6.540  16.648  0.00  0.00    +0.000 OA
ATOM      9  H   UNL     1       3.614   2.851  17.868  0.00  0.00    +0.000 HD
ENDROOT
BRANCH   1  11
ATOM     10  N   UNL     1       2.179   7.472  19.570  0.00  0.00    +0.000 N 
ATOM     11  C   UNL     1       2.086   6.663  18.455  0.00  0.00    +0.000 C 
ATOM     12  O   UNL     1       1.503   6.945  17.405  0.00  0.00    +0.000 OA
ATOM     13  H   UNL     1       2.833   7.203  20.289  0.00  0.00    +0.000 HD
BRANCH  10  21
ATOM     14  C   UNL     1      -0.236   9.575  23.219  0.00  0.00    +0.000 C 
ATOM     15  N   UNL     1      -0.358  10.562  22.154  0.00  0.00    +0.000 N 
ATOM     16  C   UNL     1      -0.710  11.924  22.505  0.00  0.00    +0.000 C 
ATOM     17  C   UNL     1       0.305  10.269  20.966  0.00  0.00    +0.000 A 
ATOM     18  C   UNL     1       0.329  11.163  19.899  0.00  0.00    +0.000 A 
ATOM     19  C   UNL     1       0.997  10.831  18.724  0.00  0.00    +0.000 A 
ATOM     20  C   UNL     1       1.624   9.596  18.623  0.00  0.00    +0.000 A 
ATOM     21  C   UNL     1       1.548   8.725  19.698  0.00  0.00    +0.000 A 
ATOM     22  N   UNL     1       0.921   9.069  20.842  0.00  0.00    +0.000 NA
ENDBRANCH  10  21
ENDBRANCH   1  11
BRANCH   7  23
ATOM     23  C   UNL     1       5.601   4.588  16.264  0.00  0.00    +0.000 C 
BRANCH  23  24
ATOM     24  C   UNL     1       6.980   4.850  16.907  0.00  0.00    +0.000 C 
BRANCH  24  25
ATOM     25  C   UNL     1       7.075   6.174  17.675  0.00  0.00    +0.000 C 
ATOM     26  C   UNL     1       8.116   6.123  18.793  0.00  0.00    +0.000 C 
ATOM     27  C   UNL     1       8.404   7.586  19.101  0.00  0.00    +0.000 C 
ATOM     28  C   UNL     1       8.149   8.349  17.803  0.00  0.00    +0.000 C 
ATOM     29  C   UNL     1       7.555   7.344  16.821  0.00  0.00    +0.000 C 
ENDBRANCH  24  25
ENDBRANCH  23  24
BRANCH  23  30
ATOM     30  C   UNL     1       5.601   4.922  14.765  0.00  0.00    +0.000 C 
BRANCH  30  31
ATOM     31  N   UNL     1       6.554   4.132  13.988  0.00  0.00    +0.000 N 
ATOM     32  C   UNL     1       7.665   4.687  13.396  0.00  0.00    +0.000 C 
ATOM     33  O   UNL     1       8.183   5.761  13.687  0.00  0.00    +0.000 OA
BRANCH  31  34
ATOM     34  O   UNL     1       5.914   3.167  13.175  0.00  0.00    +0.000 OA
ATOM     35  H   UNL     1       5.370   2.695  13.836  0.00  0.00    +0.000 HD
ENDBRANCH  31  34
ENDBRANCH  30  31
ENDBRANCH  23  30
ENDBRANCH   7  23
TORSDOF 8
ENDMDL
MODEL 9
REMARK VINA RESULT:      -7.8      3.759      8.991
REMARK  Name = 
REMARK  10 active torsions:
REMARK  status: ('A' for Active; 'I' for Inactive)
REMARK    1  A    between atoms: C_1  and  N_2
REMARK    2  A    between atoms: N_2  and  C_3
REMARK    3  A    between atoms: C_8  and  N_9
REMARK    4  A    between atoms: C_10  and  C_12
REMARK    5  A    between atoms: C_18  and  C_20
REMARK    6  A    between atoms: C_20  and  C_21
REMARK    7  A    between atoms: C_20  and  C_27
REMARK    8  A    between atoms: C_21  and  C_22
REMARK    9  A    between atoms: C_27  and  N_28
REMARK   10  A    between atoms: N_28  and  O_29
REMARK                            x       y       z     vdW  Elec       q    Type
REMARK                         _______ _______ _______ _____ _____    ______ ____
ROOT
ATOM      1  C   UNL     1       0.341   9.621  21.379  0.00  0.00    +0.000 C 
ATOM      2  C   UNL     1      -0.301   9.334  22.758  0.00  0.00    +0.000 C 
ATOM      3  C   UNL     1      -0.742  10.616  23.460  0.00  0.00    +0.000 C 
ATOM      4  C   UNL     1      -1.619  11.459  22.540  0.00  0.00    +0.000 C 
ATOM      5  N   UNL     1      -0.941  11.715  21.278  0.00  0.00    +0.000 NA
ATOM      6  N   UNL     1      -0.576  10.494  20.595  0.00  0.00    +0.000 N 
ATOM      7  C   UNL     1      -0.456  10.565  19.194  0.00  0.00    +0.000 C 
ATOM      8  O   UNL     1      -0.033   9.619  18.529  0.00  0.00    +0.000 OA
ATOM      9  H   UNL     1      -0.085  12.260  21.442  0.00  0.00    +0.000 HD
ENDROOT
BRANCH   1  11
ATOM     10  N   UNL     1       1.967   8.332  20.007  0.00  0.00    +0.000 N 
ATOM     11  C   UNL     1       0.853   8.268  20.819  0.00  0.00    +0.000 C 
ATOM     12  O   UNL     1       0.160   7.267  21.016  0.00  0.00    +0.000 OA
ATOM     13  H   UNL     1       2.548   9.155  20.075  0.00  0.00    +0.000 HD
BRANCH  10  21
ATOM     14  C   UNL     1       1.304   3.529  20.246  0.00  0.00    +0.000 C 
ATOM     15  N   UNL     1       2.225   3.662  19.125  0.00  0.00    +0.000 N 
ATOM     16  C   UNL     1       2.350   2.558  18.194  0.00  0.00    +0.000 C 
ATOM     17  C   UNL     1       2.563   4.960  18.758  0.00  0.00    +0.000 A 
ATOM     18  C   UNL     1       3.376   5.224  17.659  0.00  0.00    +0.000 A 
ATOM     19  C   UNL     1       3.698   6.538  17.327  0.00  0.00    +0.000 A 
ATOM     20  C   UNL     1       3.216   7.576  18.113  0.00  0.00    +0.000 A 
ATOM     21  C   UNL     1       2.437   7.265  19.216  0.00  0.00    +0.000 A 
ATOM     22  N   UNL     1       2.108   5.990  19.511  0.00  0.00    +0.000 NA
ENDBRANCH  10  21
ENDBRANCH   1  11
BRANCH   7  23
ATOM     23  C   UNL     1      -0.976  11.846  18.514  0.00  0.00    +0.000 C 
BRANCH  23  24
ATOM     24  C   UNL     1      -1.914  11.467  17.349  0.00  0.00    +0.000 C 
BRANCH  24  25
ATOM     25  C   UNL     1      -3.358  11.169  17.774  0.00  0.00    +0.000 C 
ATOM     26  C   UNL     1      -3.798  12.017  18.967  0.00  0.00    +0.000 C 
ATOM     27  C   UNL     1      -5.319  11.946  18.933  0.00  0.00    +0.000 C 
ATOM     28  C   UNL     1      -5.699  11.738  17.469  0.00  0.00    +0.000 C 
ATOM     29  C   UNL     1      -4.394  11.520  16.710  0.00  0.00    +0.000 C 
ENDBRANCH  24  25
ENDBRANCH  23  24
BRANCH  23  30
ATOM     30  C   UNL     1       0.191  12.726  18.040  0.00  0.00    +0.000 C 
BRANCH  30  31
ATOM     31  N   UNL     1       1.486  12.327  18.588  0.00  0.00    +0.000 N 
ATOM     32  C   UNL     1       2.021  12.905  19.716  0.00  0.00    +0.000 C 
ATOM     33  O   UNL     1       1.407  13.537  20.569  0.00  0.00    +0.000 OA
BRANCH  31  34
ATOM     34  O   UNL     1       2.445  12.089  17.575  0.00  0.00    +0.000 OA
ATOM     35  H   UNL     1       1.891  12.153  16.772  0.00  0.00    +0.000 HD
ENDBRANCH  31  34
ENDBRANCH  30  31
ENDBRANCH  23  30
ENDBRANCH   7  23
TORSDOF 8
ENDMDL
