MODEL 1
REMARK VINA RESULT:      -8.7      0.000      0.000
REMARK  Name = 
REMARK  13 active torsions:
REMARK  status: ('A' for Active; 'I' for Inactive)
REMARK    1  A    between atoms: C_1  and  C_2
REMARK    2  A    between atoms: C_2  and  N_3
REMARK    3  A    between atoms: N_3  and  C_4
REMARK    4  A    between atoms: C_4  and  C_5
REMARK    5  A    between atoms: N_9  and  C_10
REMARK    6  A    between atoms: C_10  and  C_11
REMARK    7  A    between atoms: C_11  and  N_12
REMARK    8  A    between atoms: C_13  and  C_15
REMARK    9  A    between atoms: C_17  and  O_18
REMARK   10  A    between atoms: O_18  and  C_19
REMARK   11  A    between atoms: C_20  and  O_21
REMARK   12  A    between atoms: C_22  and  O_23
REMARK   13  A    between atoms: O_23  and  C_24
REMARK                            x       y       z     vdW  Elec       q    Type
REMARK                         _______ _______ _______ _____ _____    ______ ____
ROOT
ATOM      1  C   UNL     1       2.211   8.546  17.972  0.00  0.00    +0.000 C 
ENDROOT
BRANCH   1   6
ATOM      2  N   UNL     1       6.190   5.816  17.753  0.00  0.00    +0.000 N 
ATOM      3  C   UNL     1       5.009   5.602  18.435  0.00  0.00    +0.000 A 
ATOM      4  N   UNL     1       4.066   6.537  18.360  0.00  0.00    +0.000 NA
ATOM      5  C   UNL     1       2.851   6.303  18.871  0.00  0.00    +0.000 A 
ATOM      6  N   UNL     1       1.945   7.350  18.782  0.00  0.00    +0.000 N 
ATOM      7  C   UNL     1       2.552   5.088  19.522  0.00  0.00    +0.000 A 
ATOM      8  C   UNL     1       1.308   4.672  20.085  0.00  0.00    +0.000 A 
ATOM      9  C   UNL     1       1.173   3.442  20.738  0.00  0.00    +0.000 A 
ATOM     10  C   UNL     1       2.269   2.604  20.853  0.00  0.00    +0.000 A 
ATOM     11  C   UNL     1       3.478   2.996  20.290  0.00  0.00    +0.000 A 
ATOM     12  C   UNL     1       3.640   4.199  19.624  0.00  0.00    +0.000 A 
ATOM     13  N   UNL     1       4.830   4.457  19.086  0.00  0.00    +0.000 NA
ATOM     14  H   UNL     1       0.983   7.168  19.017  0.00  0.00    +0.000 HD
BRANCH   2  16
ATOM     15  C   UNL     1       7.757   7.764  17.571  0.00  0.00    +0.000 C 
ATOM     16  C   UNL     1       6.438   7.122  17.143  0.00  0.00    +0.000 C 
ENDBRANCH   2  16
BRANCH   2  17
ATOM     17  C   UNL     1       7.071   4.670  17.550  0.00  0.00    +0.000 C 
ATOM     18  C   UNL     1       7.112   4.216  16.092  0.00  0.00    +0.000 C 
ENDBRANCH   2  17
ENDBRANCH   1   6
BRANCH   1  19
ATOM     19  C   UNL     1       1.611   9.845  18.546  0.00  0.00    +0.000 C 
BRANCH  19  20
ATOM     20  N   UNL     1       0.245  10.082  18.076  0.00  0.00    +0.000 N 
ATOM     21  C   UNL     1      -0.542  11.056  18.646  0.00  0.00    +0.000 C 
ATOM     22  O   UNL     1      -0.153  11.787  19.550  0.00  0.00    +0.000 OA
ATOM     23  H   UNL     1      -0.061   9.595  17.244  0.00  0.00    +0.000 HD
BRANCH  21  24
ATOM     24  C   UNL     1      -1.925  11.219  18.116  0.00  0.00    +0.000 A 
ATOM     25  C   UNL     1      -2.285  10.785  16.833  0.00  0.00    +0.000 A 
ATOM     26  C   UNL     1      -3.609  10.905  16.407  0.00  0.00    +0.000 A 
ATOM     27  C   UNL     1      -4.563  11.463  17.276  0.00  0.00    +0.000 A 
ATOM     28  C   UNL     1      -4.218  11.898  18.562  0.00  0.00    +0.000 A 
ATOM     29  C   UNL     1      -2.891  11.764  18.974  0.00  0.00    +0.000 A 
BRANCH  26  30
ATOM     30  O   UNL     1      -4.091  10.506  15.185  0.00  0.00    +0.000 OA
ATOM     31  C   UNL     1      -3.123  10.080  14.229  0.00  0.00    +0.000 C 
ENDBRANCH  26  30
BRANCH  27  32
ATOM     32  O   UNL     1      -5.866  11.568  16.856  0.00  0.00    +0.000 OA
ATOM     33  H   UNL     1      -5.825  11.791  15.908  0.00  0.00    +0.000 HD
ENDBRANCH  27  32
BRANCH  28  34
ATOM     34  O   UNL     1      -5.224  12.422  19.330  0.00  0.00    +0.000 OA
ATOM     35  C   UNL     1      -4.917  12.711  20.689  0.00  0.00    +0.000 C 
ENDBRANCH  28  34
ENDBRANCH  21  24
ENDBRANCH  19  20
ENDBRANCH   1  19
TORSDOF 9
ENDMDL
MODEL 2
REMARK VINA RESULT:      -8.5      0.473      2.294
REMARK  Name = 
REMARK  13 active torsions:
REMARK  status: ('A' for Active; 'I' for Inactive)
REMARK    1  A    between atoms: C_1  and  C_2
REMARK    2  A    between atoms: C_2  and  N_3
REMARK    3  A    between atoms: N_3  and  C_4
REMARK    4  A    between atoms: C_4  and  C_5
REMARK    5  A    between atoms: N_9  and  C_10
REMARK    6  A    between atoms: C_10  and  C_11
REMARK    7  A    between atoms: C_11  and  N_12
REMARK    8  A    between atoms: C_13  and  C_15
REMARK    9  A    between atoms: C_17  and  O_18
REMARK   10  A    between atoms: O_18  and  C_19
REMARK   11  A    between atoms: C_20  and  O_21
REMARK   12  A    between atoms: C_22  and  O_23
REMARK   13  A    between atoms: O_23  and  C_24
REMARK                            x       y       z     vdW  Elec       q    Type
REMARK                         _______ _______ _______ _____ _____    ______ ____
ROOT
ATOM      1  C   UNL     1       2.418   8.700  17.833  0.00  0.00    +0.000 C 
ENDROOT
BRANCH   1   6
ATOM      2  N   UNL     1       6.257   5.788  17.507  0.00  0.00    +0.000 N 
ATOM      3  C   UNL     1       5.096   5.638  18.237  0.00  0.00    +0.000 A 
ATOM      4  N   UNL     1       4.193   6.614  18.182  0.00  0.00    +0.000 NA
ATOM      5  C   UNL     1       2.990   6.444  18.744  0.00  0.00    +0.000 A 
ATOM      6  N   UNL     1       2.130   7.530  18.673  0.00  0.00    +0.000 N 
ATOM      7  C   UNL     1       2.662   5.253  19.426  0.00  0.00    +0.000 A 
ATOM      8  C   UNL     1       1.423   4.903  20.042  0.00  0.00    +0.000 A 
ATOM      9  C   UNL     1       1.259   3.689  20.721  0.00  0.00    +0.000 A 
ATOM     10  C   UNL     1       2.319   2.804  20.807  0.00  0.00    +0.000 A 
ATOM     11  C   UNL     1       3.522   3.132  20.192  0.00  0.00    +0.000 A 
ATOM     12  C   UNL     1       3.712   4.317  19.501  0.00  0.00    +0.000 A 
ATOM     13  N   UNL     1       4.890   4.512  18.913  0.00  0.00    +0.000 NA
ATOM     14  H   UNL     1       1.170   7.395  18.947  0.00  0.00    +0.000 HD
BRANCH   2  16
ATOM     15  C   UNL     1       7.641   7.876  17.553  0.00  0.00    +0.000 C 
ATOM     16  C   UNL     1       6.540   7.072  16.865  0.00  0.00    +0.000 C 
ENDBRANCH   2  16
BRANCH   2  17
ATOM     17  C   UNL     1       7.077   4.600  17.288  0.00  0.00    +0.000 C 
ATOM     18  C   UNL     1       6.849   3.977  15.912  0.00  0.00    +0.000 C 
ENDBRANCH   2  17
ENDBRANCH   1   6
BRANCH   1  19
ATOM     19  C   UNL     1       1.879  10.030  18.397  0.00  0.00    +0.000 C 
BRANCH  19  20
ATOM     20  N   UNL     1       0.502  10.296  17.977  0.00  0.00    +0.000 N 
ATOM     21  C   UNL     1      -0.490  10.521  18.903  0.00  0.00    +0.000 C 
ATOM     22  O   UNL     1      -0.287  10.535  20.112  0.00  0.00    +0.000 OA
ATOM     23  H   UNL     1       0.325  10.427  16.990  0.00  0.00    +0.000 HD
BRANCH  21  24
ATOM     24  C   UNL     1      -1.867  10.767  18.389  0.00  0.00    +0.000 A 
ATOM     25  C   UNL     1      -2.771  11.602  19.058  0.00  0.00    +0.000 A 
ATOM     26  C   UNL     1      -4.028  11.849  18.503  0.00  0.00    +0.000 A 
ATOM     27  C   UNL     1      -4.367  11.253  17.276  0.00  0.00    +0.000 A 
ATOM     28  C   UNL     1      -3.471  10.419  16.594  0.00  0.00    +0.000 A 
ATOM     29  C   UNL     1      -2.216  10.189  17.160  0.00  0.00    +0.000 A 
BRANCH  26  30
ATOM     30  O   UNL     1      -4.996  12.656  19.050  0.00  0.00    +0.000 OA
ATOM     31  C   UNL     1      -5.822  12.067  20.051  0.00  0.00    +0.000 C 
ENDBRANCH  26  30
BRANCH  27  32
ATOM     32  O   UNL     1      -5.601  11.508  16.728  0.00  0.00    +0.000 OA
ATOM     33  H   UNL     1      -5.576  12.436  16.433  0.00  0.00    +0.000 HD
ENDBRANCH  27  32
BRANCH  28  34
ATOM     34  O   UNL     1      -3.898   9.892  15.403  0.00  0.00    +0.000 OA
ATOM     35  C   UNL     1      -3.121  10.189  14.249  0.00  0.00    +0.000 C 
ENDBRANCH  28  34
ENDBRANCH  21  24
ENDBRANCH  19  20
ENDBRANCH   1  19
TORSDOF 9
ENDMDL
MODEL 3
REMARK VINA RESULT:      -8.2      0.952      2.444
REMARK  Name = 
REMARK  13 active torsions:
REMARK  status: ('A' for Active; 'I' for Inactive)
REMARK    1  A    between atoms: C_1  and  C_2
REMARK    2  A    between atoms: C_2  and  N_3
REMARK    3  A    between atoms: N_3  and  C_4
REMARK    4  A    between atoms: C_4  and  C_5
REMARK    5  A    between atoms: N_9  and  C_10
REMARK    6  A    between atoms: C_10  and  C_11
REMARK    7  A    between atoms: C_11  and  N_12
REMARK    8  A    between atoms: C_13  and  C_15
REMARK    9  A    between atoms: C_17  and  O_18
REMARK   10  A    between atoms: O_18  and  C_19
REMARK   11  A    between atoms: C_20  and  O_21
REMARK   12  A    between atoms: C_22  and  O_23
REMARK   13  A    between atoms: O_23  and  C_24
REMARK                            x       y       z     vdW  Elec       q    Type
REMARK                         _______ _______ _______ _____ _____    ______ ____
ROOT
ATOM      1  C   UNL     1       2.273   8.542  17.666  0.00  0.00    +0.000 C 
ENDROOT
BRANCH   1   6
ATOM      2  N   UNL     1       6.249   5.801  17.741  0.00  0.00    +0.000 N 
ATOM      3  C   UNL     1       5.046   5.629  18.396  0.00  0.00    +0.000 A 
ATOM      4  N   UNL     1       4.108   6.559  18.234  0.00  0.00    +0.000 NA
ATOM      5  C   UNL     1       2.876   6.358  18.719  0.00  0.00    +0.000 A 
ATOM      6  N   UNL     1       1.977   7.398  18.538  0.00  0.00    +0.000 N 
ATOM      7  C   UNL     1       2.554   5.184  19.433  0.00  0.00    +0.000 A 
ATOM      8  C   UNL     1       1.291   4.805  19.979  0.00  0.00    +0.000 A 
ATOM      9  C   UNL     1       1.132   3.616  20.701  0.00  0.00    +0.000 A 
ATOM     10  C   UNL     1       2.221   2.786  20.901  0.00  0.00    +0.000 A 
ATOM     11  C   UNL     1       3.449   3.142  20.355  0.00  0.00    +0.000 A 
ATOM     12  C   UNL     1       3.635   4.302  19.624  0.00  0.00    +0.000 A 
ATOM     13  N   UNL     1       4.842   4.526  19.110  0.00  0.00    +0.000 NA
ATOM     14  H   UNL     1       1.007   7.231  18.752  0.00  0.00    +0.000 HD
BRANCH   2  16
ATOM     15  C   UNL     1       7.727   7.820  17.616  0.00  0.00    +0.000 C 
ATOM     16  C   UNL     1       6.520   7.067  17.061  0.00  0.00    +0.000 C 
ENDBRANCH   2  16
BRANCH   2  17
ATOM     17  C   UNL     1       7.132   4.644  17.635  0.00  0.00    +0.000 C 
ATOM     18  C   UNL     1       7.312   4.175  16.193  0.00  0.00    +0.000 C 
ENDBRANCH   2  17
ENDBRANCH   1   6
BRANCH   1  19
ATOM     19  C   UNL     1       2.177   9.913  18.367  0.00  0.00    +0.000 C 
BRANCH  19  20
ATOM     20  N   UNL     1       0.835  10.491  18.277  0.00  0.00    +0.000 N 
ATOM     21  C   UNL     1      -0.124  10.208  19.222  0.00  0.00    +0.000 C 
ATOM     22  O   UNL     1       0.084   9.486  20.191  0.00  0.00    +0.000 OA
ATOM     23  H   UNL     1       0.669  11.196  17.571  0.00  0.00    +0.000 HD
BRANCH  21  24
ATOM     24  C   UNL     1      -1.468  10.827  19.044  0.00  0.00    +0.000 A 
ATOM     25  C   UNL     1      -1.996  11.733  19.973  0.00  0.00    +0.000 A 
ATOM     26  C   UNL     1      -3.234  12.332  19.731  0.00  0.00    +0.000 A 
ATOM     27  C   UNL     1      -3.932  12.014  18.552  0.00  0.00    +0.000 A 
ATOM     28  C   UNL     1      -3.413  11.112  17.613  0.00  0.00    +0.000 A 
ATOM     29  C   UNL     1      -2.171  10.529  17.869  0.00  0.00    +0.000 A 
BRANCH  26  30
ATOM     30  O   UNL     1      -3.852  13.243  20.551  0.00  0.00    +0.000 OA
ATOM     31  C   UNL     1      -3.114  14.422  20.860  0.00  0.00    +0.000 C 
ENDBRANCH  26  30
BRANCH  27  32
ATOM     32  O   UNL     1      -5.144  12.614  18.312  0.00  0.00    +0.000 OA
ATOM     33  H   UNL     1      -5.704  12.404  19.082  0.00  0.00    +0.000 HD
ENDBRANCH  27  32
BRANCH  28  34
ATOM     34  O   UNL     1      -4.171  10.876  16.496  0.00  0.00    +0.000 OA
ATOM     35  C   UNL     1      -3.484  10.791  15.254  0.00  0.00    +0.000 C 
ENDBRANCH  28  34
ENDBRANCH  21  24
ENDBRANCH  19  20
ENDBRANCH   1  19
TORSDOF 9
ENDMDL
MODEL 4
REMARK VINA RESULT:      -8.0      3.733     10.021
REMARK  Name = 
REMARK  13 active torsions:
REMARK  status: ('A' for Active; 'I' for Inactive)
REMARK    1  A    between atoms: C_1  and  C_2
REMARK    2  A    between atoms: C_2  and  N_3
REMARK    3  A    between atoms: N_3  and  C_4
REMARK    4  A    between atoms: C_4  and  C_5
REMARK    5  A    between atoms: N_9  and  C_10
REMARK    6  A    between atoms: C_10  and  C_11
REMARK    7  A    between atoms: C_11  and  N_12
REMARK    8  A    between atoms: C_13  and  C_15
REMARK    9  A    between atoms: C_17  and  O_18
REMARK   10  A    between atoms: O_18  and  C_19
REMARK   11  A    between atoms: C_20  and  O_21
REMARK   12  A    between atoms: C_22  and  O_23
REMARK   13  A    between atoms: O_23  and  C_24
REMARK                            x       y       z     vdW  Elec       q    Type
REMARK                         _______ _______ _______ _____ _____    ______ ____
ROOT
ATOM      1  C   UNL     1       0.755   9.336  18.133  0.00  0.00    +0.000 C 
ENDROOT
BRANCH   1   6
ATOM      2  N   UNL     1      -3.703  10.982  17.268  0.00  0.00    +0.000 N 
ATOM      3  C   UNL     1      -2.875  11.203  18.350  0.00  0.00    +0.000 A 
ATOM      4  N   UNL     1      -1.690  10.597  18.364  0.00  0.00    +0.000 NA
ATOM      5  C   UNL     1      -0.794  10.905  19.310  0.00  0.00    +0.000 A 
ATOM      6  N   UNL     1       0.396  10.193  19.270  0.00  0.00    +0.000 N 
ATOM      7  C   UNL     1      -1.090  11.843  20.321  0.00  0.00    +0.000 A 
ATOM      8  C   UNL     1      -0.240  12.304  21.371  0.00  0.00    +0.000 A 
ATOM      9  C   UNL     1      -0.690  13.218  22.331  0.00  0.00    +0.000 A 
ATOM     10  C   UNL     1      -1.991  13.687  22.273  0.00  0.00    +0.000 A 
ATOM     11  C   UNL     1      -2.817  13.256  21.241  0.00  0.00    +0.000 A 
ATOM     12  C   UNL     1      -2.397  12.365  20.268  0.00  0.00    +0.000 A 
ATOM     13  N   UNL     1      -3.256  12.051  19.301  0.00  0.00    +0.000 NA
ATOM     14  H   UNL     1       1.150  10.495  19.866  0.00  0.00    +0.000 HD
BRANCH   2  16
ATOM     15  C   UNL     1      -3.244  10.483  14.856  0.00  0.00    +0.000 C 
ATOM     16  C   UNL     1      -3.342   9.958  16.287  0.00  0.00    +0.000 C 
ENDBRANCH   2  16
BRANCH   2  17
ATOM     17  C   UNL     1      -4.828  11.893  17.080  0.00  0.00    +0.000 C 
ATOM     18  C   UNL     1      -6.113  11.375  17.723  0.00  0.00    +0.000 C 
ENDBRANCH   2  17
ENDBRANCH   1   6
BRANCH   1  19
ATOM     19  C   UNL     1       2.265   9.304  17.817  0.00  0.00    +0.000 C 
BRANCH  19  20
ATOM     20  N   UNL     1       2.836   7.966  17.970  0.00  0.00    +0.000 N 
ATOM     21  C   UNL     1       2.688   7.261  19.142  0.00  0.00    +0.000 C 
ATOM     22  O   UNL     1       2.063   7.689  20.106  0.00  0.00    +0.000 OA
ATOM     23  H   UNL     1       3.239   7.526  17.153  0.00  0.00    +0.000 HD
BRANCH  21  24
ATOM     24  C   UNL     1       3.316   5.912  19.217  0.00  0.00    +0.000 A 
ATOM     25  C   UNL     1       4.650   5.693  18.851  0.00  0.00    +0.000 A 
ATOM     26  C   UNL     1       5.210   4.422  18.997  0.00  0.00    +0.000 A 
ATOM     27  C   UNL     1       4.420   3.378  19.512  0.00  0.00    +0.000 A 
ATOM     28  C   UNL     1       3.085   3.584  19.885  0.00  0.00    +0.000 A 
ATOM     29  C   UNL     1       2.545   4.863  19.738  0.00  0.00    +0.000 A 
BRANCH  26  30
ATOM     30  O   UNL     1       6.504   4.081  18.690  0.00  0.00    +0.000 OA
ATOM     31  C   UNL     1       7.085   4.742  17.569  0.00  0.00    +0.000 C 
ENDBRANCH  26  30
BRANCH  27  32
ATOM     32  O   UNL     1       4.978   2.133  19.665  0.00  0.00    +0.000 OA
ATOM     33  H   UNL     1       5.760   2.117  19.083  0.00  0.00    +0.000 HD
ENDBRANCH  27  32
BRANCH  28  34
ATOM     34  O   UNL     1       2.406   2.502  20.380  0.00  0.00    +0.000 OA
ATOM     35  C   UNL     1       1.410   2.758  21.362  0.00  0.00    +0.000 C 
ENDBRANCH  28  34
ENDBRANCH  21  24
ENDBRANCH  19  20
ENDBRANCH   1  19
TORSDOF 9
ENDMDL
MODEL 5
REMARK VINA RESULT:      -8.0      1.336      1.466
REMARK  Name = 
REMARK  13 active torsions:
REMARK  status: ('A' for Active; 'I' for Inactive)
REMARK    1  A    between atoms: C_1  and  C_2
REMARK    2  A    between atoms: C_2  and  N_3
REMARK    3  A    between atoms: N_3  and  C_4
REMARK    4  A    between atoms: C_4  and  C_5
REMARK    5  A    between atoms: N_9  and  C_10
REMARK    6  A    between atoms: C_10  and  C_11
REMARK    7  A    between atoms: C_11  and  N_12
REMARK    8  A    between atoms: C_13  and  C_15
REMARK    9  A    between atoms: C_17  and  O_18
REMARK   10  A    between atoms: O_18  and  C_19
REMARK   11  A    between atoms: C_20  and  O_21
REMARK   12  A    between atoms: C_22  and  O_23
REMARK   13  A    between atoms: O_23  and  C_24
REMARK                            x       y       z     vdW  Elec       q    Type
REMARK                         _______ _______ _______ _____ _____    ______ ____
ROOT
ATOM      1  C   UNL     1       2.445   8.114  19.080  0.00  0.00    +0.000 C 
ENDROOT
BRANCH   1   6
ATOM      2  N   UNL     1       6.107   5.646  17.124  0.00  0.00    +0.000 N 
ATOM      3  C   UNL     1       4.940   5.185  17.699  0.00  0.00    +0.000 A 
ATOM      4  N   UNL     1       4.096   6.082  18.204  0.00  0.00    +0.000 NA
ATOM      5  C   UNL     1       2.886   5.696  18.627  0.00  0.00    +0.000 A 
ATOM      6  N   UNL     1       2.091   6.692  19.175  0.00  0.00    +0.000 N 
ATOM      7  C   UNL     1       2.491   4.342  18.579  0.00  0.00    +0.000 A 
ATOM      8  C   UNL     1       1.235   3.777  18.954  0.00  0.00    +0.000 A 
ATOM      9  C   UNL     1       1.002   2.399  18.885  0.00  0.00    +0.000 A 
ATOM     10  C   UNL     1       2.008   1.555  18.451  0.00  0.00    +0.000 A 
ATOM     11  C   UNL     1       3.227   2.102  18.066  0.00  0.00    +0.000 A 
ATOM     12  C   UNL     1       3.484   3.462  18.108  0.00  0.00    +0.000 A 
ATOM     13  N   UNL     1       4.671   3.884  17.677  0.00  0.00    +0.000 NA
ATOM     14  H   UNL     1       1.125   6.477  19.367  0.00  0.00    +0.000 HD
BRANCH   2  16
ATOM     15  C   UNL     1       7.811   7.294  17.936  0.00  0.00    +0.000 C 
ATOM     16  C   UNL     1       6.463   7.059  17.257  0.00  0.00    +0.000 C 
ENDBRANCH   2  16
BRANCH   2  17
ATOM     17  C   UNL     1       6.855   4.721  16.278  0.00  0.00    +0.000 C 
ATOM     18  C   UNL     1       6.552   4.911  14.793  0.00  0.00    +0.000 C 
ENDBRANCH   2  17
ENDBRANCH   1   6
BRANCH   1  19
ATOM     19  C   UNL     1       2.102   8.762  17.723  0.00  0.00    +0.000 C 
BRANCH  19  20
ATOM     20  N   UNL     1       0.750   9.322  17.700  0.00  0.00    +0.000 N 
ATOM     21  C   UNL     1       0.436  10.446  18.428  0.00  0.00    +0.000 C 
ATOM     22  O   UNL     1       1.255  11.051  19.112  0.00  0.00    +0.000 OA
ATOM     23  H   UNL     1       0.087   8.933  17.043  0.00  0.00    +0.000 HD
BRANCH  21  24
ATOM     24  C   UNL     1      -0.968  10.940  18.359  0.00  0.00    +0.000 A 
ATOM     25  C   UNL     1      -1.809  10.636  17.280  0.00  0.00    +0.000 A 
ATOM     26  C   UNL     1      -3.136  11.072  17.292  0.00  0.00    +0.000 A 
ATOM     27  C   UNL     1      -3.607  11.812  18.391  0.00  0.00    +0.000 A 
ATOM     28  C   UNL     1      -2.776  12.120  19.477  0.00  0.00    +0.000 A 
ATOM     29  C   UNL     1      -1.455  11.670  19.451  0.00  0.00    +0.000 A 
BRANCH  26  30
ATOM     30  O   UNL     1      -4.062  10.829  16.308  0.00  0.00    +0.000 OA
ATOM     31  C   UNL     1      -3.550  10.444  15.035  0.00  0.00    +0.000 C 
ENDBRANCH  26  30
BRANCH  27  32
ATOM     32  O   UNL     1      -4.915  12.229  18.403  0.00  0.00    +0.000 OA
ATOM     33  H   UNL     1      -5.114  12.461  19.328  0.00  0.00    +0.000 HD
ENDBRANCH  27  32
BRANCH  28  34
ATOM     34  O   UNL     1      -3.335  12.842  20.499  0.00  0.00    +0.000 OA
ATOM     35  C   UNL     1      -2.748  12.701  21.787  0.00  0.00    +0.000 C 
ENDBRANCH  28  34
ENDBRANCH  21  24
ENDBRANCH  19  20
ENDBRANCH   1  19
TORSDOF 9
ENDMDL
MODEL 6
REMARK VINA RESULT:      -8.0      3.527      4.719
REMARK  Name = 
REMARK  13 active torsions:
REMARK  status: ('A' for Active; 'I' for Inactive)
REMARK    1  A    between atoms: C_1  and  C_2
REMARK    2  A    between atoms: C_2  and  N_3
REMARK    3  A    between atoms: N_3  and  C_4
REMARK    4  A    between atoms: C_4  and  C_5
REMARK    5  A    between atoms: N_9  and  C_10
REMARK    6  A    between atoms: C_10  and  C_11
REMARK    7  A    between atoms: C_11  and  N_12
REMARK    8  A    between atoms: C_13  and  C_15
REMARK    9  A    between atoms: C_17  and  O_18
REMARK   10  A    between atoms: O_18  and  C_19
REMARK   11  A    between atoms: C_20  and  O_21
REMARK   12  A    between atoms: C_22  and  O_23
REMARK   13  A    between atoms: O_23  and  C_24
REMARK                            x       y       z     vdW  Elec       q    Type
REMARK                         _______ _______ _______ _____ _____    ______ ____
ROOT
ATOM      1  C   UNL     1       2.605   8.452  18.298  0.00  0.00    +0.000 C 
ENDROOT
BRANCH   1   6
ATOM      2  N   UNL     1       6.374   5.720  17.007  0.00  0.00    +0.000 N 
ATOM      3  C   UNL     1       5.155   5.349  17.539  0.00  0.00    +0.000 A 
ATOM      4  N   UNL     1       4.288   6.310  17.845  0.00  0.00    +0.000 NA
ATOM      5  C   UNL     1       3.041   5.993  18.213  0.00  0.00    +0.000 A 
ATOM      6  N   UNL     1       2.220   7.058  18.553  0.00  0.00    +0.000 N 
ATOM      7  C   UNL     1       2.628   4.647  18.315  0.00  0.00    +0.000 A 
ATOM      8  C   UNL     1       1.335   4.146  18.655  0.00  0.00    +0.000 A 
ATOM      9  C   UNL     1       1.084   2.772  18.753  0.00  0.00    +0.000 A 
ATOM     10  C   UNL     1       2.109   1.871  18.523  0.00  0.00    +0.000 A 
ATOM     11  C   UNL     1       3.365   2.354  18.172  0.00  0.00    +0.000 A 
ATOM     12  C   UNL     1       3.641   3.705  18.052  0.00  0.00    +0.000 A 
ATOM     13  N   UNL     1       4.866   4.058  17.669  0.00  0.00    +0.000 NA
ATOM     14  H   UNL     1       1.238   6.878  18.690  0.00  0.00    +0.000 HD
BRANCH   2  16
ATOM     15  C   UNL     1       7.845   7.506  17.968  0.00  0.00    +0.000 C 
ATOM     16  C   UNL     1       6.742   7.136  16.979  0.00  0.00    +0.000 C 
ENDBRANCH   2  16
BRANCH   2  17
ATOM     17  C   UNL     1       7.173   4.685  16.360  0.00  0.00    +0.000 C 
ATOM     18  C   UNL     1       7.039   4.708  14.839  0.00  0.00    +0.000 C 
ENDBRANCH   2  17
ENDBRANCH   1   6
BRANCH   1  19
ATOM     19  C   UNL     1       1.430   9.372  17.909  0.00  0.00    +0.000 C 
BRANCH  19  20
ATOM     20  N   UNL     1       1.819  10.782  17.860  0.00  0.00    +0.000 N 
ATOM     21  C   UNL     1       1.451  11.654  18.858  0.00  0.00    +0.000 C 
ATOM     22  O   UNL     1       0.806  11.311  19.843  0.00  0.00    +0.000 OA
ATOM     23  H   UNL     1       2.465  11.070  17.137  0.00  0.00    +0.000 HD
BRANCH  21  24
ATOM     24  C   UNL     1       1.877  13.075  18.720  0.00  0.00    +0.000 A 
ATOM     25  C   UNL     1       3.119  13.429  18.176  0.00  0.00    +0.000 A 
ATOM     26  C   UNL     1       3.445  14.777  18.012  0.00  0.00    +0.000 A 
ATOM     27  C   UNL     1       2.518  15.761  18.398  0.00  0.00    +0.000 A 
ATOM     28  C   UNL     1       1.271  15.421  18.940  0.00  0.00    +0.000 A 
ATOM     29  C   UNL     1       0.959  14.068  19.090  0.00  0.00    +0.000 A 
BRANCH  26  30
ATOM     30  O   UNL     1       4.618  15.252  17.480  0.00  0.00    +0.000 OA
ATOM     31  C   UNL     1       5.817  14.618  17.917  0.00  0.00    +0.000 C 
ENDBRANCH  26  30
BRANCH  27  32
ATOM     32  O   UNL     1       2.839  17.084  18.223  0.00  0.00    +0.000 OA
ATOM     33  H   UNL     1       2.450  17.557  18.982  0.00  0.00    +0.000 HD
ENDBRANCH  27  32
BRANCH  28  34
ATOM     34  O   UNL     1       0.440  16.456  19.278  0.00  0.00    +0.000 OA
ATOM     35  C   UNL     1       0.218  16.681  20.665  0.00  0.00    +0.000 C 
ENDBRANCH  28  34
ENDBRANCH  21  24
ENDBRANCH  19  20
ENDBRANCH   1  19
TORSDOF 9
ENDMDL
MODEL 7
REMARK VINA RESULT:      -8.0      3.184      4.614
REMARK  Name = 
REMARK  13 active torsions:
REMARK  status: ('A' for Active; 'I' for Inactive)
REMARK    1  A    between atoms: C_1  and  C_2
REMARK    2  A    between atoms: C_2  and  N_3
REMARK    3  A    between atoms: N_3  and  C_4
REMARK    4  A    between atoms: C_4  and  C_5
REMARK    5  A    between atoms: N_9  and  C_10
REMARK    6  A    between atoms: C_10  and  C_11
REMARK    7  A    between atoms: C_11  and  N_12
REMARK    8  A    between atoms: C_13  and  C_15
REMARK    9  A    between atoms: C_17  and  O_18
REMARK   10  A    between atoms: O_18  and  C_19
REMARK   11  A    between atoms: C_20  and  O_21
REMARK   12  A    between atoms: C_22  and  O_23
REMARK   13  A    between atoms: O_23  and  C_24
REMARK                            x       y       z     vdW  Elec       q    Type
REMARK                         _______ _______ _______ _____ _____    ______ ____
ROOT
ATOM      1  C   UNL     1       2.251   8.581  18.161  0.00  0.00    +0.000 C 
ENDROOT
BRANCH   1   6
ATOM      2  N   UNL     1       6.130   5.743  17.683  0.00  0.00    +0.000 N 
ATOM      3  C   UNL     1       4.982   5.551  18.425  0.00  0.00    +0.000 A 
ATOM      4  N   UNL     1       4.064   6.514  18.415  0.00  0.00    +0.000 NA
ATOM      5  C   UNL     1       2.872   6.306  18.989  0.00  0.00    +0.000 A 
ATOM      6  N   UNL     1       1.994   7.380  18.966  0.00  0.00    +0.000 N 
ATOM      7  C   UNL     1       2.574   5.088  19.637  0.00  0.00    +0.000 A 
ATOM      8  C   UNL     1       1.350   4.699  20.260  0.00  0.00    +0.000 A 
ATOM      9  C   UNL     1       1.215   3.462  20.901  0.00  0.00    +0.000 A 
ATOM     10  C   UNL     1       2.290   2.592  20.942  0.00  0.00    +0.000 A 
ATOM     11  C   UNL     1       3.478   2.958  20.320  0.00  0.00    +0.000 A 
ATOM     12  C   UNL     1       3.639   4.167  19.665  0.00  0.00    +0.000 A 
ATOM     13  N   UNL     1       4.805   4.400  19.067  0.00  0.00    +0.000 NA
ATOM     14  H   UNL     1       1.040   7.220  19.250  0.00  0.00    +0.000 HD
BRANCH   2  16
ATOM     15  C   UNL     1       7.662   7.723  17.574  0.00  0.00    +0.000 C 
ATOM     16  C   UNL     1       6.383   7.052  17.079  0.00  0.00    +0.000 C 
ENDBRANCH   2  16
BRANCH   2  17
ATOM     17  C   UNL     1       6.964   4.576  17.413  0.00  0.00    +0.000 C 
ATOM     18  C   UNL     1       7.034   4.237  15.925  0.00  0.00    +0.000 C 
ENDBRANCH   2  17
ENDBRANCH   1   6
BRANCH   1  19
ATOM     19  C   UNL     1       1.089   9.595  18.151  0.00  0.00    +0.000 C 
BRANCH  19  20
ATOM     20  N   UNL     1       1.558  10.978  18.066  0.00  0.00    +0.000 N 
ATOM     21  C   UNL     1       1.061  11.949  18.904  0.00  0.00    +0.000 C 
ATOM     22  O   UNL     1       0.226  11.720  19.772  0.00  0.00    +0.000 OA
ATOM     23  H   UNL     1       2.342  11.176  17.458  0.00  0.00    +0.000 HD
BRANCH  21  24
ATOM     24  C   UNL     1       1.583  13.334  18.738  0.00  0.00    +0.000 A 
ATOM     25  C   UNL     1       2.843  13.591  18.181  0.00  0.00    +0.000 A 
ATOM     26  C   UNL     1       3.262  14.909  17.990  0.00  0.00    +0.000 A 
ATOM     27  C   UNL     1       2.408  15.962  18.364  0.00  0.00    +0.000 A 
ATOM     28  C   UNL     1       1.144  15.720  18.919  0.00  0.00    +0.000 A 
ATOM     29  C   UNL     1       0.740  14.395  19.095  0.00  0.00    +0.000 A 
BRANCH  26  30
ATOM     30  O   UNL     1       4.461  15.293  17.444  0.00  0.00    +0.000 OA
ATOM     31  C   UNL     1       5.636  14.832  18.105  0.00  0.00    +0.000 C 
ENDBRANCH  26  30
BRANCH  27  32
ATOM     32  O   UNL     1       2.819  17.257  18.164  0.00  0.00    +0.000 OA
ATOM     33  H   UNL     1       2.389  17.786  18.860  0.00  0.00    +0.000 HD
ENDBRANCH  27  32
BRANCH  28  34
ATOM     34  O   UNL     1       0.389  16.816  19.242  0.00  0.00    +0.000 OA
ATOM     35  C   UNL     1       0.234  17.110  20.626  0.00  0.00    +0.000 C 
ENDBRANCH  28  34
ENDBRANCH  21  24
ENDBRANCH  19  20
ENDBRANCH   1  19
TORSDOF 9
ENDMDL
MODEL 8
REMARK VINA RESULT:      -8.0      1.403      4.281
REMARK  Name = 
REMARK  13 active torsions:
REMARK  status: ('A' for Active; 'I' for Inactive)
REMARK    1  A    between atoms: C_1  and  C_2
REMARK    2  A    between atoms: C_2  and  N_3
REMARK    3  A    between atoms: N_3  and  C_4
REMARK    4  A    between atoms: C_4  and  C_5
REMARK    5  A    between atoms: N_9  and  C_10
REMARK    6  A    between atoms: C_10  and  C_11
REMARK    7  A    between atoms: C_11  and  N_12
REMARK    8  A    between atoms: C_13  and  C_15
REMARK    9  A    between atoms: C_17  and  O_18
REMARK   10  A    between atoms: O_18  and  C_19
REMARK   11  A    between atoms: C_20  and  O_21
REMARK   12  A    between atoms: C_22  and  O_23
REMARK   13  A    between atoms: O_23  and  C_24
REMARK                            x       y       z     vdW  Elec       q    Type
REMARK                         _______ _______ _______ _____ _____    ______ ____
ROOT
ATOM      1  C   UNL     1       2.470   8.130  18.329  0.00  0.00    +0.000 C 
ENDROOT
BRANCH   1   6
ATOM      2  N   UNL     1       3.281   3.587  19.757  0.00  0.00    +0.000 N 
ATOM      3  C   UNL     1       3.698   4.241  18.615  0.00  0.00    +0.000 A 
ATOM      4  N   UNL     1       3.305   5.500  18.437  0.00  0.00    +0.000 NA
ATOM      5  C   UNL     1       3.810   6.222  17.429  0.00  0.00    +0.000 A 
ATOM      6  N   UNL     1       3.312   7.509  17.298  0.00  0.00    +0.000 N 
ATOM      7  C   UNL     1       4.737   5.664  16.523  0.00  0.00    +0.000 A 
ATOM      8  C   UNL     1       5.391   6.304  15.427  0.00  0.00    +0.000 A 
ATOM      9  C   UNL     1       6.265   5.605  14.586  0.00  0.00    +0.000 A 
ATOM     10  C   UNL     1       6.500   4.260  14.809  0.00  0.00    +0.000 A 
ATOM     11  C   UNL     1       5.881   3.637  15.886  0.00  0.00    +0.000 A 
ATOM     12  C   UNL     1       5.024   4.304  16.746  0.00  0.00    +0.000 A 
ATOM     13  N   UNL     1       4.517   3.622  17.771  0.00  0.00    +0.000 NA
ATOM     14  H   UNL     1       3.769   8.133  16.651  0.00  0.00    +0.000 HD
BRANCH   2  16
ATOM     15  C   UNL     1       0.871   3.670  20.436  0.00  0.00    +0.000 C 
ATOM     16  C   UNL     1       2.284   4.219  20.621  0.00  0.00    +0.000 C 
ENDBRANCH   2  16
BRANCH   2  17
ATOM     17  C   UNL     1       3.975   2.356  20.123  0.00  0.00    +0.000 C 
ATOM     18  C   UNL     1       3.672   1.207  19.163  0.00  0.00    +0.000 C 
ENDBRANCH   2  17
ENDBRANCH   1   6
BRANCH   1  19
ATOM     19  C   UNL     1       2.209   9.634  18.111  0.00  0.00    +0.000 C 
BRANCH  19  20
ATOM     20  N   UNL     1       0.817   9.911  17.753  0.00  0.00    +0.000 N 
ATOM     21  C   UNL     1      -0.088  10.331  18.701  0.00  0.00    +0.000 C 
ATOM     22  O   UNL     1       0.210  10.517  19.876  0.00  0.00    +0.000 OA
ATOM     23  H   UNL     1       0.568   9.901  16.773  0.00  0.00    +0.000 HD
BRANCH  21  24
ATOM     24  C   UNL     1      -1.489  10.575  18.253  0.00  0.00    +0.000 A 
ATOM     25  C   UNL     1      -2.355  11.422  18.955  0.00  0.00    +0.000 A 
ATOM     26  C   UNL     1      -3.638  11.666  18.461  0.00  0.00    +0.000 A 
ATOM     27  C   UNL     1      -4.041  11.052  17.261  0.00  0.00    +0.000 A 
ATOM     28  C   UNL     1      -3.182  10.205  16.547  0.00  0.00    +0.000 A 
ATOM     29  C   UNL     1      -1.901   9.979  17.053  0.00  0.00    +0.000 A 
BRANCH  26  30
ATOM     30  O   UNL     1      -4.574  12.484  19.044  0.00  0.00    +0.000 OA
ATOM     31  C   UNL     1      -4.598  12.507  20.469  0.00  0.00    +0.000 C 
ENDBRANCH  26  30
BRANCH  27  32
ATOM     32  O   UNL     1      -5.299  11.304  16.773  0.00  0.00    +0.000 OA
ATOM     33  H   UNL     1      -5.835  10.522  16.999  0.00  0.00    +0.000 HD
ENDBRANCH  27  32
BRANCH  28  34
ATOM     34  O   UNL     1      -3.671   9.663  15.388  0.00  0.00    +0.000 OA
ATOM     35  C   UNL     1      -3.057  10.076  14.172  0.00  0.00    +0.000 C 
ENDBRANCH  28  34
ENDBRANCH  21  24
ENDBRANCH  19  20
ENDBRANCH   1  19
TORSDOF 9
ENDMDL
MODEL 9
REMARK VINA RESULT:      -8.0      1.446      3.710
REMARK  Name = 
REMARK  13 active torsions:
REMARK  status: ('A' for Active; 'I' for Inactive)
REMARK    1  A    between atoms: C_1  and  C_2
REMARK    2  A    between atoms: C_2  and  N_3
REMARK    3  A    between atoms: N_3  and  C_4
REMARK    4  A    between atoms: C_4  and  C_5
REMARK    5  A    between atoms: N_9  and  C_10
REMARK    6  A    between atoms: C_10  and  C_11
REMARK    7  A    between atoms: C_11  and  N_12
REMARK    8  A    between atoms: C_13  and  C_15
REMARK    9  A    between atoms: C_17  and  O_18
REMARK   10  A    between atoms: O_18  and  C_19
REMARK   11  A    between atoms: C_20  and  O_21
REMARK   12  A    between atoms: C_22  and  O_23
REMARK   13  A    between atoms: O_23  and  C_24
REMARK                            x       y       z     vdW  Elec       q    Type
REMARK                         _______ _______ _______ _____ _____    ______ ____
ROOT
ATOM      1  C   UNL     1       2.389   7.899  18.392  0.00  0.00    +0.000 C 
ENDROOT
BRANCH   1   6
ATOM      2  N   UNL     1       2.925   3.206  19.403  0.00  0.00    +0.000 N 
ATOM      3  C   UNL     1       3.455   3.953  18.370  0.00  0.00    +0.000 A 
ATOM      4  N   UNL     1       3.121   5.239  18.292  0.00  0.00    +0.000 NA
ATOM      5  C   UNL     1       3.731   6.036  17.407  0.00  0.00    +0.000 A 
ATOM      6  N   UNL     1       3.289   7.350  17.370  0.00  0.00    +0.000 N 
ATOM      7  C   UNL     1       4.709   5.533  16.522  0.00  0.00    +0.000 A 
ATOM      8  C   UNL     1       5.471   6.251  15.551  0.00  0.00    +0.000 A 
ATOM      9  C   UNL     1       6.385   5.603  14.713  0.00  0.00    +0.000 A 
ATOM     10  C   UNL     1       6.556   4.234  14.813  0.00  0.00    +0.000 A 
ATOM     11  C   UNL     1       5.830   3.533  15.770  0.00  0.00    +0.000 A 
ATOM     12  C   UNL     1       4.930   4.146  16.624  0.00  0.00    +0.000 A 
ATOM     13  N   UNL     1       4.318   3.387  17.531  0.00  0.00    +0.000 NA
ATOM     14  H   UNL     1       3.819   8.015  16.829  0.00  0.00    +0.000 HD
BRANCH   2  16
ATOM     15  C   UNL     1       0.501   3.176  20.036  0.00  0.00    +0.000 C 
ATOM     16  C   UNL     1       1.883   3.790  20.247  0.00  0.00    +0.000 C 
ENDBRANCH   2  16
BRANCH   2  17
ATOM     17  C   UNL     1       3.544   1.917  19.692  0.00  0.00    +0.000 C 
ATOM     18  C   UNL     1       4.751   2.042  20.619  0.00  0.00    +0.000 C 
ENDBRANCH   2  17
ENDBRANCH   1   6
BRANCH   1  19
ATOM     19  C   UNL     1       2.141   9.416  18.267  0.00  0.00    +0.000 C 
BRANCH  19  20
ATOM     20  N   UNL     1       0.787   9.723  17.804  0.00  0.00    +0.000 N 
ATOM     21  C   UNL     1      -0.114  10.366  18.621  0.00  0.00    +0.000 C 
ATOM     22  O   UNL     1       0.160  10.735  19.759  0.00  0.00    +0.000 OA
ATOM     23  H   UNL     1       0.570   9.557  16.830  0.00  0.00    +0.000 HD
BRANCH  21  24
ATOM     24  C   UNL     1      -1.476  10.624  18.075  0.00  0.00    +0.000 A 
ATOM     25  C   UNL     1      -1.908  10.065  16.865  0.00  0.00    +0.000 A 
ATOM     26  C   UNL     1      -3.215  10.288  16.427  0.00  0.00    +0.000 A 
ATOM     27  C   UNL     1      -4.078  11.075  17.210  0.00  0.00    +0.000 A 
ATOM     28  C   UNL     1      -3.659  11.637  18.424  0.00  0.00    +0.000 A 
ATOM     29  C   UNL     1      -2.352  11.397  18.849  0.00  0.00    +0.000 A 
BRANCH  26  30
ATOM     30  O   UNL     1      -3.764   9.787  15.272  0.00  0.00    +0.000 OA
ATOM     31  C   UNL     1      -3.073  10.082  14.061  0.00  0.00    +0.000 C 
ENDBRANCH  26  30
BRANCH  27  32
ATOM     32  O   UNL     1      -5.366  11.282  16.780  0.00  0.00    +0.000 OA
ATOM     33  H   UNL     1      -5.803  11.798  17.482  0.00  0.00    +0.000 HD
ENDBRANCH  27  32
BRANCH  28  34
ATOM     34  O   UNL     1      -4.580  12.382  19.112  0.00  0.00    +0.000 OA
ATOM     35  C   UNL     1      -4.282  12.686  20.469  0.00  0.00    +0.000 C 
ENDBRANCH  28  34
ENDBRANCH  21  24
ENDBRANCH  19  20
ENDBRANCH   1  19
TORSDOF 9
ENDMDL
