MODEL 1
REMARK VINA RESULT:      -7.2      0.000      0.000
REMARK  Name = 
REMARK  8 active torsions:
REMARK  status: ('A' for Active; 'I' for Inactive)
REMARK    1  A    between atoms: C_1  and  C_2
REMARK    2  A    between atoms: C_2  and  C_3
REMARK    3  A    between atoms: C_4  and  C_5
REMARK    4  A    between atoms: N_8  and  S_9
REMARK    5  A    between atoms: S_9  and  C_12
REMARK    6  A    between atoms: C_16  and  C_17
REMARK    7  A    between atoms: C_17  and  O_19
REMARK    8  A    between atoms: O_19  and  C_20
REMARK                            x       y       z     vdW  Elec       q    Type
REMARK                         _______ _______ _______ _____ _____    ______ ____
ROOT
ATOM      1  S   UNL     1       3.608   5.119  17.952  0.00  0.00    +0.000 S 
ATOM      2  O   UNL     1       3.518   4.148  16.882  0.00  0.00    +0.000 OA
ATOM      3  O   UNL     1       2.950   6.400  17.833  0.00  0.00    +0.000 OA
ENDROOT
BRANCH   1   9
ATOM      4  C   UNL     1       2.259   3.096  19.209  0.00  0.00    +0.000 C 
ATOM      5  C   UNL     1       1.219   3.152  20.353  0.00  0.00    +0.000 C 
ATOM      6  C   UNL     1       1.667   2.578  21.704  0.00  0.00    +0.000 C 
ATOM      7  C   UNL     1       0.983   4.651  20.465  0.00  0.00    +0.000 C 
ATOM      8  C   UNL     1       2.388   5.221  20.364  0.00  0.00    +0.000 C 
ATOM      9  N   UNL     1       3.105   4.341  19.396  0.00  0.00    +0.000 NA
BRANCH   4  11
ATOM     10  C   UNL     1       4.480   2.020  19.836  0.00  0.00    +0.000 C 
ATOM     11  C   UNL     1       3.113   1.823  19.184  0.00  0.00    +0.000 C 
ENDBRANCH   4  11
ENDBRANCH   1   9
BRANCH   1  12
ATOM     12  C   UNL     1       5.304   5.446  18.048  0.00  0.00    +0.000 A 
ATOM     13  C   UNL     1       5.972   5.310  19.253  0.00  0.00    +0.000 A 
ATOM     14  S   UNL     1       7.617   5.661  19.020  0.00  0.00    +0.000 S 
ATOM     15  N   UNL     1       7.488   5.974  17.411  0.00  0.00    +0.000 NA
ATOM     16  C   UNL     1       6.218   5.812  16.991  0.00  0.00    +0.000 A 
BRANCH  16  17
ATOM     17  C   UNL     1       5.962   6.055  15.556  0.00  0.00    +0.000 C 
ATOM     18  O   UNL     1       5.149   6.858  15.116  0.00  0.00    +0.000 OA
BRANCH  17  19
ATOM     19  O   UNL     1       6.811   5.333  14.759  0.00  0.00    +0.000 OA
ATOM     20  C   UNL     1       6.365   4.031  14.378  0.00  0.00    +0.000 C 
ENDBRANCH  17  19
ENDBRANCH  16  17
ENDBRANCH   1  12
TORSDOF 5
ENDMDL
MODEL 2
REMARK VINA RESULT:      -6.9      2.494      3.393
REMARK  Name = 
REMARK  8 active torsions:
REMARK  status: ('A' for Active; 'I' for Inactive)
REMARK    1  A    between atoms: C_1  and  C_2
REMARK    2  A    between atoms: C_2  and  C_3
REMARK    3  A    between atoms: C_4  and  C_5
REMARK    4  A    between atoms: N_8  and  S_9
REMARK    5  A    between atoms: S_9  and  C_12
REMARK    6  A    between atoms: C_16  and  C_17
REMARK    7  A    between atoms: C_17  and  O_19
REMARK    8  A    between atoms: O_19  and  C_20
REMARK                            x       y       z     vdW  Elec       q    Type
REMARK                         _______ _______ _______ _____ _____    ______ ____
ROOT
ATOM      1  S   UNL     1       5.189   4.536  18.943  0.00  0.00    +0.000 S 
ATOM      2  O   UNL     1       4.863   5.873  19.394  0.00  0.00    +0.000 OA
ATOM      3  O   UNL     1       6.148   3.735  19.668  0.00  0.00    +0.000 OA
ENDROOT
BRANCH   1   9
ATOM      4  C   UNL     1       2.459   4.452  19.131  0.00  0.00    +0.000 C 
ATOM      5  C   UNL     1       1.539   3.425  19.832  0.00  0.00    +0.000 C 
ATOM      6  C   UNL     1       0.678   2.549  18.913  0.00  0.00    +0.000 C 
ATOM      7  C   UNL     1       2.559   2.573  20.574  0.00  0.00    +0.000 C 
ATOM      8  C   UNL     1       3.657   2.388  19.540  0.00  0.00    +0.000 C 
ATOM      9  N   UNL     1       3.714   3.673  18.785  0.00  0.00    +0.000 NA
BRANCH   4  11
ATOM     10  C   UNL     1       2.157   6.614  17.818  0.00  0.00    +0.000 C 
ATOM     11  C   UNL     1       1.844   5.121  17.895  0.00  0.00    +0.000 C 
ENDBRANCH   4  11
ENDBRANCH   1   9
BRANCH   1  12
ATOM     12  C   UNL     1       5.859   4.801  17.371  0.00  0.00    +0.000 A 
ATOM     13  C   UNL     1       5.389   4.085  16.284  0.00  0.00    +0.000 A 
ATOM     14  S   UNL     1       6.209   4.591  14.887  0.00  0.00    +0.000 S 
ATOM     15  N   UNL     1       7.145   5.710  15.646  0.00  0.00    +0.000 NA
ATOM     16  C   UNL     1       6.865   5.755  16.963  0.00  0.00    +0.000 A 
BRANCH  16  17
ATOM     17  C   UNL     1       7.632   6.729  17.767  0.00  0.00    +0.000 C 
ATOM     18  O   UNL     1       8.113   6.501  18.871  0.00  0.00    +0.000 OA
BRANCH  17  19
ATOM     19  O   UNL     1       7.824   7.906  17.093  0.00  0.00    +0.000 OA
ATOM     20  C   UNL     1       8.045   9.065  17.898  0.00  0.00    +0.000 C 
ENDBRANCH  17  19
ENDBRANCH  16  17
ENDBRANCH   1  12
TORSDOF 5
ENDMDL
MODEL 3
REMARK VINA RESULT:      -6.8      2.308      3.418
REMARK  Name = 
REMARK  8 active torsions:
REMARK  status: ('A' for Active; 'I' for Inactive)
REMARK    1  A    between atoms: C_1  and  C_2
REMARK    2  A    between atoms: C_2  and  C_3
REMARK    3  A    between atoms: C_4  and  C_5
REMARK    4  A    between atoms: N_8  and  S_9
REMARK    5  A    between atoms: S_9  and  C_12
REMARK    6  A    between atoms: C_16  and  C_17
REMARK    7  A    between atoms: C_17  and  O_19
REMARK    8  A    between atoms: O_19  and  C_20
REMARK                            x       y       z     vdW  Elec       q    Type
REMARK                         _______ _______ _______ _____ _____    ______ ____
ROOT
ATOM      1  S   UNL     1       4.926   4.745  18.651  0.00  0.00    +0.000 S 
ATOM      2  O   UNL     1       4.559   6.101  19.000  0.00  0.00    +0.000 OA
ATOM      3  O   UNL     1       5.795   3.979  19.515  0.00  0.00    +0.000 OA
ENDROOT
BRANCH   1   9
ATOM      4  C   UNL     1       2.535   3.769  19.558  0.00  0.00    +0.000 C 
ATOM      5  C   UNL     1       1.938   2.344  19.461  0.00  0.00    +0.000 C 
ATOM      6  C   UNL     1       0.716   2.183  18.548  0.00  0.00    +0.000 C 
ATOM      7  C   UNL     1       3.122   1.566  18.906  0.00  0.00    +0.000 C 
ATOM      8  C   UNL     1       3.664   2.496  17.834  0.00  0.00    +0.000 C 
ATOM      9  N   UNL     1       3.474   3.875  18.371  0.00  0.00    +0.000 NA
BRANCH   4  11
ATOM     10  C   UNL     1       1.602   5.783  20.805  0.00  0.00    +0.000 C 
ATOM     11  C   UNL     1       1.496   4.897  19.566  0.00  0.00    +0.000 C 
ENDBRANCH   4  11
ENDBRANCH   1   9
BRANCH   1  12
ATOM     12  C   UNL     1       5.768   4.935  17.153  0.00  0.00    +0.000 A 
ATOM     13  C   UNL     1       5.384   4.206  16.040  0.00  0.00    +0.000 A 
ATOM     14  S   UNL     1       6.367   4.637  14.725  0.00  0.00    +0.000 S 
ATOM     15  N   UNL     1       7.265   5.739  15.550  0.00  0.00    +0.000 NA
ATOM     16  C   UNL     1       6.851   5.835  16.829  0.00  0.00    +0.000 A 
BRANCH  16  17
ATOM     17  C   UNL     1       7.571   6.800  17.684  0.00  0.00    +0.000 C 
ATOM     18  O   UNL     1       8.059   6.540  18.777  0.00  0.00    +0.000 OA
BRANCH  17  19
ATOM     19  O   UNL     1       7.711   8.018  17.071  0.00  0.00    +0.000 OA
ATOM     20  C   UNL     1       8.158   9.093  17.897  0.00  0.00    +0.000 C 
ENDBRANCH  17  19
ENDBRANCH  16  17
ENDBRANCH   1  12
TORSDOF 5
ENDMDL
MODEL 4
REMARK VINA RESULT:      -6.3      0.695      1.134
REMARK  Name = 
REMARK  8 active torsions:
REMARK  status: ('A' for Active; 'I' for Inactive)
REMARK    1  A    between atoms: C_1  and  C_2
REMARK    2  A    between atoms: C_2  and  C_3
REMARK    3  A    between atoms: C_4  and  C_5
REMARK    4  A    between atoms: N_8  and  S_9
REMARK    5  A    between atoms: S_9  and  C_12
REMARK    6  A    between atoms: C_16  and  C_17
REMARK    7  A    between atoms: C_17  and  O_19
REMARK    8  A    between atoms: O_19  and  C_20
REMARK                            x       y       z     vdW  Elec       q    Type
REMARK                         _______ _______ _______ _____ _____    ______ ____
ROOT
ATOM      1  S   UNL     1       3.727   4.969  18.008  0.00  0.00    +0.000 S 
ATOM      2  O   UNL     1       3.559   4.009  16.937  0.00  0.00    +0.000 OA
ATOM      3  O   UNL     1       3.193   6.305  17.880  0.00  0.00    +0.000 OA
ENDROOT
BRANCH   1   9
ATOM      4  C   UNL     1       2.287   3.002  19.252  0.00  0.00    +0.000 C 
ATOM      5  C   UNL     1       1.187   3.105  20.335  0.00  0.00    +0.000 C 
ATOM      6  C   UNL     1       1.553   2.572  21.727  0.00  0.00    +0.000 C 
ATOM      7  C   UNL     1       0.962   4.609  20.385  0.00  0.00    +0.000 C 
ATOM      8  C   UNL     1       2.376   5.161  20.344  0.00  0.00    +0.000 C 
ATOM      9  N   UNL     1       3.136   4.244  19.446  0.00  0.00    +0.000 NA
BRANCH   4  11
ATOM     10  C   UNL     1       4.507   1.952  19.929  0.00  0.00    +0.000 C 
ATOM     11  C   UNL     1       3.128   1.720  19.316  0.00  0.00    +0.000 C 
ENDBRANCH   4  11
ENDBRANCH   1   9
BRANCH   1  12
ATOM     12  C   UNL     1       5.444   5.137  18.124  0.00  0.00    +0.000 A 
ATOM     13  C   UNL     1       6.035   5.427  19.343  0.00  0.00    +0.000 A 
ATOM     14  S   UNL     1       7.719   5.491  19.144  0.00  0.00    +0.000 S 
ATOM     15  N   UNL     1       7.705   5.147  17.536  0.00  0.00    +0.000 NA
ATOM     16  C   UNL     1       6.444   4.958  17.097  0.00  0.00    +0.000 A 
BRANCH  16  17
ATOM     17  C   UNL     1       6.287   4.632  15.665  0.00  0.00    +0.000 C 
ATOM     18  O   UNL     1       6.110   3.506  15.218  0.00  0.00    +0.000 OA
BRANCH  17  19
ATOM     19  O   UNL     1       6.275   5.759  14.886  0.00  0.00    +0.000 OA
ATOM     20  C   UNL     1       5.217   6.686  15.133  0.00  0.00    +0.000 C 
ENDBRANCH  17  19
ENDBRANCH  16  17
ENDBRANCH   1  12
TORSDOF 5
ENDMDL
MODEL 5
REMARK VINA RESULT:      -6.2      2.459      3.765
REMARK  Name = 
REMARK  8 active torsions:
REMARK  status: ('A' for Active; 'I' for Inactive)
REMARK    1  A    between atoms: C_1  and  C_2
REMARK    2  A    between atoms: C_2  and  C_3
REMARK    3  A    between atoms: C_4  and  C_5
REMARK    4  A    between atoms: N_8  and  S_9
REMARK    5  A    between atoms: S_9  and  C_12
REMARK    6  A    between atoms: C_16  and  C_17
REMARK    7  A    between atoms: C_17  and  O_19
REMARK    8  A    between atoms: O_19  and  C_20
REMARK                            x       y       z     vdW  Elec       q    Type
REMARK                         _______ _______ _______ _____ _____    ______ ____
ROOT
ATOM      1  S   UNL     1       4.436   3.879  18.249  0.00  0.00    +0.000 S 
ATOM      2  O   UNL     1       5.405   3.378  19.201  0.00  0.00    +0.000 OA
ATOM      3  O   UNL     1       3.331   3.049  17.827  0.00  0.00    +0.000 OA
ENDROOT
BRANCH   1   9
ATOM      4  C   UNL     1       2.338   5.459  19.019  0.00  0.00    +0.000 C 
ATOM      5  C   UNL     1       1.984   6.910  18.618  0.00  0.00    +0.000 C 
ATOM      6  C   UNL     1       2.112   7.969  19.722  0.00  0.00    +0.000 C 
ATOM      7  C   UNL     1       2.999   7.168  17.515  0.00  0.00    +0.000 C 
ATOM      8  C   UNL     1       4.275   6.574  18.087  0.00  0.00    +0.000 C 
ATOM      9  N   UNL     1       3.844   5.370  18.855  0.00  0.00    +0.000 NA
BRANCH   4  11
ATOM     10  C   UNL     1       0.991   3.828  20.438  0.00  0.00    +0.000 C 
ATOM     11  C   UNL     1       1.894   5.060  20.432  0.00  0.00    +0.000 C 
ENDBRANCH   4  11
ENDBRANCH   1   9
BRANCH   1  12
ATOM     12  C   UNL     1       5.388   4.182  16.837  0.00  0.00    +0.000 A 
ATOM     13  C   UNL     1       4.803   4.148  15.583  0.00  0.00    +0.000 A 
ATOM     14  S   UNL     1       5.975   4.520  14.412  0.00  0.00    +0.000 S 
ATOM     15  N   UNL     1       7.208   4.729  15.480  0.00  0.00    +0.000 NA
ATOM     16  C   UNL     1       6.783   4.545  16.745  0.00  0.00    +0.000 A 
BRANCH  16  17
ATOM     17  C   UNL     1       7.794   4.711  17.810  0.00  0.00    +0.000 C 
ATOM     18  O   UNL     1       8.739   3.957  18.002  0.00  0.00    +0.000 OA
BRANCH  17  19
ATOM     19  O   UNL     1       7.602   5.870  18.516  0.00  0.00    +0.000 OA
ATOM     20  C   UNL     1       7.907   5.816  19.910  0.00  0.00    +0.000 C 
ENDBRANCH  17  19
ENDBRANCH  16  17
ENDBRANCH   1  12
TORSDOF 5
ENDMDL
MODEL 6
REMARK VINA RESULT:      -6.2      2.427      3.461
REMARK  Name = 
REMARK  8 active torsions:
REMARK  status: ('A' for Active; 'I' for Inactive)
REMARK    1  A    between atoms: C_1  and  C_2
REMARK    2  A    between atoms: C_2  and  C_3
REMARK    3  A    between atoms: C_4  and  C_5
REMARK    4  A    between atoms: N_8  and  S_9
REMARK    5  A    between atoms: S_9  and  C_12
REMARK    6  A    between atoms: C_16  and  C_17
REMARK    7  A    between atoms: C_17  and  O_19
REMARK    8  A    between atoms: O_19  and  C_20
REMARK                            x       y       z     vdW  Elec       q    Type
REMARK                         _______ _______ _______ _____ _____    ______ ____
ROOT
ATOM      1  S   UNL     1       4.643   3.981  18.368  0.00  0.00    +0.000 S 
ATOM      2  O   UNL     1       5.533   3.427  19.365  0.00  0.00    +0.000 OA
ATOM      3  O   UNL     1       3.638   3.151  17.744  0.00  0.00    +0.000 OA
ENDROOT
BRANCH   1   9
ATOM      4  C   UNL     1       2.472   5.188  19.517  0.00  0.00    +0.000 C 
ATOM      5  C   UNL     1       1.772   6.523  19.168  0.00  0.00    +0.000 C 
ATOM      6  C   UNL     1       1.907   7.649  20.202  0.00  0.00    +0.000 C 
ATOM      7  C   UNL     1       2.483   6.900  17.877  0.00  0.00    +0.000 C 
ATOM      8  C   UNL     1       3.937   6.586  18.189  0.00  0.00    +0.000 C 
ATOM      9  N   UNL     1       3.904   5.370  19.053  0.00  0.00    +0.000 NA
BRANCH   4  11
ATOM     10  C   UNL     1       1.659   3.478  21.220  0.00  0.00    +0.000 C 
ATOM     11  C   UNL     1       2.397   4.796  20.998  0.00  0.00    +0.000 C 
ENDBRANCH   4  11
ENDBRANCH   1   9
BRANCH   1  12
ATOM     12  C   UNL     1       5.718   4.478  17.108  0.00  0.00    +0.000 A 
ATOM     13  C   UNL     1       5.520   4.040  15.809  0.00  0.00    +0.000 A 
ATOM     14  S   UNL     1       6.705   4.722  14.804  0.00  0.00    +0.000 S 
ATOM     15  N   UNL     1       7.458   5.570  15.995  0.00  0.00    +0.000 NA
ATOM     16  C   UNL     1       6.841   5.384  17.179  0.00  0.00    +0.000 A 
BRANCH  16  17
ATOM     17  C   UNL     1       7.414   6.098  18.339  0.00  0.00    +0.000 C 
ATOM     18  O   UNL     1       7.283   5.754  19.507  0.00  0.00    +0.000 OA
BRANCH  17  19
ATOM     19  O   UNL     1       8.192   7.157  17.951  0.00  0.00    +0.000 OA
ATOM     20  C   UNL     1       7.517   8.401  17.761  0.00  0.00    +0.000 C 
ENDBRANCH  17  19
ENDBRANCH  16  17
ENDBRANCH   1  12
TORSDOF 5
ENDMDL
MODEL 7
REMARK VINA RESULT:      -6.2      1.895      2.465
REMARK  Name = 
REMARK  8 active torsions:
REMARK  status: ('A' for Active; 'I' for Inactive)
REMARK    1  A    between atoms: C_1  and  C_2
REMARK    2  A    between atoms: C_2  and  C_3
REMARK    3  A    between atoms: C_4  and  C_5
REMARK    4  A    between atoms: N_8  and  S_9
REMARK    5  A    between atoms: S_9  and  C_12
REMARK    6  A    between atoms: C_16  and  C_17
REMARK    7  A    between atoms: C_17  and  O_19
REMARK    8  A    between atoms: O_19  and  C_20
REMARK                            x       y       z     vdW  Elec       q    Type
REMARK                         _______ _______ _______ _____ _____    ______ ____
ROOT
ATOM      1  S   UNL     1       3.502   5.514  18.021  0.00  0.00    +0.000 S 
ATOM      2  O   UNL     1       2.437   5.249  17.077  0.00  0.00    +0.000 OA
ATOM      3  O   UNL     1       3.822   6.871  18.398  0.00  0.00    +0.000 OA
ENDROOT
BRANCH   1   9
ATOM      4  C   UNL     1       2.391   3.309  19.202  0.00  0.00    +0.000 C 
ATOM      5  C   UNL     1       1.473   3.199  20.443  0.00  0.00    +0.000 C 
ATOM      6  C   UNL     1       2.085   2.533  21.682  0.00  0.00    +0.000 C 
ATOM      7  C   UNL     1       1.175   4.665  20.721  0.00  0.00    +0.000 C 
ATOM      8  C   UNL     1       2.532   5.324  20.539  0.00  0.00    +0.000 C 
ATOM      9  N   UNL     1       3.190   4.580  19.425  0.00  0.00    +0.000 NA
BRANCH   4  11
ATOM     10  C   UNL     1       4.638   2.218  19.699  0.00  0.00    +0.000 C 
ATOM     11  C   UNL     1       3.301   2.096  18.972  0.00  0.00    +0.000 C 
ENDBRANCH   4  11
ENDBRANCH   1   9
BRANCH   1  12
ATOM     12  C   UNL     1       4.903   4.884  17.224  0.00  0.00    +0.000 A 
ATOM     13  C   UNL     1       4.777   4.221  16.016  0.00  0.00    +0.000 A 
ATOM     14  S   UNL     1       6.318   3.760  15.471  0.00  0.00    +0.000 S 
ATOM     15  N   UNL     1       7.137   4.399  16.746  0.00  0.00    +0.000 NA
ATOM     16  C   UNL     1       6.291   4.991  17.611  0.00  0.00    +0.000 A 
BRANCH  16  17
ATOM     17  C   UNL     1       6.899   5.616  18.804  0.00  0.00    +0.000 C 
ATOM     18  O   UNL     1       6.625   5.326  19.962  0.00  0.00    +0.000 OA
BRANCH  17  19
ATOM     19  O   UNL     1       7.882   6.508  18.465  0.00  0.00    +0.000 OA
ATOM     20  C   UNL     1       7.481   7.606  17.644  0.00  0.00    +0.000 C 
ENDBRANCH  17  19
ENDBRANCH  16  17
ENDBRANCH   1  12
TORSDOF 5
ENDMDL
MODEL 8
REMARK VINA RESULT:      -6.1      2.332      6.018
REMARK  Name = 
REMARK  8 active torsions:
REMARK  status: ('A' for Active; 'I' for Inactive)
REMARK    1  A    between atoms: C_1  and  C_2
REMARK    2  A    between atoms: C_2  and  C_3
REMARK    3  A    between atoms: C_4  and  C_5
REMARK    4  A    between atoms: N_8  and  S_9
REMARK    5  A    between atoms: S_9  and  C_12
REMARK    6  A    between atoms: C_16  and  C_17
REMARK    7  A    between atoms: C_17  and  O_19
REMARK    8  A    between atoms: O_19  and  C_20
REMARK                            x       y       z     vdW  Elec       q    Type
REMARK                         _______ _______ _______ _____ _____    ______ ____
ROOT
ATOM      1  S   UNL     1       4.362   4.108  18.782  0.00  0.00    +0.000 S 
ATOM      2  O   UNL     1       3.745   3.614  17.569  0.00  0.00    +0.000 OA
ATOM      3  O   UNL     1       5.026   3.197  19.686  0.00  0.00    +0.000 OA
ENDROOT
BRANCH   1   9
ATOM      4  C   UNL     1       6.189   5.160  17.038  0.00  0.00    +0.000 C 
ATOM      5  C   UNL     1       7.598   5.744  17.301  0.00  0.00    +0.000 C 
ATOM      6  C   UNL     1       7.755   7.255  17.086  0.00  0.00    +0.000 C 
ATOM      7  C   UNL     1       7.793   5.394  18.769  0.00  0.00    +0.000 C 
ATOM      8  C   UNL     1       6.442   5.731  19.377  0.00  0.00    +0.000 C 
ATOM      9  N   UNL     1       5.435   5.369  18.337  0.00  0.00    +0.000 NA
BRANCH   4  11
ATOM     10  C   UNL     1       5.485   4.889  14.605  0.00  0.00    +0.000 C 
ATOM     11  C   UNL     1       5.453   5.782  15.844  0.00  0.00    +0.000 C 
ENDBRANCH   4  11
ENDBRANCH   1   9
BRANCH   1  12
ATOM     12  C   UNL     1       3.031   4.782  19.657  0.00  0.00    +0.000 A 
ATOM     13  C   UNL     1       2.774   6.141  19.597  0.00  0.00    +0.000 A 
ATOM     14  S   UNL     1       1.393   6.488  20.521  0.00  0.00    +0.000 S 
ATOM     15  N   UNL     1       1.116   4.935  20.987  0.00  0.00    +0.000 NA
ATOM     16  C   UNL     1       2.035   4.105  20.456  0.00  0.00    +0.000 A 
BRANCH  16  17
ATOM     17  C   UNL     1       1.898   2.672  20.789  0.00  0.00    +0.000 C 
ATOM     18  O   UNL     1       1.819   2.222  21.925  0.00  0.00    +0.000 OA
BRANCH  17  19
ATOM     19  O   UNL     1       1.779   1.898  19.664  0.00  0.00    +0.000 OA
ATOM     20  C   UNL     1       0.708   2.230  18.780  0.00  0.00    +0.000 C 
ENDBRANCH  17  19
ENDBRANCH  16  17
ENDBRANCH   1  12
TORSDOF 5
ENDMDL
MODEL 9
REMARK VINA RESULT:      -6.0      2.354      5.400
REMARK  Name = 
REMARK  8 active torsions:
REMARK  status: ('A' for Active; 'I' for Inactive)
REMARK    1  A    between atoms: C_1  and  C_2
REMARK    2  A    between atoms: C_2  and  C_3
REMARK    3  A    between atoms: C_4  and  C_5
REMARK    4  A    between atoms: N_8  and  S_9
REMARK    5  A    between atoms: S_9  and  C_12
REMARK    6  A    between atoms: C_16  and  C_17
REMARK    7  A    between atoms: C_17  and  O_19
REMARK    8  A    between atoms: O_19  and  C_20
REMARK                            x       y       z     vdW  Elec       q    Type
REMARK                         _______ _______ _______ _____ _____    ______ ____
ROOT
ATOM      1  S   UNL     1       4.451   3.033  18.795  0.00  0.00    +0.000 S 
ATOM      2  O   UNL     1       3.918   2.396  17.609  0.00  0.00    +0.000 OA
ATOM      3  O   UNL     1       5.393   2.333  19.637  0.00  0.00    +0.000 OA
ENDROOT
BRANCH   1   9
ATOM      4  C   UNL     1       6.116   4.487  17.182  0.00  0.00    +0.000 C 
ATOM      5  C   UNL     1       7.178   5.552  17.548  0.00  0.00    +0.000 C 
ATOM      6  C   UNL     1       6.865   6.994  17.127  0.00  0.00    +0.000 C 
ATOM      7  C   UNL     1       7.204   5.435  19.064  0.00  0.00    +0.000 C 
ATOM      8  C   UNL     1       5.730   5.332  19.419  0.00  0.00    +0.000 C 
ATOM      9  N   UNL     1       5.110   4.542  18.316  0.00  0.00    +0.000 NA
BRANCH   4  11
ATOM     10  C   UNL     1       6.221   4.026  14.680  0.00  0.00    +0.000 C 
ATOM     11  C   UNL     1       5.450   4.693  15.816  0.00  0.00    +0.000 C 
ENDBRANCH   4  11
ENDBRANCH   1   9
BRANCH   1  12
ATOM     12  C   UNL     1       3.044   3.312  19.761  0.00  0.00    +0.000 A 
ATOM     13  C   UNL     1       2.799   2.531  20.878  0.00  0.00    +0.000 A 
ATOM     14  S   UNL     1       1.377   3.068  21.632  0.00  0.00    +0.000 S 
ATOM     15  N   UNL     1       1.076   4.281  20.564  0.00  0.00    +0.000 NA
ATOM     16  C   UNL     1       2.035   4.336  19.619  0.00  0.00    +0.000 A 
BRANCH  16  17
ATOM     17  C   UNL     1       1.891   5.392  18.595  0.00  0.00    +0.000 C 
ATOM     18  O   UNL     1       1.367   5.237  17.499  0.00  0.00    +0.000 OA
BRANCH  17  19
ATOM     19  O   UNL     1       2.338   6.605  19.049  0.00  0.00    +0.000 OA
ATOM     20  C   UNL     1       2.815   7.513  18.056  0.00  0.00    +0.000 C 
ENDBRANCH  17  19
ENDBRANCH  16  17
ENDBRANCH   1  12
TORSDOF 5
ENDMDL
