MODEL 1
REMARK VINA RESULT:      -6.2      0.000      0.000
REMARK  Name = 
REMARK  13 active torsions:
REMARK  status: ('A' for Active; 'I' for Inactive)
REMARK    1  A    between atoms: CE_1  and  SD_2
REMARK    2  A    between atoms: SD_2  and  CG_3
REMARK    3  A    between atoms: CG_3  and  CB_4
REMARK    4  A    between atoms: CB_4  and  CA_5
REMARK    5  A    between atoms: CA_5  and  N_6
REMARK    6  A    between atoms: CA_5  and  C_7
REMARK    7  A    between atoms: N_9  and  CA_10
REMARK    8  A    between atoms: CA_10  and  CB_11
REMARK    9  A    between atoms: CA_10  and  C_12
REMARK   10  A    between atoms: N_14  and  C_15
REMARK   11  A    between atoms: C_15  and  C_16
REMARK   12  A    between atoms: C_15  and  C_18
REMARK   13  A    between atoms: C_18  and  O_20
REMARK                            x       y       z     vdW  Elec       q    Type
REMARK                         _______ _______ _______ _____ _____    ______ ____
ROOT
ATOM      1  CA  ALA A   2       5.915   4.622  18.637  0.00  0.00    +0.000 C 
ATOM      2  CB  ALA A   2       6.908   5.550  19.324  0.00  0.00    +0.000 C 
ENDROOT
BRANCH   1   5
ATOM      3  C   MET A   1       6.914   4.666  16.365  0.00  0.00    +0.000 C 
ATOM      4  O   MET A   1       7.992   4.211  16.755  0.00  0.00    +0.000 OA
ATOM      5  N   ALA A   2       5.856   4.895  17.208  0.00  0.00    +0.000 N 
ATOM      6  H   ALA A   2       4.977   5.257  16.836  0.00  0.00    +0.000 HD
BRANCH   3   7
ATOM      7  CA  MET A   1       6.646   5.012  14.882  0.00  0.00    +0.000 C 
BRANCH   7   8
ATOM      8  N   MET A   1       7.910   5.458  14.249  0.00  0.00    +0.000 NA
ATOM      9  H1  MET A   1       8.454   4.619  14.027  0.00  0.00    +0.000 HD
ATOM     10  H2  MET A   1       8.472   5.928  14.961  0.00  0.00    +0.000 HD
ENDBRANCH   7   8
BRANCH   7  11
ATOM     11  CB  MET A   1       6.103   3.803  14.107  0.00  0.00    +0.000 C 
BRANCH  11  12
ATOM     12  CG  MET A   1       6.435   3.752  12.614  0.00  0.00    +0.000 C 
BRANCH  12  14
ATOM     13  CE  MET A   1       6.617   1.499  11.048  0.00  0.00    +0.000 C 
ATOM     14  SD  MET A   1       5.351   2.621  11.689  0.00  0.00    +0.000 S 
ENDBRANCH  12  14
ENDBRANCH  11  12
ENDBRANCH   7  11
ENDBRANCH   3   7
ENDBRANCH   1   5
BRANCH   1  15
ATOM     15  C   ALA A   2       4.503   4.802  19.228  0.00  0.00    +0.000 C 
ATOM     16  O   ALA A   2       3.976   5.901  19.380  0.00  0.00    +0.000 OA
ATOM     17  N   UNK A   3       3.871   3.641  19.600  0.00  0.00    +0.000 N 
ATOM     18  H   UNK A   3       4.327   2.739  19.469  0.00  0.00    +0.000 HD
BRANCH  17  19
ATOM     19  C   UNK A   3       2.524   3.628  20.191  0.00  0.00    +0.000 C 
BRANCH  19  20
ATOM     20  C   UNK A   3       1.473   3.125  19.203  0.00  0.00    +0.000 C 
ATOM     21 CL   UNK A   3       2.226   2.279  17.822  0.00  0.00    +0.000 Cl
ENDBRANCH  19  20
BRANCH  19  22
ATOM     22  C   UNK A   3       2.597   2.707  21.409  0.00  0.00    +0.000 C 
ATOM     23  O   UNK A   3       1.658   2.557  22.183  0.00  0.00    +0.000 OA
BRANCH  22  24
ATOM     24  O   UNK A   3       3.772   2.067  21.567  0.00  0.00    +0.000 OA
ATOM     25  H   UNK A   3       3.728   1.242  22.093  0.00  0.00    +0.000 HD
ENDBRANCH  22  24
ENDBRANCH  19  22
ENDBRANCH  17  19
ENDBRANCH   1  15
TORSDOF 11
ENDMDL
MODEL 2
REMARK VINA RESULT:      -6.1      2.035      2.333
REMARK  Name = 
REMARK  13 active torsions:
REMARK  status: ('A' for Active; 'I' for Inactive)
REMARK    1  A    between atoms: CE_1  and  SD_2
REMARK    2  A    between atoms: SD_2  and  CG_3
REMARK    3  A    between atoms: CG_3  and  CB_4
REMARK    4  A    between atoms: CB_4  and  CA_5
REMARK    5  A    between atoms: CA_5  and  N_6
REMARK    6  A    between atoms: CA_5  and  C_7
REMARK    7  A    between atoms: N_9  and  CA_10
REMARK    8  A    between atoms: CA_10  and  CB_11
REMARK    9  A    between atoms: CA_10  and  C_12
REMARK   10  A    between atoms: N_14  and  C_15
REMARK   11  A    between atoms: C_15  and  C_16
REMARK   12  A    between atoms: C_15  and  C_18
REMARK   13  A    between atoms: C_18  and  O_20
REMARK                            x       y       z     vdW  Elec       q    Type
REMARK                         _______ _______ _______ _____ _____    ______ ____
ROOT
ATOM      1  CA  ALA A   2       3.996   6.343  18.241  0.00  0.00    +0.000 C 
ATOM      2  CB  ALA A   2       2.534   6.205  17.838  0.00  0.00    +0.000 C 
ENDROOT
BRANCH   1   5
ATOM      3  C   MET A   1       4.962   5.107  16.318  0.00  0.00    +0.000 C 
ATOM      4  O   MET A   1       4.321   4.083  16.564  0.00  0.00    +0.000 OA
ATOM      5  N   ALA A   2       4.865   6.246  17.078  0.00  0.00    +0.000 N 
ATOM      6  H   ALA A   2       5.403   7.075  16.825  0.00  0.00    +0.000 HD
BRANCH   3   7
ATOM      7  CA  MET A   1       5.933   5.211  15.118  0.00  0.00    +0.000 C 
BRANCH   7   8
ATOM      8  N   MET A   1       7.281   5.578  15.612  0.00  0.00    +0.000 NA
ATOM      9  H1  MET A   1       7.156   6.132  16.465  0.00  0.00    +0.000 HD
ATOM     10  H2  MET A   1       7.691   6.242  14.952  0.00  0.00    +0.000 HD
ENDBRANCH   7   8
BRANCH   7  11
ATOM     11  CB  MET A   1       6.030   3.884  14.351  0.00  0.00    +0.000 C 
BRANCH  11  12
ATOM     12  CG  MET A   1       6.483   3.979  12.893  0.00  0.00    +0.000 C 
BRANCH  12  14
ATOM     13  CE  MET A   1       4.268   3.260  11.432  0.00  0.00    +0.000 C 
ATOM     14  SD  MET A   1       5.888   2.591  11.879  0.00  0.00    +0.000 S 
ENDBRANCH  12  14
ENDBRANCH  11  12
ENDBRANCH   7  11
ENDBRANCH   3   7
ENDBRANCH   1   5
BRANCH   1  15
ATOM     15  C   ALA A   2       4.390   5.237  19.241  0.00  0.00    +0.000 C 
ATOM     16  O   ALA A   2       5.507   5.160  19.747  0.00  0.00    +0.000 OA
ATOM     17  N   UNK A   3       3.409   4.318  19.517  0.00  0.00    +0.000 N 
ATOM     18  H   UNK A   3       2.489   4.398  19.083  0.00  0.00    +0.000 HD
BRANCH  17  19
ATOM     19  C   UNK A   3       3.616   3.192  20.439  0.00  0.00    +0.000 C 
BRANCH  19  20
ATOM     20  C   UNK A   3       2.352   2.865  21.233  0.00  0.00    +0.000 C 
ATOM     21 CL   UNK A   3       0.891   3.500  20.427  0.00  0.00    +0.000 Cl
ENDBRANCH  19  20
BRANCH  19  22
ATOM     22  C   UNK A   3       4.027   1.999  19.576  0.00  0.00    +0.000 C 
ATOM     23  O   UNK A   3       3.333   1.575  18.658  0.00  0.00    +0.000 OA
BRANCH  22  24
ATOM     24  O   UNK A   3       5.214   1.448  19.896  0.00  0.00    +0.000 OA
ATOM     25  H   UNK A   3       5.544   1.666  20.792  0.00  0.00    +0.000 HD
ENDBRANCH  22  24
ENDBRANCH  19  22
ENDBRANCH  17  19
ENDBRANCH   1  15
TORSDOF 11
ENDMDL
MODEL 3
REMARK VINA RESULT:      -6.1      3.863      6.513
REMARK  Name = 
REMARK  13 active torsions:
REMARK  status: ('A' for Active; 'I' for Inactive)
REMARK    1  A    between atoms: CE_1  and  SD_2
REMARK    2  A    between atoms: SD_2  and  CG_3
REMARK    3  A    between atoms: CG_3  and  CB_4
REMARK    4  A    between atoms: CB_4  and  CA_5
REMARK    5  A    between atoms: CA_5  and  N_6
REMARK    6  A    between atoms: CA_5  and  C_7
REMARK    7  A    between atoms: N_9  and  CA_10
REMARK    8  A    between atoms: CA_10  and  CB_11
REMARK    9  A    between atoms: CA_10  and  C_12
REMARK   10  A    between atoms: N_14  and  C_15
REMARK   11  A    between atoms: C_15  and  C_16
REMARK   12  A    between atoms: C_15  and  C_18
REMARK   13  A    between atoms: C_18  and  O_20
REMARK                            x       y       z     vdW  Elec       q    Type
REMARK                         _______ _______ _______ _____ _____    ______ ____
ROOT
ATOM      1  CA  ALA A   2       5.573   3.866  15.650  0.00  0.00    +0.000 C 
ATOM      2  CB  ALA A   2       5.607   4.228  14.171  0.00  0.00    +0.000 C 
ENDROOT
BRANCH   1   5
ATOM      3  C   MET A   1       3.629   3.611  17.172  0.00  0.00    +0.000 C 
ATOM      4  O   MET A   1       3.961   2.475  17.519  0.00  0.00    +0.000 OA
ATOM      5  N   ALA A   2       4.352   4.354  16.273  0.00  0.00    +0.000 N 
ATOM      6  H   ALA A   2       4.046   5.297  16.029  0.00  0.00    +0.000 HD
BRANCH   3   7
ATOM      7  CA  MET A   1       2.368   4.314  17.728  0.00  0.00    +0.000 C 
BRANCH   7   8
ATOM      8  N   MET A   1       1.210   3.396  17.618  0.00  0.00    +0.000 NA
ATOM      9  H1  MET A   1       0.387   3.965  17.398  0.00  0.00    +0.000 HD
ATOM     10  H2  MET A   1       1.007   3.030  18.550  0.00  0.00    +0.000 HD
ENDBRANCH   7   8
BRANCH   7  11
ATOM     11  CB  MET A   1       2.546   4.715  19.200  0.00  0.00    +0.000 C 
BRANCH  11  12
ATOM     12  CG  MET A   1       1.341   4.480  20.113  0.00  0.00    +0.000 C 
BRANCH  12  14
ATOM     13  CE  MET A   1       3.284   2.693  20.884  0.00  0.00    +0.000 C 
ATOM     14  SD  MET A   1       1.518   2.991  21.144  0.00  0.00    +0.000 S 
ENDBRANCH  12  14
ENDBRANCH  11  12
ENDBRANCH   7  11
ENDBRANCH   3   7
ENDBRANCH   1   5
BRANCH   1  15
ATOM     15  C   ALA A   2       6.779   4.479  16.388  0.00  0.00    +0.000 C 
ATOM     16  O   ALA A   2       7.908   3.998  16.341  0.00  0.00    +0.000 OA
ATOM     17  N   UNK A   3       6.503   5.601  17.130  0.00  0.00    +0.000 N 
ATOM     18  H   UNK A   3       5.558   5.982  17.160  0.00  0.00    +0.000 HD
BRANCH  17  19
ATOM     19  C   UNK A   3       7.533   6.309  17.906  0.00  0.00    +0.000 C 
BRANCH  19  20
ATOM     20  C   UNK A   3       7.295   7.818  17.925  0.00  0.00    +0.000 C 
ATOM     21 CL   UNK A   3       8.699   8.693  18.599  0.00  0.00    +0.000 Cl
ENDBRANCH  19  20
BRANCH  19  22
ATOM     22  C   UNK A   3       7.470   5.741  19.324  0.00  0.00    +0.000 C 
ATOM     23  O   UNK A   3       6.418   5.403  19.856  0.00  0.00    +0.000 OA
BRANCH  22  24
ATOM     24  O   UNK A   3       8.660   5.634  19.946  0.00  0.00    +0.000 OA
ATOM     25  H   UNK A   3       8.731   6.123  20.792  0.00  0.00    +0.000 HD
ENDBRANCH  22  24
ENDBRANCH  19  22
ENDBRANCH  17  19
ENDBRANCH   1  15
TORSDOF 11
ENDMDL
MODEL 4
REMARK VINA RESULT:      -6.1      1.753      2.368
REMARK  Name = 
REMARK  13 active torsions:
REMARK  status: ('A' for Active; 'I' for Inactive)
REMARK    1  A    between atoms: CE_1  and  SD_2
REMARK    2  A    between atoms: SD_2  and  CG_3
REMARK    3  A    between atoms: CG_3  and  CB_4
REMARK    4  A    between atoms: CB_4  and  CA_5
REMARK    5  A    between atoms: CA_5  and  N_6
REMARK    6  A    between atoms: CA_5  and  C_7
REMARK    7  A    between atoms: N_9  and  CA_10
REMARK    8  A    between atoms: CA_10  and  CB_11
REMARK    9  A    between atoms: CA_10  and  C_12
REMARK   10  A    between atoms: N_14  and  C_15
REMARK   11  A    between atoms: C_15  and  C_16
REMARK   12  A    between atoms: C_15  and  C_18
REMARK   13  A    between atoms: C_18  and  O_20
REMARK                            x       y       z     vdW  Elec       q    Type
REMARK                         _______ _______ _______ _____ _____    ______ ____
ROOT
ATOM      1  CA  ALA A   2       3.618   6.098  18.506  0.00  0.00    +0.000 C 
ATOM      2  CB  ALA A   2       3.027   7.417  18.025  0.00  0.00    +0.000 C 
ENDROOT
BRANCH   1   5
ATOM      3  C   MET A   1       5.919   5.380  17.913  0.00  0.00    +0.000 C 
ATOM      4  O   MET A   1       6.350   5.581  19.051  0.00  0.00    +0.000 OA
ATOM      5  N   ALA A   2       4.610   5.603  17.564  0.00  0.00    +0.000 N 
ATOM      6  H   ALA A   2       4.296   5.405  16.613  0.00  0.00    +0.000 HD
BRANCH   3   7
ATOM      7  CA  MET A   1       6.811   4.843  16.769  0.00  0.00    +0.000 C 
BRANCH   7   8
ATOM      8  N   MET A   1       8.008   4.190  17.351  0.00  0.00    +0.000 NA
ATOM      9  H1  MET A   1       7.740   3.237  17.616  0.00  0.00    +0.000 HD
ATOM     10  H2  MET A   1       8.211   4.640  18.245  0.00  0.00    +0.000 HD
ENDBRANCH   7   8
BRANCH   7  11
ATOM     11  CB  MET A   1       6.063   3.822  15.899  0.00  0.00    +0.000 C 
BRANCH  11  12
ATOM     12  CG  MET A   1       5.633   4.304  14.512  0.00  0.00    +0.000 C 
BRANCH  12  14
ATOM     13  CE  MET A   1       6.534   3.440  12.061  0.00  0.00    +0.000 C 
ATOM     14  SD  MET A   1       7.041   4.560  13.388  0.00  0.00    +0.000 S 
ENDBRANCH  12  14
ENDBRANCH  11  12
ENDBRANCH   7  11
ENDBRANCH   3   7
ENDBRANCH   1   5
BRANCH   1  15
ATOM     15  C   ALA A   2       2.516   5.033  18.662  0.00  0.00    +0.000 C 
ATOM     16  O   ALA A   2       1.510   5.002  17.957  0.00  0.00    +0.000 OA
ATOM     17  N   UNK A   3       2.720   4.119  19.666  0.00  0.00    +0.000 N 
ATOM     18  H   UNK A   3       3.560   4.164  20.243  0.00  0.00    +0.000 HD
BRANCH  17  19
ATOM     19  C   UNK A   3       1.765   3.041  19.962  0.00  0.00    +0.000 C 
BRANCH  19  20
ATOM     20  C   UNK A   3       1.968   1.834  19.047  0.00  0.00    +0.000 C 
ATOM     21 CL   UNK A   3       3.599   1.832  18.319  0.00  0.00    +0.000 Cl
ENDBRANCH  19  20
BRANCH  19  22
ATOM     22  C   UNK A   3       1.995   2.649  21.421  0.00  0.00    +0.000 C 
ATOM     23  O   UNK A   3       3.110   2.416  21.876  0.00  0.00    +0.000 OA
BRANCH  22  24
ATOM     24  O   UNK A   3       0.880   2.582  22.174  0.00  0.00    +0.000 OA
ATOM     25  H   UNK A   3       0.906   1.922  22.896  0.00  0.00    +0.000 HD
ENDBRANCH  22  24
ENDBRANCH  19  22
ENDBRANCH  17  19
ENDBRANCH   1  15
TORSDOF 11
ENDMDL
MODEL 5
REMARK VINA RESULT:      -6.0      3.791      6.647
REMARK  Name = 
REMARK  13 active torsions:
REMARK  status: ('A' for Active; 'I' for Inactive)
REMARK    1  A    between atoms: CE_1  and  SD_2
REMARK    2  A    between atoms: SD_2  and  CG_3
REMARK    3  A    between atoms: CG_3  and  CB_4
REMARK    4  A    between atoms: CB_4  and  CA_5
REMARK    5  A    between atoms: CA_5  and  N_6
REMARK    6  A    between atoms: CA_5  and  C_7
REMARK    7  A    between atoms: N_9  and  CA_10
REMARK    8  A    between atoms: CA_10  and  CB_11
REMARK    9  A    between atoms: CA_10  and  C_12
REMARK   10  A    between atoms: N_14  and  C_15
REMARK   11  A    between atoms: C_15  and  C_16
REMARK   12  A    between atoms: C_15  and  C_18
REMARK   13  A    between atoms: C_18  and  O_20
REMARK                            x       y       z     vdW  Elec       q    Type
REMARK                         _______ _______ _______ _____ _____    ______ ____
ROOT
ATOM      1  CA  ALA A   2       2.995   6.214  17.908  0.00  0.00    +0.000 C 
ATOM      2  CB  ALA A   2       2.594   7.561  18.497  0.00  0.00    +0.000 C 
ENDROOT
BRANCH   1   5
ATOM      3  C   MET A   1       2.100   3.902  17.806  0.00  0.00    +0.000 C 
ATOM      4  O   MET A   1       2.920   3.548  16.955  0.00  0.00    +0.000 OA
ATOM      5  N   ALA A   2       2.067   5.173  18.322  0.00  0.00    +0.000 N 
ATOM      6  H   ALA A   2       1.380   5.414  19.037  0.00  0.00    +0.000 HD
BRANCH   3   7
ATOM      7  CA  MET A   1       1.036   2.940  18.384  0.00  0.00    +0.000 C 
BRANCH   7   8
ATOM      8  N   MET A   1       1.604   1.574  18.463  0.00  0.00    +0.000 NA
ATOM      9  H1  MET A   1       2.593   1.637  18.202  0.00  0.00    +0.000 HD
ATOM     10  H2  MET A   1       1.192   1.016  17.712  0.00  0.00    +0.000 HD
ENDBRANCH   7   8
BRANCH   7  11
ATOM     11  CB  MET A   1       0.585   3.372  19.788  0.00  0.00    +0.000 C 
BRANCH  11  12
ATOM     12  CG  MET A   1       1.225   2.626  20.961  0.00  0.00    +0.000 C 
BRANCH  12  14
ATOM     13  CE  MET A   1       3.959   2.453  20.711  0.00  0.00    +0.000 C 
ATOM     14  SD  MET A   1       2.725   3.448  21.583  0.00  0.00    +0.000 S 
ENDBRANCH  12  14
ENDBRANCH  11  12
ENDBRANCH   7  11
ENDBRANCH   3   7
ENDBRANCH   1   5
BRANCH   1  15
ATOM     15  C   ALA A   2       4.412   5.819  18.369  0.00  0.00    +0.000 C 
ATOM     16  O   ALA A   2       4.712   5.662  19.550  0.00  0.00    +0.000 OA
ATOM     17  N   UNK A   3       5.336   5.673  17.365  0.00  0.00    +0.000 N 
ATOM     18  H   UNK A   3       5.068   5.812  16.391  0.00  0.00    +0.000 HD
BRANCH  17  19
ATOM     19  C   UNK A   3       6.737   5.310  17.626  0.00  0.00    +0.000 C 
BRANCH  19  20
ATOM     20  C   UNK A   3       7.341   4.505  16.476  0.00  0.00    +0.000 C 
ATOM     21 CL   UNK A   3       6.076   3.688  15.515  0.00  0.00    +0.000 Cl
ENDBRANCH  19  20
BRANCH  19  22
ATOM     22  C   UNK A   3       7.495   6.624  17.813  0.00  0.00    +0.000 C 
ATOM     23  O   UNK A   3       7.475   7.525  16.981  0.00  0.00    +0.000 OA
BRANCH  22  24
ATOM     24  O   UNK A   3       8.185   6.722  18.966  0.00  0.00    +0.000 OA
ATOM     25  H   UNK A   3       8.494   5.871  19.338  0.00  0.00    +0.000 HD
ENDBRANCH  22  24
ENDBRANCH  19  22
ENDBRANCH  17  19
ENDBRANCH   1  15
TORSDOF 11
ENDMDL
MODEL 6
REMARK VINA RESULT:      -5.9      4.295      6.576
REMARK  Name = 
REMARK  13 active torsions:
REMARK  status: ('A' for Active; 'I' for Inactive)
REMARK    1  A    between atoms: CE_1  and  SD_2
REMARK    2  A    between atoms: SD_2  and  CG_3
REMARK    3  A    between atoms: CG_3  and  CB_4
REMARK    4  A    between atoms: CB_4  and  CA_5
REMARK    5  A    between atoms: CA_5  and  N_6
REMARK    6  A    between atoms: CA_5  and  C_7
REMARK    7  A    between atoms: N_9  and  CA_10
REMARK    8  A    between atoms: CA_10  and  CB_11
REMARK    9  A    between atoms: CA_10  and  C_12
REMARK   10  A    between atoms: N_14  and  C_15
REMARK   11  A    between atoms: C_15  and  C_16
REMARK   12  A    between atoms: C_15  and  C_18
REMARK   13  A    between atoms: C_18  and  O_20
REMARK                            x       y       z     vdW  Elec       q    Type
REMARK                         _______ _______ _______ _____ _____    ______ ____
ROOT
ATOM      1  CA  ALA A   2       3.218   6.205  17.693  0.00  0.00    +0.000 C 
ATOM      2  CB  ALA A   2       3.294   6.603  19.161  0.00  0.00    +0.000 C 
ENDROOT
BRANCH   1   5
ATOM      3  C   MET A   1       3.367   3.754  18.054  0.00  0.00    +0.000 C 
ATOM      4  O   MET A   1       4.437   3.839  18.663  0.00  0.00    +0.000 OA
ATOM      5  N   ALA A   2       2.710   4.849  17.552  0.00  0.00    +0.000 N 
ATOM      6  H   ALA A   2       1.818   4.730  17.069  0.00  0.00    +0.000 HD
BRANCH   3   7
ATOM      7  CA  MET A   1       2.657   2.403  17.807  0.00  0.00    +0.000 C 
BRANCH   7   8
ATOM      8  N   MET A   1       3.619   1.298  18.029  0.00  0.00    +0.000 NA
ATOM      9  H1  MET A   1       3.378   0.855  18.920  0.00  0.00    +0.000 HD
ATOM     10  H2  MET A   1       4.538   1.709  18.206  0.00  0.00    +0.000 HD
ENDBRANCH   7   8
BRANCH   7  11
ATOM     11  CB  MET A   1       1.458   2.213  18.748  0.00  0.00    +0.000 C 
BRANCH  11  12
ATOM     12  CG  MET A   1       1.165   3.366  19.709  0.00  0.00    +0.000 C 
BRANCH  12  14
ATOM     13  CE  MET A   1       3.065   2.393  21.442  0.00  0.00    +0.000 C 
ATOM     14  SD  MET A   1       1.324   2.884  21.457  0.00  0.00    +0.000 S 
ENDBRANCH  12  14
ENDBRANCH  11  12
ENDBRANCH   7  11
ENDBRANCH   3   7
ENDBRANCH   1   5
BRANCH   1  15
ATOM     15  C   ALA A   2       4.610   6.278  17.037  0.00  0.00    +0.000 C 
ATOM     16  O   ALA A   2       4.777   6.294  15.820  0.00  0.00    +0.000 OA
ATOM     17  N   UNK A   3       5.670   6.301  17.910  0.00  0.00    +0.000 N 
ATOM     18  H   UNK A   3       5.511   6.282  18.917  0.00  0.00    +0.000 HD
BRANCH  17  19
ATOM     19  C   UNK A   3       7.067   6.358  17.456  0.00  0.00    +0.000 C 
BRANCH  19  20
ATOM     20  C   UNK A   3       7.968   7.059  18.472  0.00  0.00    +0.000 C 
ATOM     21 CL   UNK A   3       8.248   8.767  18.029  0.00  0.00    +0.000 Cl
ENDBRANCH  19  20
BRANCH  19  22
ATOM     22  C   UNK A   3       7.515   4.910  17.256  0.00  0.00    +0.000 C 
ATOM     23  O   UNK A   3       7.893   4.477  16.173  0.00  0.00    +0.000 OA
BRANCH  22  24
ATOM     24  O   UNK A   3       7.466   4.143  18.363  0.00  0.00    +0.000 OA
ATOM     25  H   UNK A   3       8.310   4.072  18.855  0.00  0.00    +0.000 HD
ENDBRANCH  22  24
ENDBRANCH  19  22
ENDBRANCH  17  19
ENDBRANCH   1  15
TORSDOF 11
ENDMDL
MODEL 7
REMARK VINA RESULT:      -5.9      1.983      2.647
REMARK  Name = 
REMARK  13 active torsions:
REMARK  status: ('A' for Active; 'I' for Inactive)
REMARK    1  A    between atoms: CE_1  and  SD_2
REMARK    2  A    between atoms: SD_2  and  CG_3
REMARK    3  A    between atoms: CG_3  and  CB_4
REMARK    4  A    between atoms: CB_4  and  CA_5
REMARK    5  A    between atoms: CA_5  and  N_6
REMARK    6  A    between atoms: CA_5  and  C_7
REMARK    7  A    between atoms: N_9  and  CA_10
REMARK    8  A    between atoms: CA_10  and  CB_11
REMARK    9  A    between atoms: CA_10  and  C_12
REMARK   10  A    between atoms: N_14  and  C_15
REMARK   11  A    between atoms: C_15  and  C_16
REMARK   12  A    between atoms: C_15  and  C_18
REMARK   13  A    between atoms: C_18  and  O_20
REMARK                            x       y       z     vdW  Elec       q    Type
REMARK                         _______ _______ _______ _____ _____    ______ ____
ROOT
ATOM      1  CA  ALA A   2       3.264   6.560  18.552  0.00  0.00    +0.000 C 
ATOM      2  CB  ALA A   2       2.265   7.672  18.259  0.00  0.00    +0.000 C 
ENDROOT
BRANCH   1   5
ATOM      3  C   MET A   1       5.578   6.026  17.830  0.00  0.00    +0.000 C 
ATOM      4  O   MET A   1       5.866   5.498  18.908  0.00  0.00    +0.000 OA
ATOM      5  N   ALA A   2       4.342   6.564  17.574  0.00  0.00    +0.000 N 
ATOM      6  H   ALA A   2       4.145   6.975  16.661  0.00  0.00    +0.000 HD
BRANCH   3   7
ATOM      7  CA  MET A   1       6.582   6.121  16.657  0.00  0.00    +0.000 C 
BRANCH   7   8
ATOM      8  N   MET A   1       7.693   7.024  17.038  0.00  0.00    +0.000 NA
ATOM      9  H1  MET A   1       7.712   7.074  18.061  0.00  0.00    +0.000 HD
ATOM     10  H2  MET A   1       7.440   7.973  16.756  0.00  0.00    +0.000 HD
ENDBRANCH   7   8
BRANCH   7  11
ATOM     11  CB  MET A   1       7.163   4.746  16.295  0.00  0.00    +0.000 C 
BRANCH  11  12
ATOM     12  CG  MET A   1       6.375   3.929  15.269  0.00  0.00    +0.000 C 
BRANCH  12  14
ATOM     13  CE  MET A   1       5.452   3.492  12.716  0.00  0.00    +0.000 C 
ATOM     14  SD  MET A   1       6.808   4.349  13.553  0.00  0.00    +0.000 S 
ENDBRANCH  12  14
ENDBRANCH  11  12
ENDBRANCH   7  11
ENDBRANCH   3   7
ENDBRANCH   1   5
BRANCH   1  15
ATOM     15  C   ALA A   2       2.572   5.183  18.512  0.00  0.00    +0.000 C 
ATOM     16  O   ALA A   2       1.736   4.879  17.665  0.00  0.00    +0.000 OA
ATOM     17  N   UNK A   3       2.938   4.314  19.510  0.00  0.00    +0.000 N 
ATOM     18  H   UNK A   3       3.631   4.588  20.206  0.00  0.00    +0.000 HD
BRANCH  17  19
ATOM     19  C   UNK A   3       2.369   2.963  19.629  0.00  0.00    +0.000 C 
BRANCH  19  20
ATOM     20  C   UNK A   3       3.363   1.886  19.195  0.00  0.00    +0.000 C 
ATOM     21 CL   UNK A   3       3.699   1.975  17.443  0.00  0.00    +0.000 Cl
ENDBRANCH  19  20
BRANCH  19  22
ATOM     22  C   UNK A   3       1.995   2.782  21.100  0.00  0.00    +0.000 C 
ATOM     23  O   UNK A   3       2.831   2.591  21.978  0.00  0.00    +0.000 OA
BRANCH  22  24
ATOM     24  O   UNK A   3       0.676   2.853  21.364  0.00  0.00    +0.000 OA
ATOM     25  H   UNK A   3       0.136   3.283  20.669  0.00  0.00    +0.000 HD
ENDBRANCH  22  24
ENDBRANCH  19  22
ENDBRANCH  17  19
ENDBRANCH   1  15
TORSDOF 11
ENDMDL
MODEL 8
REMARK VINA RESULT:      -5.9      3.656      7.125
REMARK  Name = 
REMARK  13 active torsions:
REMARK  status: ('A' for Active; 'I' for Inactive)
REMARK    1  A    between atoms: CE_1  and  SD_2
REMARK    2  A    between atoms: SD_2  and  CG_3
REMARK    3  A    between atoms: CG_3  and  CB_4
REMARK    4  A    between atoms: CB_4  and  CA_5
REMARK    5  A    between atoms: CA_5  and  N_6
REMARK    6  A    between atoms: CA_5  and  C_7
REMARK    7  A    between atoms: N_9  and  CA_10
REMARK    8  A    between atoms: CA_10  and  CB_11
REMARK    9  A    between atoms: CA_10  and  C_12
REMARK   10  A    between atoms: N_14  and  C_15
REMARK   11  A    between atoms: C_15  and  C_16
REMARK   12  A    between atoms: C_15  and  C_18
REMARK   13  A    between atoms: C_18  and  O_20
REMARK                            x       y       z     vdW  Elec       q    Type
REMARK                         _______ _______ _______ _____ _____    ______ ____
ROOT
ATOM      1  CA  ALA A   2       6.544   6.458  17.187  0.00  0.00    +0.000 C 
ATOM      2  CB  ALA A   2       7.705   6.966  18.032  0.00  0.00    +0.000 C 
ENDROOT
BRANCH   1   5
ATOM      3  C   MET A   1       4.239   6.362  18.102  0.00  0.00    +0.000 C 
ATOM      4  O   MET A   1       3.870   7.351  17.465  0.00  0.00    +0.000 OA
ATOM      5  N   ALA A   2       5.515   5.863  18.026  0.00  0.00    +0.000 N 
ATOM      6  H   ALA A   2       5.770   5.031  18.560  0.00  0.00    +0.000 HD
BRANCH   3   7
ATOM      7  CA  MET A   1       3.294   5.579  19.043  0.00  0.00    +0.000 C 
BRANCH   7   8
ATOM      8  N   MET A   1       2.609   6.531  19.948  0.00  0.00    +0.000 NA
ATOM      9  H1  MET A   1       3.304   6.872  20.619  0.00  0.00    +0.000 HD
ATOM     10  H2  MET A   1       1.955   6.002  20.528  0.00  0.00    +0.000 HD
ENDBRANCH   7   8
BRANCH   7  11
ATOM     11  CB  MET A   1       2.234   4.793  18.255  0.00  0.00    +0.000 C 
BRANCH  11  12
ATOM     12  CG  MET A   1       2.479   3.291  18.107  0.00  0.00    +0.000 C 
BRANCH  12  14
ATOM     13  CE  MET A   1       1.632   2.750  20.668  0.00  0.00    +0.000 C 
ATOM     14  SD  MET A   1       1.229   2.285  18.966  0.00  0.00    +0.000 S 
ENDBRANCH  12  14
ENDBRANCH  11  12
ENDBRANCH   7  11
ENDBRANCH   3   7
ENDBRANCH   1   5
BRANCH   1  15
ATOM     15  C   ALA A   2       7.029   5.398  16.179  0.00  0.00    +0.000 C 
ATOM     16  O   ALA A   2       7.881   4.556  16.451  0.00  0.00    +0.000 OA
ATOM     17  N   UNK A   3       6.456   5.468  14.933  0.00  0.00    +0.000 N 
ATOM     18  H   UNK A   3       5.754   6.177  14.726  0.00  0.00    +0.000 HD
BRANCH  17  19
ATOM     19  C   UNK A   3       6.809   4.541  13.847  0.00  0.00    +0.000 C 
BRANCH  19  20
ATOM     20  C   UNK A   3       5.579   4.090  13.060  0.00  0.00    +0.000 C 
ATOM     21 CL   UNK A   3       5.960   2.717  11.983  0.00  0.00    +0.000 Cl
ENDBRANCH  19  20
BRANCH  19  22
ATOM     22  C   UNK A   3       7.779   5.295  12.936  0.00  0.00    +0.000 C 
ATOM     23  O   UNK A   3       8.788   5.850  13.357  0.00  0.00    +0.000 OA
BRANCH  22  24
ATOM     24  O   UNK A   3       7.443   5.301  11.632  0.00  0.00    +0.000 OA
ATOM     25  H   UNK A   3       8.127   4.951  11.025  0.00  0.00    +0.000 HD
ENDBRANCH  22  24
ENDBRANCH  19  22
ENDBRANCH  17  19
ENDBRANCH   1  15
TORSDOF 11
ENDMDL
MODEL 9
REMARK VINA RESULT:      -5.9      1.879      2.439
REMARK  Name = 
REMARK  13 active torsions:
REMARK  status: ('A' for Active; 'I' for Inactive)
REMARK    1  A    between atoms: CE_1  and  SD_2
REMARK    2  A    between atoms: SD_2  and  CG_3
REMARK    3  A    between atoms: CG_3  and  CB_4
REMARK    4  A    between atoms: CB_4  and  CA_5
REMARK    5  A    between atoms: CA_5  and  N_6
REMARK    6  A    between atoms: CA_5  and  C_7
REMARK    7  A    between atoms: N_9  and  CA_10
REMARK    8  A    between atoms: CA_10  and  CB_11
REMARK    9  A    between atoms: CA_10  and  C_12
REMARK   10  A    between atoms: N_14  and  C_15
REMARK   11  A    between atoms: C_15  and  C_16
REMARK   12  A    between atoms: C_15  and  C_18
REMARK   13  A    between atoms: C_18  and  O_20
REMARK                            x       y       z     vdW  Elec       q    Type
REMARK                         _______ _______ _______ _____ _____    ______ ____
ROOT
ATOM      1  CA  ALA A   2       3.435   6.529  18.426  0.00  0.00    +0.000 C 
ATOM      2  CB  ALA A   2       2.590   7.707  17.958  0.00  0.00    +0.000 C 
ENDROOT
BRANCH   1   5
ATOM      3  C   MET A   1       5.727   5.759  17.868  0.00  0.00    +0.000 C 
ATOM      4  O   MET A   1       6.003   5.505  19.044  0.00  0.00    +0.000 OA
ATOM      5  N   ALA A   2       4.508   6.257  17.482  0.00  0.00    +0.000 N 
ATOM      6  H   ALA A   2       4.321   6.435  16.495  0.00  0.00    +0.000 HD
BRANCH   3   7
ATOM      7  CA  MET A   1       6.729   5.529  16.712  0.00  0.00    +0.000 C 
BRANCH   7   8
ATOM      8  N   MET A   1       7.570   4.350  17.024  0.00  0.00    +0.000 NA
ATOM      9  H1  MET A   1       7.173   3.900  17.854  0.00  0.00    +0.000 HD
ATOM     10  H2  MET A   1       8.480   4.686  17.344  0.00  0.00    +0.000 HD
ENDBRANCH   7   8
BRANCH   7  11
ATOM     11  CB  MET A   1       6.007   5.285  15.378  0.00  0.00    +0.000 C 
BRANCH  11  12
ATOM     12  CG  MET A   1       6.052   3.854  14.839  0.00  0.00    +0.000 C 
BRANCH  12  14
ATOM     13  CE  MET A   1       7.612   5.087  12.939  0.00  0.00    +0.000 C 
ATOM     14  SD  MET A   1       6.359   3.787  13.046  0.00  0.00    +0.000 S 
ENDBRANCH  12  14
ENDBRANCH  11  12
ENDBRANCH   7  11
ENDBRANCH   3   7
ENDBRANCH   1   5
BRANCH   1  15
ATOM     15  C   ALA A   2       2.570   5.261  18.564  0.00  0.00    +0.000 C 
ATOM     16  O   ALA A   2       1.571   5.054  17.880  0.00  0.00    +0.000 OA
ATOM     17  N   UNK A   3       2.980   4.374  19.529  0.00  0.00    +0.000 N 
ATOM     18  H   UNK A   3       3.809   4.566  20.089  0.00  0.00    +0.000 HD
BRANCH  17  19
ATOM     19  C   UNK A   3       2.266   3.118  19.802  0.00  0.00    +0.000 C 
BRANCH  19  20
ATOM     20  C   UNK A   3       2.685   2.004  18.845  0.00  0.00    +0.000 C 
ATOM     21 CL   UNK A   3       3.993   2.538  17.751  0.00  0.00    +0.000 Cl
ENDBRANCH  19  20
BRANCH  19  22
ATOM     22  C   UNK A   3       2.602   2.737  21.244  0.00  0.00    +0.000 C 
ATOM     23  O   UNK A   3       1.839   2.950  22.181  0.00  0.00    +0.000 OA
BRANCH  22  24
ATOM     24  O   UNK A   3       3.800   2.145  21.410  0.00  0.00    +0.000 OA
ATOM     25  H   UNK A   3       4.526   2.517  20.868  0.00  0.00    +0.000 HD
ENDBRANCH  22  24
ENDBRANCH  19  22
ENDBRANCH  17  19
ENDBRANCH   1  15
TORSDOF 11
ENDMDL
