MODEL 1
REMARK VINA RESULT:      -8.5      0.000      0.000
REMARK  Name = 
REMARK  7 active torsions:
REMARK  status: ('A' for Active; 'I' for Inactive)
REMARK    1  A    between atoms: C_1  and  C_2
REMARK    2  A    between atoms: C_2  and  C_3
REMARK    3  A    between atoms: C_2  and  O_4
REMARK    4  A    between atoms: O_4  and  C_5
REMARK    5  A    between atoms: C_8  and  C_9
REMARK    6  A    between atoms: C_10  and  C_11
REMARK    7  A    between atoms: C_13  and  N_14
REMARK                            x       y       z     vdW  Elec       q    Type
REMARK                         _______ _______ _______ _____ _____    ______ ____
ROOT
ATOM      1  C   UNL     1       2.931   6.763  18.423  0.00  0.00    +0.000 C 
ATOM      2  C   UNL     1       2.846   5.550  19.325  0.00  0.00    +0.000 C 
ATOM      3  C   UNL     1       2.004   5.426  20.363  0.00  0.00    +0.000 C 
ATOM      4  O   UNL     1       1.499   6.535  20.952  0.00  0.00    +0.000 OA
ATOM      5  C   UNL     1       1.612   7.741  20.307  0.00  0.00    +0.000 A 
ATOM      6  C   UNL     1       2.288   7.940  19.149  0.00  0.00    +0.000 A 
ATOM      7  C   UNL     1       1.994   9.197  18.429  0.00  0.00    +0.000 A 
ATOM      8  O   UNL     1       2.249   9.320  17.237  0.00  0.00    +0.000 OA
ATOM      9  O   UNL     1       1.357  10.220  19.152  0.00  0.00    +0.000 OA
ATOM     10  C   UNL     1       0.754   9.997  20.408  0.00  0.00    +0.000 A 
ATOM     11  C   UNL     1       0.077  11.023  21.045  0.00  0.00    +0.000 A 
ATOM     12  C   UNL     1      -0.578  10.769  22.268  0.00  0.00    +0.000 A 
ATOM     13  C   UNL     1      -0.578   9.496  22.818  0.00  0.00    +0.000 A 
ATOM     14  C   UNL     1       0.104   8.480  22.165  0.00  0.00    +0.000 A 
ATOM     15  C   UNL     1       0.811   8.747  20.972  0.00  0.00    +0.000 A 
ENDROOT
BRANCH   1  19
ATOM     16  C   UNL     1       6.242   5.330  15.961  0.00  0.00    +0.000 A 
ATOM     17  C   UNL     1       5.245   6.146  15.434  0.00  0.00    +0.000 A 
ATOM     18  C   UNL     1       4.327   6.826  16.274  0.00  0.00    +0.000 A 
ATOM     19  C   UNL     1       4.319   6.637  17.695  0.00  0.00    +0.000 A 
ATOM     20  C   UNL     1       5.388   5.881  18.210  0.00  0.00    +0.000 A 
ATOM     21  C   UNL     1       6.335   5.250  17.347  0.00  0.00    +0.000 A 
BRANCH  16  22
ATOM     22  O   UNL     1       6.990   4.643  15.038  0.00  0.00    +0.000 OA
BRANCH  22  24
ATOM     23  C   UNL     1       8.094   5.255  12.969  0.00  0.00    +0.000 C 
ATOM     24  C   UNL     1       6.773   4.832  13.629  0.00  0.00    +0.000 C 
ATOM     25  C   UNL     1       6.322   3.519  12.998  0.00  0.00    +0.000 C 
ENDBRANCH  22  24
ENDBRANCH  16  22
ENDBRANCH   1  19
BRANCH   3  26
ATOM     26  N   UNL     1       1.428   4.260  20.830  0.00  0.00    +0.000 N 
ATOM     27  H   UNL     1       1.540   3.454  20.210  0.00  0.00    +0.000 HD
ATOM     28  H   UNL     1       0.436   4.404  21.017  0.00  0.00    +0.000 HD
ENDBRANCH   3  26
BRANCH   2  29
ATOM     29  C   UNL     1       3.150   4.214  18.665  0.00  0.00    +0.000 C 
ATOM     30  N   UNL     1       3.401   3.107  18.118  0.00  0.00    +0.000 NA
ENDBRANCH   2  29
TORSDOF 5
ENDMDL
MODEL 2
REMARK VINA RESULT:      -8.2      1.087      1.386
REMARK  Name = 
REMARK  7 active torsions:
REMARK  status: ('A' for Active; 'I' for Inactive)
REMARK    1  A    between atoms: C_1  and  C_2
REMARK    2  A    between atoms: C_2  and  C_3
REMARK    3  A    between atoms: C_2  and  O_4
REMARK    4  A    between atoms: O_4  and  C_5
REMARK    5  A    between atoms: C_8  and  C_9
REMARK    6  A    between atoms: C_10  and  C_11
REMARK    7  A    between atoms: C_13  and  N_14
REMARK                            x       y       z     vdW  Elec       q    Type
REMARK                         _______ _______ _______ _____ _____    ______ ____
ROOT
ATOM      1  C   UNL     1       3.201   5.404  18.394  0.00  0.00    +0.000 C 
ATOM      2  C   UNL     1       2.910   4.419  19.504  0.00  0.00    +0.000 C 
ATOM      3  C   UNL     1       2.037   4.627  20.503  0.00  0.00    +0.000 C 
ATOM      4  O   UNL     1       1.697   5.892  20.842  0.00  0.00    +0.000 OA
ATOM      5  C   UNL     1       2.009   6.917  19.986  0.00  0.00    +0.000 A 
ATOM      6  C   UNL     1       2.732   6.783  18.847  0.00  0.00    +0.000 A 
ATOM      7  C   UNL     1       2.651   7.904  17.886  0.00  0.00    +0.000 A 
ATOM      8  O   UNL     1       2.948   7.751  16.707  0.00  0.00    +0.000 OA
ATOM      9  O   UNL     1       2.165   9.131  18.367  0.00  0.00    +0.000 OA
ATOM     10  C   UNL     1       1.509   9.251  19.610  0.00  0.00    +0.000 A 
ATOM     11  C   UNL     1       0.986  10.471  20.005  0.00  0.00    +0.000 A 
ATOM     12  C   UNL     1       0.273  10.562  21.218  0.00  0.00    +0.000 A 
ATOM     13  C   UNL     1       0.064   9.436  22.001  0.00  0.00    +0.000 A 
ATOM     14  C   UNL     1       0.594   8.222  21.589  0.00  0.00    +0.000 A 
ATOM     15  C   UNL     1       1.359   8.141  20.405  0.00  0.00    +0.000 A 
ENDROOT
BRANCH   1  19
ATOM     16  C   UNL     1       6.672   4.972  15.779  0.00  0.00    +0.000 A 
ATOM     17  C   UNL     1       6.655   5.901  16.816  0.00  0.00    +0.000 A 
ATOM     18  C   UNL     1       5.657   5.866  17.822  0.00  0.00    +0.000 A 
ATOM     19  C   UNL     1       4.567   4.935  17.774  0.00  0.00    +0.000 A 
ATOM     20  C   UNL     1       4.655   3.953  16.771  0.00  0.00    +0.000 A 
ATOM     21  C   UNL     1       5.703   3.975  15.800  0.00  0.00    +0.000 A 
BRANCH  16  22
ATOM     22  O   UNL     1       7.623   5.186  14.812  0.00  0.00    +0.000 OA
BRANCH  22  24
ATOM     23  C   UNL     1       8.446   5.843  12.630  0.00  0.00    +0.000 C 
ATOM     24  C   UNL     1       7.251   5.302  13.429  0.00  0.00    +0.000 C 
ATOM     25  C   UNL     1       6.891   3.926  12.877  0.00  0.00    +0.000 C 
ENDBRANCH  22  24
ENDBRANCH  16  22
ENDBRANCH   1  19
BRANCH   3  26
ATOM     26  N   UNL     1       1.277   3.673  21.154  0.00  0.00    +0.000 N 
ATOM     27  H   UNL     1       0.467   4.046  21.653  0.00  0.00    +0.000 HD
ATOM     28  H   UNL     1       1.855   3.141  21.803  0.00  0.00    +0.000 HD
ENDBRANCH   3  26
BRANCH   2  29
ATOM     29  C   UNL     1       3.017   2.949  19.128  0.00  0.00    +0.000 C 
ATOM     30  N   UNL     1       3.106   1.731  18.816  0.00  0.00    +0.000 NA
ENDBRANCH   2  29
TORSDOF 5
ENDMDL
MODEL 3
REMARK VINA RESULT:      -7.9      3.720      6.195
REMARK  Name = 
REMARK  7 active torsions:
REMARK  status: ('A' for Active; 'I' for Inactive)
REMARK    1  A    between atoms: C_1  and  C_2
REMARK    2  A    between atoms: C_2  and  C_3
REMARK    3  A    between atoms: C_2  and  O_4
REMARK    4  A    between atoms: O_4  and  C_5
REMARK    5  A    between atoms: C_8  and  C_9
REMARK    6  A    between atoms: C_10  and  C_11
REMARK    7  A    between atoms: C_13  and  N_14
REMARK                            x       y       z     vdW  Elec       q    Type
REMARK                         _______ _______ _______ _____ _____    ______ ____
ROOT
ATOM      1  C   UNL     1       5.697   6.092  16.834  0.00  0.00    +0.000 C 
ATOM      2  C   UNL     1       6.232   4.896  16.077  0.00  0.00    +0.000 C 
ATOM      3  C   UNL     1       5.572   3.738  15.910  0.00  0.00    +0.000 C 
ATOM      4  O   UNL     1       4.592   3.395  16.778  0.00  0.00    +0.000 OA
ATOM      5  C   UNL     1       4.088   4.351  17.625  0.00  0.00    +0.000 A 
ATOM      6  C   UNL     1       4.565   5.615  17.737  0.00  0.00    +0.000 A 
ATOM      7  C   UNL     1       3.681   6.588  18.413  0.00  0.00    +0.000 A 
ATOM      8  O   UNL     1       3.829   7.794  18.257  0.00  0.00    +0.000 OA
ATOM      9  O   UNL     1       2.630   6.073  19.191  0.00  0.00    +0.000 OA
ATOM     10  C   UNL     1       2.230   4.721  19.123  0.00  0.00    +0.000 A 
ATOM     11  C   UNL     1       1.142   4.281  19.859  0.00  0.00    +0.000 A 
ATOM     12  C   UNL     1       0.711   2.945  19.730  0.00  0.00    +0.000 A 
ATOM     13  C   UNL     1       1.345   2.080  18.851  0.00  0.00    +0.000 A 
ATOM     14  C   UNL     1       2.432   2.538  18.121  0.00  0.00    +0.000 A 
ATOM     15  C   UNL     1       2.903   3.858  18.294  0.00  0.00    +0.000 A 
ENDROOT
BRANCH   1  19
ATOM     16  C   UNL     1       8.514   8.816  18.762  0.00  0.00    +0.000 A 
ATOM     17  C   UNL     1       8.541   7.446  19.013  0.00  0.00    +0.000 A 
ATOM     18  C   UNL     1       7.820   6.534  18.203  0.00  0.00    +0.000 A 
ATOM     19  C   UNL     1       6.958   6.978  17.146  0.00  0.00    +0.000 A 
ATOM     20  C   UNL     1       7.017   8.353  16.855  0.00  0.00    +0.000 A 
ATOM     21  C   UNL     1       7.796   9.248  17.652  0.00  0.00    +0.000 A 
BRANCH  16  22
ATOM     22  O   UNL     1       9.163   9.596  19.686  0.00  0.00    +0.000 OA
BRANCH  22  24
ATOM     23  C   UNL     1       9.266  11.707  20.871  0.00  0.00    +0.000 C 
ATOM     24  C   UNL     1       9.277  11.017  19.499  0.00  0.00    +0.000 C 
ATOM     25  C   UNL     1      10.599  11.340  18.811  0.00  0.00    +0.000 C 
ENDBRANCH  22  24
ENDBRANCH  16  22
ENDBRANCH   1  19
BRANCH   3  26
ATOM     26  N   UNL     1       5.651   2.886  14.825  0.00  0.00    +0.000 N 
ATOM     27  H   UNL     1       6.429   3.078  14.191  0.00  0.00    +0.000 HD
ATOM     28  H   UNL     1       4.778   2.899  14.298  0.00  0.00    +0.000 HD
ENDBRANCH   3  26
BRANCH   2  29
ATOM     29  C   UNL     1       7.147   5.212  14.905  0.00  0.00    +0.000 C 
ATOM     30  N   UNL     1       7.906   5.474  13.933  0.00  0.00    +0.000 NA
ENDBRANCH   2  29
TORSDOF 5
ENDMDL
MODEL 4
REMARK VINA RESULT:      -7.6      4.572     10.869
REMARK  Name = 
REMARK  7 active torsions:
REMARK  status: ('A' for Active; 'I' for Inactive)
REMARK    1  A    between atoms: C_1  and  C_2
REMARK    2  A    between atoms: C_2  and  C_3
REMARK    3  A    between atoms: C_2  and  O_4
REMARK    4  A    between atoms: O_4  and  C_5
REMARK    5  A    between atoms: C_8  and  C_9
REMARK    6  A    between atoms: C_10  and  C_11
REMARK    7  A    between atoms: C_13  and  N_14
REMARK                            x       y       z     vdW  Elec       q    Type
REMARK                         _______ _______ _______ _____ _____    ______ ____
ROOT
ATOM      1  C   UNL     1      -1.350  11.318  21.465  0.00  0.00    +0.000 C 
ATOM      2  C   UNL     1      -1.514  12.295  20.321  0.00  0.00    +0.000 C 
ATOM      3  C   UNL     1      -1.108  12.074  19.061  0.00  0.00    +0.000 C 
ATOM      4  O   UNL     1      -0.130  11.169  18.822  0.00  0.00    +0.000 OA
ATOM      5  C   UNL     1       0.220  10.290  19.815  0.00  0.00    +0.000 A 
ATOM      6  C   UNL     1      -0.272  10.311  21.078  0.00  0.00    +0.000 A 
ATOM      7  C   UNL     1      -0.063   9.088  21.881  0.00  0.00    +0.000 A 
ATOM      8  O   UNL     1      -0.752   8.849  22.865  0.00  0.00    +0.000 OA
ATOM      9  O   UNL     1       0.917   8.184  21.435  0.00  0.00    +0.000 OA
ATOM     10  C   UNL     1       1.485   8.258  20.146  0.00  0.00    +0.000 A 
ATOM     11  C   UNL     1       2.394   7.300  19.731  0.00  0.00    +0.000 A 
ATOM     12  C   UNL     1       2.903   7.347  18.417  0.00  0.00    +0.000 A 
ATOM     13  C   UNL     1       2.476   8.323  17.529  0.00  0.00    +0.000 A 
ATOM     14  C   UNL     1       1.564   9.274  17.961  0.00  0.00    +0.000 A 
ATOM     15  C   UNL     1       1.100   9.264  19.295  0.00  0.00    +0.000 A 
ENDROOT
BRANCH   1  19
ATOM     16  C   UNL     1      -2.757  14.277  24.353  0.00  0.00    +0.000 A 
ATOM     17  C   UNL     1      -3.354  13.023  24.248  0.00  0.00    +0.000 A 
ATOM     18  C   UNL     1      -2.745  11.975  23.513  0.00  0.00    +0.000 A 
ATOM     19  C   UNL     1      -1.536  12.176  22.769  0.00  0.00    +0.000 A 
ATOM     20  C   UNL     1      -0.907  13.419  22.962  0.00  0.00    +0.000 A 
ATOM     21  C   UNL     1      -1.514  14.444  23.754  0.00  0.00    +0.000 A 
BRANCH  16  22
ATOM     22  O   UNL     1      -3.504  15.232  24.996  0.00  0.00    +0.000 OA
BRANCH  22  24
ATOM     23  C   UNL     1      -5.545  15.947  23.902  0.00  0.00    +0.000 C 
ATOM     24  C   UNL     1      -4.098  16.317  24.263  0.00  0.00    +0.000 C 
ATOM     25  C   UNL     1      -4.127  17.570  25.133  0.00  0.00    +0.000 C 
ENDBRANCH  22  24
ENDBRANCH  16  22
ENDBRANCH   1  19
BRANCH   3  26
ATOM     26  N   UNL     1      -1.696  12.548  17.903  0.00  0.00    +0.000 N 
ATOM     27  H   UNL     1      -2.402  13.272  18.052  0.00  0.00    +0.000 HD
ATOM     28  H   UNL     1      -2.110  11.780  17.375  0.00  0.00    +0.000 HD
ENDBRANCH   3  26
BRANCH   2  29
ATOM     29  C   UNL     1      -2.749  13.181  20.382  0.00  0.00    +0.000 C 
ATOM     30  N   UNL     1      -3.772  13.916  20.433  0.00  0.00    +0.000 NA
ENDBRANCH   2  29
TORSDOF 5
ENDMDL
MODEL 5
REMARK VINA RESULT:      -7.1      1.783      7.677
REMARK  Name = 
REMARK  7 active torsions:
REMARK  status: ('A' for Active; 'I' for Inactive)
REMARK    1  A    between atoms: C_1  and  C_2
REMARK    2  A    between atoms: C_2  and  C_3
REMARK    3  A    between atoms: C_2  and  O_4
REMARK    4  A    between atoms: O_4  and  C_5
REMARK    5  A    between atoms: C_8  and  C_9
REMARK    6  A    between atoms: C_10  and  C_11
REMARK    7  A    between atoms: C_13  and  N_14
REMARK                            x       y       z     vdW  Elec       q    Type
REMARK                         _______ _______ _______ _____ _____    ______ ____
ROOT
ATOM      1  C   UNL     1       3.178   5.671  18.266  0.00  0.00    +0.000 C 
ATOM      2  C   UNL     1       2.388   4.387  18.139  0.00  0.00    +0.000 C 
ATOM      3  C   UNL     1       2.766   3.324  17.410  0.00  0.00    +0.000 C 
ATOM      4  O   UNL     1       3.637   3.490  16.387  0.00  0.00    +0.000 OA
ATOM      5  C   UNL     1       4.341   4.664  16.296  0.00  0.00    +0.000 A 
ATOM      6  C   UNL     1       4.166   5.738  17.106  0.00  0.00    +0.000 A 
ATOM      7  C   UNL     1       5.245   6.747  17.094  0.00  0.00    +0.000 A 
ATOM      8  O   UNL     1       5.378   7.545  18.015  0.00  0.00    +0.000 OA
ATOM      9  O   UNL     1       6.146   6.716  16.015  0.00  0.00    +0.000 OA
ATOM     10  C   UNL     1       6.226   5.622  15.128  0.00  0.00    +0.000 A 
ATOM     11  C   UNL     1       7.180   5.611  14.124  0.00  0.00    +0.000 A 
ATOM     12  C   UNL     1       7.295   4.482  13.287  0.00  0.00    +0.000 A 
ATOM     13  C   UNL     1       6.484   3.373  13.481  0.00  0.00    +0.000 A 
ATOM     14  C   UNL     1       5.535   3.402  14.492  0.00  0.00    +0.000 A 
ATOM     15  C   UNL     1       5.378   4.555  15.292  0.00  0.00    +0.000 A 
ENDROOT
BRANCH   1  19
ATOM     16  C   UNL     1       1.367   9.382  19.687  0.00  0.00    +0.000 A 
ATOM     17  C   UNL     1       1.396   9.060  18.333  0.00  0.00    +0.000 A 
ATOM     18  C   UNL     1       1.735   7.757  17.891  0.00  0.00    +0.000 A 
ATOM     19  C   UNL     1       2.152   6.733  18.805  0.00  0.00    +0.000 A 
ATOM     20  C   UNL     1       2.029   7.054  20.169  0.00  0.00    +0.000 A 
ATOM     21  C   UNL     1       1.632   8.360  20.592  0.00  0.00    +0.000 A 
BRANCH  16  22
ATOM     22  O   UNL     1       1.135  10.705  19.973  0.00  0.00    +0.000 OA
BRANCH  22  24
ATOM     23  C   UNL     1      -1.128  11.513  19.662  0.00  0.00    +0.000 C 
ATOM     24  C   UNL     1       0.307  11.508  19.115  0.00  0.00    +0.000 C 
ATOM     25  C   UNL     1       0.820  12.944  19.103  0.00  0.00    +0.000 C 
ENDBRANCH  22  24
ENDBRANCH  16  22
ENDBRANCH   1  19
BRANCH   3  26
ATOM     26  N   UNL     1       2.500   1.995  17.679  0.00  0.00    +0.000 N 
ATOM     27  H   UNL     1       3.331   1.405  17.762  0.00  0.00    +0.000 HD
ATOM     28  H   UNL     1       1.882   1.606  16.968  0.00  0.00    +0.000 HD
ENDBRANCH   3  26
BRANCH   2  29
ATOM     29  C   UNL     1       1.576   3.988  19.361  0.00  0.00    +0.000 C 
ATOM     30  N   UNL     1       0.902   3.657  20.374  0.00  0.00    +0.000 NA
ENDBRANCH   2  29
TORSDOF 5
ENDMDL
MODEL 6
REMARK VINA RESULT:      -7.1      3.972      6.458
REMARK  Name = 
REMARK  7 active torsions:
REMARK  status: ('A' for Active; 'I' for Inactive)
REMARK    1  A    between atoms: C_1  and  C_2
REMARK    2  A    between atoms: C_2  and  C_3
REMARK    3  A    between atoms: C_2  and  O_4
REMARK    4  A    between atoms: O_4  and  C_5
REMARK    5  A    between atoms: C_8  and  C_9
REMARK    6  A    between atoms: C_10  and  C_11
REMARK    7  A    between atoms: C_13  and  N_14
REMARK                            x       y       z     vdW  Elec       q    Type
REMARK                         _______ _______ _______ _____ _____    ______ ____
ROOT
ATOM      1  C   UNL     1       0.175  11.373  18.736  0.00  0.00    +0.000 C 
ATOM      2  C   UNL     1      -1.285  11.429  19.128  0.00  0.00    +0.000 C 
ATOM      3  C   UNL     1      -1.919  12.529  19.563  0.00  0.00    +0.000 C 
ATOM      4  O   UNL     1      -1.205  13.540  20.111  0.00  0.00    +0.000 OA
ATOM      5  C   UNL     1       0.157  13.559  19.946  0.00  0.00    +0.000 A 
ATOM      6  C   UNL     1       0.879  12.578  19.350  0.00  0.00    +0.000 A 
ATOM      7  C   UNL     1       2.254  12.935  18.942  0.00  0.00    +0.000 A 
ATOM      8  O   UNL     1       2.855  12.281  18.098  0.00  0.00    +0.000 OA
ATOM      9  O   UNL     1       2.818  14.087  19.517  0.00  0.00    +0.000 OA
ATOM     10  C   UNL     1       2.048  15.035  20.223  0.00  0.00    +0.000 A 
ATOM     11  C   UNL     1       2.642  16.189  20.708  0.00  0.00    +0.000 A 
ATOM     12  C   UNL     1       1.849  17.160  21.352  0.00  0.00    +0.000 A 
ATOM     13  C   UNL     1       0.479  16.986  21.474  0.00  0.00    +0.000 A 
ATOM     14  C   UNL     1      -0.099  15.825  20.981  0.00  0.00    +0.000 A 
ATOM     15  C   UNL     1       0.702  14.824  20.390  0.00  0.00    +0.000 A 
ENDROOT
BRANCH   1  19
ATOM     16  C   UNL     1       2.326   7.603  19.223  0.00  0.00    +0.000 A 
ATOM     17  C   UNL     1       1.583   8.155  20.264  0.00  0.00    +0.000 A 
ATOM     18  C   UNL     1       0.678   9.222  20.039  0.00  0.00    +0.000 A 
ATOM     19  C   UNL     1       0.547   9.845  18.753  0.00  0.00    +0.000 A 
ATOM     20  C   UNL     1       1.238   9.214  17.703  0.00  0.00    +0.000 A 
ATOM     21  C   UNL     1       2.104   8.103  17.945  0.00  0.00    +0.000 A 
BRANCH  16  22
ATOM     22  O   UNL     1       3.246   6.654  19.596  0.00  0.00    +0.000 OA
BRANCH  22  24
ATOM     23  C   UNL     1       5.063   5.116  19.148  0.00  0.00    +0.000 C 
ATOM     24  C   UNL     1       3.725   5.684  18.650  0.00  0.00    +0.000 C 
ATOM     25  C   UNL     1       2.727   4.535  18.543  0.00  0.00    +0.000 C 
ENDBRANCH  22  24
ENDBRANCH  16  22
ENDBRANCH   1  19
BRANCH   3  26
ATOM     26  N   UNL     1      -3.248  12.854  19.369  0.00  0.00    +0.000 N 
ATOM     27  H   UNL     1      -3.403  13.775  18.954  0.00  0.00    +0.000 HD
ATOM     28  H   UNL     1      -3.761  12.792  20.248  0.00  0.00    +0.000 HD
ENDBRANCH   3  26
BRANCH   2  29
ATOM     29  C   UNL     1      -2.210  10.495  18.363  0.00  0.00    +0.000 C 
ATOM     30  N   UNL     1      -2.977   9.721  17.729  0.00  0.00    +0.000 NA
ENDBRANCH   2  29
TORSDOF 5
ENDMDL
MODEL 7
REMARK VINA RESULT:      -7.0      4.398      7.422
REMARK  Name = 
REMARK  7 active torsions:
REMARK  status: ('A' for Active; 'I' for Inactive)
REMARK    1  A    between atoms: C_1  and  C_2
REMARK    2  A    between atoms: C_2  and  C_3
REMARK    3  A    between atoms: C_2  and  O_4
REMARK    4  A    between atoms: O_4  and  C_5
REMARK    5  A    between atoms: C_8  and  C_9
REMARK    6  A    between atoms: C_10  and  C_11
REMARK    7  A    between atoms: C_13  and  N_14
REMARK                            x       y       z     vdW  Elec       q    Type
REMARK                         _______ _______ _______ _____ _____    ______ ____
ROOT
ATOM      1  C   UNL     1      -1.378  11.982  20.058  0.00  0.00    +0.000 C 
ATOM      2  C   UNL     1      -2.810  11.916  19.575  0.00  0.00    +0.000 C 
ATOM      3  C   UNL     1      -3.806  12.696  20.025  0.00  0.00    +0.000 C 
ATOM      4  O   UNL     1      -3.705  13.273  21.245  0.00  0.00    +0.000 OA
ATOM      5  C   UNL     1      -2.484  13.298  21.871  0.00  0.00    +0.000 A 
ATOM      6  C   UNL     1      -1.363  12.696  21.405  0.00  0.00    +0.000 A 
ATOM      7  C   UNL     1      -0.087  13.134  22.010  0.00  0.00    +0.000 A 
ATOM      8  O   UNL     1       0.982  12.945  21.443  0.00  0.00    +0.000 OA
ATOM      9  O   UNL     1      -0.157  13.828  23.231  0.00  0.00    +0.000 OA
ATOM     10  C   UNL     1      -1.366  14.350  23.736  0.00  0.00    +0.000 A 
ATOM     11  C   UNL     1      -1.368  15.088  24.908  0.00  0.00    +0.000 A 
ATOM     12  C   UNL     1      -2.572  15.662  25.366  0.00  0.00    +0.000 A 
ATOM     13  C   UNL     1      -3.743  15.522  24.637  0.00  0.00    +0.000 A 
ATOM     14  C   UNL     1      -3.723  14.782  23.464  0.00  0.00    +0.000 A 
ATOM     15  C   UNL     1      -2.532  14.156  23.036  0.00  0.00    +0.000 A 
ENDROOT
BRANCH   1  19
ATOM     16  C   UNL     1       1.452   8.724  19.389  0.00  0.00    +0.000 A 
ATOM     17  C   UNL     1       0.665   8.777  20.536  0.00  0.00    +0.000 A 
ATOM     18  C   UNL     1      -0.432   9.671  20.637  0.00  0.00    +0.000 A 
ATOM     19  C   UNL     1      -0.729  10.623  19.606  0.00  0.00    +0.000 A 
ATOM     20  C   UNL     1       0.022  10.489  18.425  0.00  0.00    +0.000 A 
ATOM     21  C   UNL     1       1.088   9.542  18.325  0.00  0.00    +0.000 A 
BRANCH  16  22
ATOM     22  O   UNL     1       2.547   7.898  19.465  0.00  0.00    +0.000 OA
BRANCH  22  24
ATOM     23  C   UNL     1       3.721   6.638  17.760  0.00  0.00    +0.000 C 
ATOM     24  C   UNL     1       2.567   6.638  18.774  0.00  0.00    +0.000 C 
ATOM     25  C   UNL     1       2.805   5.509  19.771  0.00  0.00    +0.000 C 
ENDBRANCH  22  24
ENDBRANCH  16  22
ENDBRANCH   1  19
BRANCH   3  26
ATOM     26  N   UNL     1      -4.900  13.144  19.308  0.00  0.00    +0.000 N 
ATOM     27  H   UNL     1      -5.570  12.413  19.058  0.00  0.00    +0.000 HD
ATOM     28  H   UNL     1      -4.597  13.624  18.461  0.00  0.00    +0.000 HD
ENDBRANCH   3  26
BRANCH   2  29
ATOM     29  C   UNL     1      -2.998  11.524  18.118  0.00  0.00    +0.000 C 
ATOM     30  N   UNL     1      -3.154  11.198  16.910  0.00  0.00    +0.000 NA
ENDBRANCH   2  29
TORSDOF 5
ENDMDL
MODEL 8
REMARK VINA RESULT:      -7.0      3.990      6.601
REMARK  Name = 
REMARK  7 active torsions:
REMARK  status: ('A' for Active; 'I' for Inactive)
REMARK    1  A    between atoms: C_1  and  C_2
REMARK    2  A    between atoms: C_2  and  C_3
REMARK    3  A    between atoms: C_2  and  O_4
REMARK    4  A    between atoms: O_4  and  C_5
REMARK    5  A    between atoms: C_8  and  C_9
REMARK    6  A    between atoms: C_10  and  C_11
REMARK    7  A    between atoms: C_13  and  N_14
REMARK                            x       y       z     vdW  Elec       q    Type
REMARK                         _______ _______ _______ _____ _____    ______ ____
ROOT
ATOM      1  C   UNL     1      -0.735  11.266  19.388  0.00  0.00    +0.000 C 
ATOM      2  C   UNL     1      -2.133  11.150  18.819  0.00  0.00    +0.000 C 
ATOM      3  C   UNL     1      -3.160  11.952  19.144  0.00  0.00    +0.000 C 
ATOM      4  O   UNL     1      -3.142  12.618  20.323  0.00  0.00    +0.000 OA
ATOM      5  C   UNL     1      -1.965  12.701  21.022  0.00  0.00    +0.000 A 
ATOM      6  C   UNL     1      -0.812  12.077  20.677  0.00  0.00    +0.000 A 
ATOM      7  C   UNL     1       0.418  12.572  21.329  0.00  0.00    +0.000 A 
ATOM      8  O   UNL     1       1.524  12.352  20.848  0.00  0.00    +0.000 OA
ATOM      9  O   UNL     1       0.265  13.353  22.487  0.00  0.00    +0.000 OA
ATOM     10  C   UNL     1      -0.977  13.900  22.872  0.00  0.00    +0.000 A 
ATOM     11  C   UNL     1      -1.059  14.722  23.984  0.00  0.00    +0.000 A 
ATOM     12  C   UNL     1      -2.293  15.316  24.319  0.00  0.00    +0.000 A 
ATOM     13  C   UNL     1      -3.414  15.111  23.528  0.00  0.00    +0.000 A 
ATOM     14  C   UNL     1      -3.313  14.286  22.417  0.00  0.00    +0.000 A 
ATOM     15  C   UNL     1      -2.093  13.642  22.115  0.00  0.00    +0.000 A 
ENDROOT
BRANCH   1  19
ATOM     16  C   UNL     1       2.165   8.013  19.104  0.00  0.00    +0.000 A 
ATOM     17  C   UNL     1       1.341   8.156  20.217  0.00  0.00    +0.000 A 
ATOM     18  C   UNL     1       0.228   9.034  20.203  0.00  0.00    +0.000 A 
ATOM     19  C   UNL     1      -0.051   9.883  19.082  0.00  0.00    +0.000 A 
ATOM     20  C   UNL     1       0.738   9.657  17.940  0.00  0.00    +0.000 A 
ATOM     21  C   UNL     1       1.822   8.725  17.959  0.00  0.00    +0.000 A 
BRANCH  16  22
ATOM     22  O   UNL     1       3.270   7.219  19.287  0.00  0.00    +0.000 OA
BRANCH  22  24
ATOM     23  C   UNL     1       2.329   5.238  18.256  0.00  0.00    +0.000 C 
ATOM     24  C   UNL     1       3.135   5.796  19.439  0.00  0.00    +0.000 C 
ATOM     25  C   UNL     1       4.514   5.145  19.427  0.00  0.00    +0.000 C 
ENDBRANCH  22  24
ENDBRANCH  16  22
ENDBRANCH   1  19
BRANCH   3  26
ATOM     26  N   UNL     1      -4.207  12.334  18.327  0.00  0.00    +0.000 N 
ATOM     27  H   UNL     1      -3.921  12.804  17.465  0.00  0.00    +0.000 HD
ATOM     28  H   UNL     1      -4.855  12.933  18.836  0.00  0.00    +0.000 HD
ENDBRANCH   3  26
BRANCH   2  29
ATOM     29  C   UNL     1      -2.223  10.649  17.386  0.00  0.00    +0.000 C 
ATOM     30  N   UNL     1      -2.298  10.234  16.199  0.00  0.00    +0.000 NA
ENDBRANCH   2  29
TORSDOF 5
ENDMDL
MODEL 9
REMARK VINA RESULT:      -6.9      4.378     10.599
REMARK  Name = 
REMARK  7 active torsions:
REMARK  status: ('A' for Active; 'I' for Inactive)
REMARK    1  A    between atoms: C_1  and  C_2
REMARK    2  A    between atoms: C_2  and  C_3
REMARK    3  A    between atoms: C_2  and  O_4
REMARK    4  A    between atoms: O_4  and  C_5
REMARK    5  A    between atoms: C_8  and  C_9
REMARK    6  A    between atoms: C_10  and  C_11
REMARK    7  A    between atoms: C_13  and  N_14
REMARK                            x       y       z     vdW  Elec       q    Type
REMARK                         _______ _______ _______ _____ _____    ______ ____
ROOT
ATOM      1  C   UNL     1      -1.175  11.269  21.257  0.00  0.00    +0.000 C 
ATOM      2  C   UNL     1      -1.333  12.187  20.065  0.00  0.00    +0.000 C 
ATOM      3  C   UNL     1      -0.937  11.895  18.816  0.00  0.00    +0.000 C 
ATOM      4  O   UNL     1       0.028  10.966  18.619  0.00  0.00    +0.000 OA
ATOM      5  C   UNL     1       0.372  10.135  19.655  0.00  0.00    +0.000 A 
ATOM      6  C   UNL     1      -0.112  10.229  20.918  0.00  0.00    +0.000 A 
ATOM      7  C   UNL     1       0.086   9.046  21.782  0.00  0.00    +0.000 A 
ATOM      8  O   UNL     1      -0.600   8.869  22.782  0.00  0.00    +0.000 OA
ATOM      9  O   UNL     1       1.051   8.107  21.379  0.00  0.00    +0.000 OA
ATOM     10  C   UNL     1       1.612   8.107  20.085  0.00  0.00    +0.000 A 
ATOM     11  C   UNL     1       2.506   7.116  19.716  0.00  0.00    +0.000 A 
ATOM     12  C   UNL     1       3.008   7.087  18.399  0.00  0.00    +0.000 A 
ATOM     13  C   UNL     1       2.588   8.021  17.463  0.00  0.00    +0.000 A 
ATOM     14  C   UNL     1       1.691   9.006  17.850  0.00  0.00    +0.000 A 
ATOM     15  C   UNL     1       1.235   9.072  19.184  0.00  0.00    +0.000 A 
ENDROOT
BRANCH   1  19
ATOM     16  C   UNL     1      -2.497  14.417  23.980  0.00  0.00    +0.000 A 
ATOM     17  C   UNL     1      -3.141  13.184  23.928  0.00  0.00    +0.000 A 
ATOM     18  C   UNL     1      -2.565  12.078  23.253  0.00  0.00    +0.000 A 
ATOM     19  C   UNL     1      -1.341  12.197  22.516  0.00  0.00    +0.000 A 
ATOM     20  C   UNL     1      -0.667  13.423  22.656  0.00  0.00    +0.000 A 
ATOM     21  C   UNL     1      -1.242  14.507  23.389  0.00  0.00    +0.000 A 
BRANCH  16  22
ATOM     22  O   UNL     1      -3.214  15.431  24.566  0.00  0.00    +0.000 OA
BRANCH  22  24
ATOM     23  C   UNL     1      -1.395  15.541  26.162  0.00  0.00    +0.000 C 
ATOM     24  C   UNL     1      -2.620  16.260  25.579  0.00  0.00    +0.000 C 
ATOM     25  C   UNL     1      -2.155  17.574  24.960  0.00  0.00    +0.000 C 
ENDBRANCH  22  24
ENDBRANCH  16  22
ENDBRANCH   1  19
BRANCH   3  26
ATOM     26  N   UNL     1      -1.526  12.315  17.638  0.00  0.00    +0.000 N 
ATOM     27  H   UNL     1      -1.016  12.052  16.792  0.00  0.00    +0.000 HD
ATOM     28  H   UNL     1      -1.659  13.326  17.648  0.00  0.00    +0.000 HD
ENDBRANCH   3  26
BRANCH   2  29
ATOM     29  C   UNL     1      -2.555  13.092  20.086  0.00  0.00    +0.000 C 
ATOM     30  N   UNL     1      -3.568  13.841  20.103  0.00  0.00    +0.000 NA
ENDBRANCH   2  29
TORSDOF 5
ENDMDL
