MODEL 1
REMARK VINA RESULT:      -8.5      0.000      0.000
REMARK  Name = 
REMARK  3 active torsions:
REMARK  status: ('A' for Active; 'I' for Inactive)
REMARK    1  A    between atoms: C_2  and  C_3
REMARK    2  A    between atoms: N_19  and  C_20
REMARK    3  A    between atoms: C_20  and  C_21
REMARK                            x       y       z     vdW  Elec       q    Type
REMARK                         _______ _______ _______ _____ _____    ______ ____
ROOT
ATOM      1  O   UNL     1       2.431  10.761  17.846  0.00  0.00    +0.000 OA
ATOM      2  C   UNL     1       1.684  10.125  18.597  0.00  0.00    +0.000 C 
ATOM      3  N   UNL     1       0.567  10.732  19.176  0.00  0.00    +0.000 N 
ATOM      4  C   UNL     1      -0.470  10.085  20.001  0.00  0.00    +0.000 C 
ATOM      5  C   UNL     1      -0.648  10.842  21.330  0.00  0.00    +0.000 C 
ATOM      6  N   UNL     1      -0.969  12.277  21.143  0.00  0.00    +0.000 NA
ATOM      7  C   UNL     1       0.122  12.866  20.311  0.00  0.00    +0.000 C 
ATOM      8  C   UNL     1       0.334  12.162  18.954  0.00  0.00    +0.000 C 
ENDROOT
BRANCH   2   9
ATOM      9  C   UNL     1       1.928   8.733  18.928  0.00  0.00    +0.000 A 
ATOM     10  C   UNL     1       1.621   8.052  20.093  0.00  0.00    +0.000 A 
ATOM     11  C   UNL     1       1.816   6.664  19.962  0.00  0.00    +0.000 A 
ATOM     12  C   UNL     1       2.488   6.343  18.800  0.00  0.00    +0.000 A 
ATOM     13  S   UNL     1       2.727   7.706  17.811  0.00  0.00    +0.000 S 
ATOM     14  C   UNL     1       2.968   4.984  18.533  0.00  0.00    +0.000 A 
ATOM     15  C   UNL     1       3.386   4.534  17.283  0.00  0.00    +0.000 A 
ATOM     16  C   UNL     1       3.823   3.217  17.125  0.00  0.00    +0.000 A 
ATOM     17  C   UNL     1       3.853   2.348  18.219  0.00  0.00    +0.000 A 
ATOM     18  C   UNL     1       3.448   2.787  19.473  0.00  0.00    +0.000 A 
ATOM     19  C   UNL     1       2.987   4.091  19.641  0.00  0.00    +0.000 A 
ATOM     20  C   UNL     1       2.573   4.577  21.025  0.00  0.00    +0.000 C 
ATOM     21  C   UNL     1       1.449   5.613  20.954  0.00  0.00    +0.000 C 
ENDBRANCH   2   9
BRANCH   6  22
ATOM     22  C   UNL     1      -2.300  12.450  20.510  0.00  0.00    +0.000 C 
BRANCH  22  23
ATOM     23  C   UNL     1      -3.428  12.639  21.518  0.00  0.00    +0.000 A 
ATOM     24  C   UNL     1      -3.158  12.763  22.830  0.00  0.00    +0.000 A 
ATOM     25  C   UNL     1      -4.271  12.764  23.802  0.00  0.00    +0.000 A 
ATOM     26  O   UNL     1      -4.034  12.712  25.006  0.00  0.00    +0.000 OA
ATOM     27  N   UNL     1      -5.524  12.804  23.233  0.00  0.00    +0.000 N 
ATOM     28  C   UNL     1      -6.702  12.843  23.938  0.00  0.00    +0.000 A 
ATOM     29  C   UNL     1      -7.796  12.870  23.169  0.00  0.00    +0.000 A 
ATOM     30  S   UNL     1      -7.375  12.845  21.476  0.00  0.00    +0.000 S 
ATOM     31  C   UNL     1      -5.662  12.773  21.865  0.00  0.00    +0.000 A 
ATOM     32  N   UNL     1      -4.717  12.676  21.000  0.00  0.00    +0.000 NA
ENDBRANCH  22  23
ENDBRANCH   6  22
TORSDOF 3
ENDMDL
MODEL 2
REMARK VINA RESULT:      -8.5      0.804      1.810
REMARK  Name = 
REMARK  3 active torsions:
REMARK  status: ('A' for Active; 'I' for Inactive)
REMARK    1  A    between atoms: C_2  and  C_3
REMARK    2  A    between atoms: N_19  and  C_20
REMARK    3  A    between atoms: C_20  and  C_21
REMARK                            x       y       z     vdW  Elec       q    Type
REMARK                         _______ _______ _______ _____ _____    ______ ____
ROOT
ATOM      1  O   UNL     1       2.688  11.124  17.813  0.00  0.00    +0.000 OA
ATOM      2  C   UNL     1       1.924  10.334  18.377  0.00  0.00    +0.000 C 
ATOM      3  N   UNL     1       0.765  10.789  19.010  0.00  0.00    +0.000 N 
ATOM      4  C   UNL     1      -0.292   9.967  19.629  0.00  0.00    +0.000 C 
ATOM      5  C   UNL     1      -0.553  10.429  21.074  0.00  0.00    +0.000 C 
ATOM      6  N   UNL     1      -0.904  11.866  21.170  0.00  0.00    +0.000 NA
ATOM      7  C   UNL     1       0.208  12.634  20.536  0.00  0.00    +0.000 C 
ATOM      8  C   UNL     1       0.503  12.229  19.076  0.00  0.00    +0.000 C 
ENDROOT
BRANCH   2   9
ATOM      9  C   UNL     1       2.191   8.908  18.426  0.00  0.00    +0.000 A 
ATOM     10  C   UNL     1       2.808   8.109  17.481  0.00  0.00    +0.000 A 
ATOM     11  C   UNL     1       3.080   6.819  17.974  0.00  0.00    +0.000 A 
ATOM     12  C   UNL     1       2.458   6.585  19.184  0.00  0.00    +0.000 A 
ATOM     13  S   UNL     1       1.690   7.981  19.780  0.00  0.00    +0.000 S 
ATOM     14  C   UNL     1       2.441   5.256  19.802  0.00  0.00    +0.000 A 
ATOM     15  C   UNL     1       2.092   5.015  21.129  0.00  0.00    +0.000 A 
ATOM     16  C   UNL     1       2.111   3.712  21.631  0.00  0.00    +0.000 A 
ATOM     17  C   UNL     1       2.469   2.644  20.804  0.00  0.00    +0.000 A 
ATOM     18  C   UNL     1       2.810   2.869  19.477  0.00  0.00    +0.000 A 
ATOM     19  C   UNL     1       2.819   4.166  18.968  0.00  0.00    +0.000 A 
ATOM     20  C   UNL     1       3.163   4.404  17.503  0.00  0.00    +0.000 C 
ATOM     21  C   UNL     1       3.863   5.749  17.292  0.00  0.00    +0.000 C 
ENDBRANCH   2   9
BRANCH   6  22
ATOM     22  C   UNL     1      -2.208  12.144  20.518  0.00  0.00    +0.000 C 
BRANCH  22  23
ATOM     23  C   UNL     1      -3.319  12.479  21.508  0.00  0.00    +0.000 A 
ATOM     24  C   UNL     1      -3.042  12.655  22.812  0.00  0.00    +0.000 A 
ATOM     25  C   UNL     1      -4.152  12.799  23.776  0.00  0.00    +0.000 A 
ATOM     26  O   UNL     1      -3.921  12.796  24.983  0.00  0.00    +0.000 OA
ATOM     27  N   UNL     1      -5.397  12.908  23.199  0.00  0.00    +0.000 N 
ATOM     28  C   UNL     1      -6.569  13.079  23.893  0.00  0.00    +0.000 A 
ATOM     29  C   UNL     1      -7.656  13.151  23.118  0.00  0.00    +0.000 A 
ATOM     30  S   UNL     1      -7.237  12.997  21.431  0.00  0.00    +0.000 S 
ATOM     31  C   UNL     1      -5.535  12.810  21.833  0.00  0.00    +0.000 A 
ATOM     32  N   UNL     1      -4.600  12.589  20.981  0.00  0.00    +0.000 NA
ENDBRANCH  22  23
ENDBRANCH   6  22
TORSDOF 3
ENDMDL
MODEL 3
REMARK VINA RESULT:      -8.3      6.234      8.177
REMARK  Name = 
REMARK  3 active torsions:
REMARK  status: ('A' for Active; 'I' for Inactive)
REMARK    1  A    between atoms: C_2  and  C_3
REMARK    2  A    between atoms: N_19  and  C_20
REMARK    3  A    between atoms: C_20  and  C_21
REMARK                            x       y       z     vdW  Elec       q    Type
REMARK                         _______ _______ _______ _____ _____    ______ ____
ROOT
ATOM      1  O   UNL     1       5.179  17.531  18.536  0.00  0.00    +0.000 OA
ATOM      2  C   UNL     1       5.152  16.427  19.090  0.00  0.00    +0.000 C 
ATOM      3  N   UNL     1       3.938  15.829  19.433  0.00  0.00    +0.000 N 
ATOM      4  C   UNL     1       3.738  14.480  19.997  0.00  0.00    +0.000 C 
ATOM      5  C   UNL     1       2.889  14.555  21.279  0.00  0.00    +0.000 C 
ATOM      6  N   UNL     1       1.581  15.218  21.072  0.00  0.00    +0.000 NA
ATOM      7  C   UNL     1       1.859  16.574  20.512  0.00  0.00    +0.000 C 
ATOM      8  C   UNL     1       2.689  16.563  19.211  0.00  0.00    +0.000 C 
ENDROOT
BRANCH   2   9
ATOM      9  C   UNL     1       6.366  15.703  19.422  0.00  0.00    +0.000 A 
ATOM     10  C   UNL     1       7.061  15.679  20.619  0.00  0.00    +0.000 A 
ATOM     11  C   UNL     1       8.067  14.695  20.627  0.00  0.00    +0.000 A 
ATOM     12  C   UNL     1       8.278  14.160  19.373  0.00  0.00    +0.000 A 
ATOM     13  S   UNL     1       7.149  14.738  18.240  0.00  0.00    +0.000 S 
ATOM     14  C   UNL     1       9.397  13.255  19.095  0.00  0.00    +0.000 A 
ATOM     15  C   UNL     1       9.500  12.466  17.952  0.00  0.00    +0.000 A 
ATOM     16  C   UNL     1      10.604  11.628  17.778  0.00  0.00    +0.000 A 
ATOM     17  C   UNL     1      11.614  11.584  18.742  0.00  0.00    +0.000 A 
ATOM     18  C   UNL     1      11.529  12.373  19.882  0.00  0.00    +0.000 A 
ATOM     19  C   UNL     1      10.423  13.196  20.081  0.00  0.00    +0.000 A 
ATOM     20  C   UNL     1      10.349  14.083  21.318  0.00  0.00    +0.000 C 
ATOM     21  C   UNL     1       8.907  14.287  21.790  0.00  0.00    +0.000 C 
ENDBRANCH   2   9
BRANCH   6  22
ATOM     22  C   UNL     1       0.711  14.419  20.173  0.00  0.00    +0.000 C 
BRANCH  22  23
ATOM     23  C   UNL     1       0.300  13.076  20.768  0.00  0.00    +0.000 A 
ATOM     24  C   UNL     1      -0.524  13.022  21.830  0.00  0.00    +0.000 A 
ATOM     25  C   UNL     1      -0.761  11.726  22.497  0.00  0.00    +0.000 A 
ATOM     26  O   UNL     1      -1.377  11.687  23.560  0.00  0.00    +0.000 OA
ATOM     27  N   UNL     1      -0.227  10.640  21.841  0.00  0.00    +0.000 N 
ATOM     28  C   UNL     1      -0.347   9.337  22.257  0.00  0.00    +0.000 A 
ATOM     29  C   UNL     1       0.263   8.453  21.461  0.00  0.00    +0.000 A 
ATOM     30  S   UNL     1       1.040   9.248  20.116  0.00  0.00    +0.000 S 
ATOM     31  C   UNL     1       0.518  10.823  20.699  0.00  0.00    +0.000 A 
ATOM     32  N   UNL     1       0.821  11.945  20.151  0.00  0.00    +0.000 NA
ENDBRANCH  22  23
ENDBRANCH   6  22
TORSDOF 3
ENDMDL
MODEL 4
REMARK VINA RESULT:      -8.2      1.787      2.614
REMARK  Name = 
REMARK  3 active torsions:
REMARK  status: ('A' for Active; 'I' for Inactive)
REMARK    1  A    between atoms: C_2  and  C_3
REMARK    2  A    between atoms: N_19  and  C_20
REMARK    3  A    between atoms: C_20  and  C_21
REMARK                            x       y       z     vdW  Elec       q    Type
REMARK                         _______ _______ _______ _____ _____    ______ ____
ROOT
ATOM      1  O   UNL     1       2.858  11.296  17.975  0.00  0.00    +0.000 OA
ATOM      2  C   UNL     1       1.974  10.488  18.280  0.00  0.00    +0.000 C 
ATOM      3  N   UNL     1       0.686  10.923  18.596  0.00  0.00    +0.000 N 
ATOM      4  C   UNL     1      -0.494  10.082  18.874  0.00  0.00    +0.000 C 
ATOM      5  C   UNL     1      -1.137  10.487  20.213  0.00  0.00    +0.000 C 
ATOM      6  N   UNL     1      -1.509  11.920  20.270  0.00  0.00    +0.000 NA
ATOM      7  C   UNL     1      -0.271  12.707  19.991  0.00  0.00    +0.000 C 
ATOM      8  C   UNL     1       0.408  12.361  18.648  0.00  0.00    +0.000 C 
ENDROOT
BRANCH   2   9
ATOM      9  C   UNL     1       2.226   9.060  18.340  0.00  0.00    +0.000 A 
ATOM     10  C   UNL     1       2.856   8.250  17.411  0.00  0.00    +0.000 A 
ATOM     11  C   UNL     1       3.104   6.960  17.915  0.00  0.00    +0.000 A 
ATOM     12  C   UNL     1       2.454   6.737  19.112  0.00  0.00    +0.000 A 
ATOM     13  S   UNL     1       1.687   8.143  19.686  0.00  0.00    +0.000 S 
ATOM     14  C   UNL     1       2.410   5.411  19.735  0.00  0.00    +0.000 A 
ATOM     15  C   UNL     1       2.030   5.179  21.055  0.00  0.00    +0.000 A 
ATOM     16  C   UNL     1       2.026   3.878  21.561  0.00  0.00    +0.000 A 
ATOM     17  C   UNL     1       2.391   2.802  20.747  0.00  0.00    +0.000 A 
ATOM     18  C   UNL     1       2.762   3.019  19.426  0.00  0.00    +0.000 A 
ATOM     19  C   UNL     1       2.795   4.313  18.913  0.00  0.00    +0.000 A 
ATOM     20  C   UNL     1       3.173   4.543  17.455  0.00  0.00    +0.000 C 
ATOM     21  C   UNL     1       3.891   5.879  17.254  0.00  0.00    +0.000 C 
ENDBRANCH   2   9
BRANCH   6  22
ATOM     22  C   UNL     1      -2.590  12.232  19.304  0.00  0.00    +0.000 C 
BRANCH  22  23
ATOM     23  C   UNL     1      -3.978  12.259  19.938  0.00  0.00    +0.000 A 
ATOM     24  C   UNL     1      -5.059  11.885  19.231  0.00  0.00    +0.000 A 
ATOM     25  C   UNL     1      -6.405  12.091  19.803  0.00  0.00    +0.000 A 
ATOM     26  O   UNL     1      -7.402  11.908  19.108  0.00  0.00    +0.000 OA
ATOM     27  N   UNL     1      -6.409  12.506  21.116  0.00  0.00    +0.000 N 
ATOM     28  C   UNL     1      -7.540  12.730  21.862  0.00  0.00    +0.000 A 
ATOM     29  C   UNL     1      -7.296  13.137  23.112  0.00  0.00    +0.000 A 
ATOM     30  S   UNL     1      -5.581  13.259  23.410  0.00  0.00    +0.000 S 
ATOM     31  C   UNL     1      -5.222  12.759  21.763  0.00  0.00    +0.000 A 
ATOM     32  N   UNL     1      -4.043  12.681  21.260  0.00  0.00    +0.000 NA
ENDBRANCH  22  23
ENDBRANCH   6  22
TORSDOF 3
ENDMDL
MODEL 5
REMARK VINA RESULT:      -8.2      1.538      1.784
REMARK  Name = 
REMARK  3 active torsions:
REMARK  status: ('A' for Active; 'I' for Inactive)
REMARK    1  A    between atoms: C_2  and  C_3
REMARK    2  A    between atoms: N_19  and  C_20
REMARK    3  A    between atoms: C_20  and  C_21
REMARK                            x       y       z     vdW  Elec       q    Type
REMARK                         _______ _______ _______ _____ _____    ______ ____
ROOT
ATOM      1  O   UNL     1       2.522  11.230  17.957  0.00  0.00    +0.000 OA
ATOM      2  C   UNL     1       1.662  10.538  18.511  0.00  0.00    +0.000 C 
ATOM      3  N   UNL     1       0.415  11.073  18.841  0.00  0.00    +0.000 N 
ATOM      4  C   UNL     1      -0.742  10.352  19.403  0.00  0.00    +0.000 C 
ATOM      5  C   UNL     1      -1.247  11.058  20.675  0.00  0.00    +0.000 C 
ATOM      6  N   UNL     1      -1.595  12.481  20.450  0.00  0.00    +0.000 NA
ATOM      7  C   UNL     1      -0.381  13.147  19.892  0.00  0.00    +0.000 C 
ATOM      8  C   UNL     1       0.161  12.496  18.602  0.00  0.00    +0.000 C 
ENDROOT
BRANCH   2   9
ATOM      9  C   UNL     1       1.901   9.149  18.860  0.00  0.00    +0.000 A 
ATOM     10  C   UNL     1       1.542   8.470  20.011  0.00  0.00    +0.000 A 
ATOM     11  C   UNL     1       1.754   7.083  19.896  0.00  0.00    +0.000 A 
ATOM     12  C   UNL     1       2.484   6.763  18.769  0.00  0.00    +0.000 A 
ATOM     13  S   UNL     1       2.762   8.124  17.787  0.00  0.00    +0.000 S 
ATOM     14  C   UNL     1       2.988   5.407  18.532  0.00  0.00    +0.000 A 
ATOM     15  C   UNL     1       3.470   4.955  17.306  0.00  0.00    +0.000 A 
ATOM     16  C   UNL     1       3.924   3.641  17.176  0.00  0.00    +0.000 A 
ATOM     17  C   UNL     1       3.907   2.777  18.274  0.00  0.00    +0.000 A 
ATOM     18  C   UNL     1       3.438   3.217  19.504  0.00  0.00    +0.000 A 
ATOM     19  C   UNL     1       2.959   4.518  19.644  0.00  0.00    +0.000 A 
ATOM     20  C   UNL     1       2.475   5.007  21.004  0.00  0.00    +0.000 C 
ATOM     21  C   UNL     1       1.347   6.033  20.873  0.00  0.00    +0.000 C 
ENDBRANCH   2   9
BRANCH   6  22
ATOM     22  C   UNL     1      -2.761  12.611  19.542  0.00  0.00    +0.000 C 
BRANCH  22  23
ATOM     23  C   UNL     1      -4.102  12.481  20.258  0.00  0.00    +0.000 A 
ATOM     24  C   UNL     1      -5.189  12.042  19.598  0.00  0.00    +0.000 A 
ATOM     25  C   UNL     1      -6.508  12.096  20.260  0.00  0.00    +0.000 A 
ATOM     26  O   UNL     1      -7.527  11.853  19.617  0.00  0.00    +0.000 OA
ATOM     27  N   UNL     1      -6.465  12.448  21.590  0.00  0.00    +0.000 N 
ATOM     28  C   UNL     1      -7.561  12.534  22.413  0.00  0.00    +0.000 A 
ATOM     29  C   UNL     1      -7.275  12.903  23.666  0.00  0.00    +0.000 A 
ATOM     30  S   UNL     1      -5.562  13.170  23.866  0.00  0.00    +0.000 S 
ATOM     31  C   UNL     1      -5.266  12.781  22.177  0.00  0.00    +0.000 A 
ATOM     32  N   UNL     1      -4.119  12.835  21.601  0.00  0.00    +0.000 NA
ENDBRANCH  22  23
ENDBRANCH   6  22
TORSDOF 3
ENDMDL
MODEL 6
REMARK VINA RESULT:      -8.1      2.581     10.251
REMARK  Name = 
REMARK  3 active torsions:
REMARK  status: ('A' for Active; 'I' for Inactive)
REMARK    1  A    between atoms: C_2  and  C_3
REMARK    2  A    between atoms: N_19  and  C_20
REMARK    3  A    between atoms: C_20  and  C_21
REMARK                            x       y       z     vdW  Elec       q    Type
REMARK                         _______ _______ _______ _____ _____    ______ ____
ROOT
ATOM      1  O   UNL     1       0.065  13.851  19.708  0.00  0.00    +0.000 OA
ATOM      2  C   UNL     1      -0.344  12.847  20.300  0.00  0.00    +0.000 C 
ATOM      3  N   UNL     1       0.289  11.613  20.139  0.00  0.00    +0.000 N 
ATOM      4  C   UNL     1      -0.012  10.358  20.853  0.00  0.00    +0.000 C 
ATOM      5  C   UNL     1      -0.246   9.213  19.850  0.00  0.00    +0.000 C 
ATOM      6  N   UNL     1       0.892   9.010  18.924  0.00  0.00    +0.000 NA
ATOM      7  C   UNL     1       1.133  10.311  18.232  0.00  0.00    +0.000 C 
ATOM      8  C   UNL     1       1.396  11.496  19.186  0.00  0.00    +0.000 C 
ENDROOT
BRANCH   2   9
ATOM      9  C   UNL     1      -1.500  12.890  21.178  0.00  0.00    +0.000 A 
ATOM     10  C   UNL     1      -1.543  13.090  22.546  0.00  0.00    +0.000 A 
ATOM     11  C   UNL     1      -2.857  13.281  23.013  0.00  0.00    +0.000 A 
ATOM     12  C   UNL     1      -3.797  12.987  22.046  0.00  0.00    +0.000 A 
ATOM     13  S   UNL     1      -3.076  12.642  20.546  0.00  0.00    +0.000 S 
ATOM     14  C   UNL     1      -5.230  12.933  22.351  0.00  0.00    +0.000 A 
ATOM     15  C   UNL     1      -6.235  12.929  21.387  0.00  0.00    +0.000 A 
ATOM     16  C   UNL     1      -7.576  12.881  21.776  0.00  0.00    +0.000 A 
ATOM     17  C   UNL     1      -7.916  12.826  23.130  0.00  0.00    +0.000 A 
ATOM     18  C   UNL     1      -6.923  12.819  24.101  0.00  0.00    +0.000 A 
ATOM     19  C   UNL     1      -5.582  12.891  23.730  0.00  0.00    +0.000 A 
ATOM     20  C   UNL     1      -4.496  12.851  24.798  0.00  0.00    +0.000 C 
ATOM     21  C   UNL     1      -3.267  13.669  24.394  0.00  0.00    +0.000 C 
ENDBRANCH   2   9
BRANCH   6  22
ATOM     22  C   UNL     1       2.098   8.541  19.650  0.00  0.00    +0.000 C 
BRANCH  22  23
ATOM     23  C   UNL     1       2.425   7.074  19.392  0.00  0.00    +0.000 A 
ATOM     24  C   UNL     1       3.180   6.717  18.338  0.00  0.00    +0.000 A 
ATOM     25  C   UNL     1       3.333   5.286  18.006  0.00  0.00    +0.000 A 
ATOM     26  O   UNL     1       3.881   4.954  16.958  0.00  0.00    +0.000 OA
ATOM     27  N   UNL     1       2.803   4.425  18.941  0.00  0.00    +0.000 N 
ATOM     28  C   UNL     1       2.853   3.055  18.861  0.00  0.00    +0.000 A 
ATOM     29  C   UNL     1       2.262   2.427  19.883  0.00  0.00    +0.000 A 
ATOM     30  S   UNL     1       1.597   3.569  21.022  0.00  0.00    +0.000 S 
ATOM     31  C   UNL     1       2.135   4.922  20.036  0.00  0.00    +0.000 A 
ATOM     32  N   UNL     1       1.905   6.158  20.299  0.00  0.00    +0.000 NA
ENDBRANCH  22  23
ENDBRANCH   6  22
TORSDOF 3
ENDMDL
MODEL 7
REMARK VINA RESULT:      -8.1      1.920      2.656
REMARK  Name = 
REMARK  3 active torsions:
REMARK  status: ('A' for Active; 'I' for Inactive)
REMARK    1  A    between atoms: C_2  and  C_3
REMARK    2  A    between atoms: N_19  and  C_20
REMARK    3  A    between atoms: C_20  and  C_21
REMARK                            x       y       z     vdW  Elec       q    Type
REMARK                         _______ _______ _______ _____ _____    ______ ____
ROOT
ATOM      1  O   UNL     1       2.438  10.808  17.497  0.00  0.00    +0.000 OA
ATOM      2  C   UNL     1       1.919  10.076  18.346  0.00  0.00    +0.000 C 
ATOM      3  N   UNL     1       1.034  10.595  19.292  0.00  0.00    +0.000 N 
ATOM      4  C   UNL     1       0.258   9.840  20.294  0.00  0.00    +0.000 C 
ATOM      5  C   UNL     1       0.491  10.421  21.701  0.00  0.00    +0.000 C 
ATOM      6  N   UNL     1       0.172  11.865  21.794  0.00  0.00    +0.000 NA
ATOM      7  C   UNL     1       0.996  12.564  20.764  0.00  0.00    +0.000 C 
ATOM      8  C   UNL     1       0.789  12.040  19.327  0.00  0.00    +0.000 C 
ENDROOT
BRANCH   2   9
ATOM      9  C   UNL     1       2.207   8.655  18.417  0.00  0.00    +0.000 A 
ATOM     10  C   UNL     1       2.856   7.855  17.493  0.00  0.00    +0.000 A 
ATOM     11  C   UNL     1       3.138   6.575  18.006  0.00  0.00    +0.000 A 
ATOM     12  C   UNL     1       2.495   6.345  19.205  0.00  0.00    +0.000 A 
ATOM     13  S   UNL     1       1.693   7.735  19.770  0.00  0.00    +0.000 S 
ATOM     14  C   UNL     1       2.486   5.023  19.838  0.00  0.00    +0.000 A 
ATOM     15  C   UNL     1       2.114   4.791  21.160  0.00  0.00    +0.000 A 
ATOM     16  C   UNL     1       2.143   3.494  21.677  0.00  0.00    +0.000 A 
ATOM     17  C   UNL     1       2.535   2.422  20.870  0.00  0.00    +0.000 A 
ATOM     18  C   UNL     1       2.899   2.638  19.548  0.00  0.00    +0.000 A 
ATOM     19  C   UNL     1       2.898   3.929  19.025  0.00  0.00    +0.000 A 
ATOM     20  C   UNL     1       3.268   4.157  17.564  0.00  0.00    +0.000 C 
ATOM     21  C   UNL     1       3.952   5.510  17.352  0.00  0.00    +0.000 C 
ENDBRANCH   2   9
BRANCH   6  22
ATOM     22  C   UNL     1      -1.279  12.107  21.598  0.00  0.00    +0.000 C 
BRANCH  22  23
ATOM     23  C   UNL     1      -1.827  13.233  22.470  0.00  0.00    +0.000 A 
ATOM     24  C   UNL     1      -1.047  13.821  23.395  0.00  0.00    +0.000 A 
ATOM     25  C   UNL     1      -1.648  14.778  24.346  0.00  0.00    +0.000 A 
ATOM     26  O   UNL     1      -0.989  15.197  25.294  0.00  0.00    +0.000 OA
ATOM     27  N   UNL     1      -2.957  15.108  24.072  0.00  0.00    +0.000 N 
ATOM     28  C   UNL     1      -3.708  15.998  24.799  0.00  0.00    +0.000 A 
ATOM     29  C   UNL     1      -4.958  16.151  24.349  0.00  0.00    +0.000 A 
ATOM     30  S   UNL     1      -5.250  15.149  22.951  0.00  0.00    +0.000 S 
ATOM     31  C   UNL     1      -3.616  14.504  23.026  0.00  0.00    +0.000 A 
ATOM     32  N   UNL     1      -3.148  13.599  22.245  0.00  0.00    +0.000 NA
ENDBRANCH  22  23
ENDBRANCH   6  22
TORSDOF 3
ENDMDL
MODEL 8
REMARK VINA RESULT:      -8.1      2.626     10.617
REMARK  Name = 
REMARK  3 active torsions:
REMARK  status: ('A' for Active; 'I' for Inactive)
REMARK    1  A    between atoms: C_2  and  C_3
REMARK    2  A    between atoms: N_19  and  C_20
REMARK    3  A    between atoms: C_20  and  C_21
REMARK                            x       y       z     vdW  Elec       q    Type
REMARK                         _______ _______ _______ _____ _____    ______ ____
ROOT
ATOM      1  O   UNL     1       0.091  13.859  20.068  0.00  0.00    +0.000 OA
ATOM      2  C   UNL     1      -0.556  12.807  20.037  0.00  0.00    +0.000 C 
ATOM      3  N   UNL     1       0.075  11.586  19.796  0.00  0.00    +0.000 N 
ATOM      4  C   UNL     1      -0.537  10.244  19.832  0.00  0.00    +0.000 C 
ATOM      5  C   UNL     1      -0.245   9.485  18.525  0.00  0.00    +0.000 C 
ATOM      6  N   UNL     1       1.203   9.375  18.228  0.00  0.00    +0.000 NA
ATOM      7  C   UNL     1       1.752  10.763  18.197  0.00  0.00    +0.000 C 
ATOM      8  C   UNL     1       1.509  11.569  19.491  0.00  0.00    +0.000 C 
ENDROOT
BRANCH   2   9
ATOM      9  C   UNL     1      -1.995  12.783  20.233  0.00  0.00    +0.000 A 
ATOM     10  C   UNL     1      -2.992  12.536  19.306  0.00  0.00    +0.000 A 
ATOM     11  C   UNL     1      -4.253  12.385  19.912  0.00  0.00    +0.000 A 
ATOM     12  C   UNL     1      -4.235  12.753  21.242  0.00  0.00    +0.000 A 
ATOM     13  S   UNL     1      -2.663  13.120  21.776  0.00  0.00    +0.000 S 
ATOM     14  C   UNL     1      -5.465  12.858  22.033  0.00  0.00    +0.000 A 
ATOM     15  C   UNL     1      -5.496  12.938  23.424  0.00  0.00    +0.000 A 
ATOM     16  C   UNL     1      -6.720  13.030  24.091  0.00  0.00    +0.000 A 
ATOM     17  C   UNL     1      -7.916  13.052  23.369  0.00  0.00    +0.000 A 
ATOM     18  C   UNL     1      -7.899  12.982  21.982  0.00  0.00    +0.000 A 
ATOM     19  C   UNL     1      -6.688  12.866  21.304  0.00  0.00    +0.000 A 
ATOM     20  C   UNL     1      -6.672  12.822  19.781  0.00  0.00    +0.000 C 
ATOM     21  C   UNL     1      -5.520  11.967  19.246  0.00  0.00    +0.000 C 
ENDBRANCH   2   9
BRANCH   6  22
ATOM     22  C   UNL     1       1.894   8.532  19.234  0.00  0.00    +0.000 C 
BRANCH  22  23
ATOM     23  C   UNL     1       2.653   7.359  18.621  0.00  0.00    +0.000 A 
ATOM     24  C   UNL     1       3.614   7.573  17.704  0.00  0.00    +0.000 A 
ATOM     25  C   UNL     1       4.207   6.421  16.995  0.00  0.00    +0.000 A 
ATOM     26  O   UNL     1       4.964   6.609  16.045  0.00  0.00    +0.000 OA
ATOM     27  N   UNL     1       3.819   5.192  17.479  0.00  0.00    +0.000 N 
ATOM     28  C   UNL     1       4.263   3.985  16.997  0.00  0.00    +0.000 A 
ATOM     29  C   UNL     1       3.740   2.924  17.620  0.00  0.00    +0.000 A 
ATOM     30  S   UNL     1       2.631   3.415  18.874  0.00  0.00    +0.000 S 
ATOM     31  C   UNL     1       2.896   5.112  18.495  0.00  0.00    +0.000 A 
ATOM     32  N   UNL     1       2.293   6.093  19.064  0.00  0.00    +0.000 NA
ENDBRANCH  22  23
ENDBRANCH   6  22
TORSDOF 3
ENDMDL
MODEL 9
REMARK VINA RESULT:      -8.1      1.867      2.036
REMARK  Name = 
REMARK  3 active torsions:
REMARK  status: ('A' for Active; 'I' for Inactive)
REMARK    1  A    between atoms: C_2  and  C_3
REMARK    2  A    between atoms: N_19  and  C_20
REMARK    3  A    between atoms: C_20  and  C_21
REMARK                            x       y       z     vdW  Elec       q    Type
REMARK                         _______ _______ _______ _____ _____    ______ ____
ROOT
ATOM      1  O   UNL     1       2.297   9.949  17.550  0.00  0.00    +0.000 OA
ATOM      2  C   UNL     1       1.782   9.433  18.548  0.00  0.00    +0.000 C 
ATOM      3  N   UNL     1       0.953  10.176  19.390  0.00  0.00    +0.000 N 
ATOM      4  C   UNL     1       0.186   9.680  20.548  0.00  0.00    +0.000 C 
ATOM      5  C   UNL     1       0.493  10.527  21.797  0.00  0.00    +0.000 C 
ATOM      6  N   UNL     1       0.233  11.972  21.597  0.00  0.00    +0.000 NA
ATOM      7  C   UNL     1       1.044  12.406  20.421  0.00  0.00    +0.000 C 
ATOM      8  C   UNL     1       0.765  11.606  19.130  0.00  0.00    +0.000 C 
ENDROOT
BRANCH   2   9
ATOM      9  C   UNL     1       2.018   8.046  18.904  0.00  0.00    +0.000 A 
ATOM     10  C   UNL     1       1.823   7.418  20.122  0.00  0.00    +0.000 A 
ATOM     11  C   UNL     1       1.957   6.020  20.025  0.00  0.00    +0.000 A 
ATOM     12  C   UNL     1       2.482   5.634  18.808  0.00  0.00    +0.000 A 
ATOM     13  S   UNL     1       2.651   6.951  17.745  0.00  0.00    +0.000 S 
ATOM     14  C   UNL     1       2.885   4.250  18.543  0.00  0.00    +0.000 A 
ATOM     15  C   UNL     1       3.144   3.740  17.273  0.00  0.00    +0.000 A 
ATOM     16  C   UNL     1       3.517   2.403  17.120  0.00  0.00    +0.000 A 
ATOM     17  C   UNL     1       3.643   1.573  18.237  0.00  0.00    +0.000 A 
ATOM     18  C   UNL     1       3.397   2.071  19.510  0.00  0.00    +0.000 A 
ATOM     19  C   UNL     1       3.000   3.396  19.677  0.00  0.00    +0.000 A 
ATOM     20  C   UNL     1       2.762   3.947  21.078  0.00  0.00    +0.000 C 
ATOM     21  C   UNL     1       1.671   5.020  21.093  0.00  0.00    +0.000 C 
ENDBRANCH   2   9
BRANCH   6  22
ATOM     22  C   UNL     1      -1.213  12.234  21.395  0.00  0.00    +0.000 C 
BRANCH  22  23
ATOM     23  C   UNL     1      -1.765  13.320  22.314  0.00  0.00    +0.000 A 
ATOM     24  C   UNL     1      -0.990  13.863  23.271  0.00  0.00    +0.000 A 
ATOM     25  C   UNL     1      -1.596  14.777  24.260  0.00  0.00    +0.000 A 
ATOM     26  O   UNL     1      -0.943  15.150  25.232  0.00  0.00    +0.000 OA
ATOM     27  N   UNL     1      -2.902  15.122  23.993  0.00  0.00    +0.000 N 
ATOM     28  C   UNL     1      -3.656  15.981  24.755  0.00  0.00    +0.000 A 
ATOM     29  C   UNL     1      -4.902  16.158  24.303  0.00  0.00    +0.000 A 
ATOM     30  S   UNL     1      -5.186  15.222  22.859  0.00  0.00    +0.000 S 
ATOM     31  C   UNL     1      -3.555  14.570  22.916  0.00  0.00    +0.000 A 
ATOM     32  N   UNL     1      -3.083  13.700  22.097  0.00  0.00    +0.000 NA
ENDBRANCH  22  23
ENDBRANCH   6  22
TORSDOF 3
ENDMDL
