MODEL 1
REMARK VINA RESULT:      -7.2      0.000      0.000
REMARK  Name = 
REMARK  2 active torsions:
REMARK  status: ('A' for Active; 'I' for Inactive)
REMARK    1  A    between atoms: C_2  and  C_12
REMARK    2  A    between atoms: N_3  and  C_4
REMARK                            x       y       z     vdW  Elec       q    Type
REMARK                         _______ _______ _______ _____ _____    ______ ____
ROOT
ATOM      1  C   UNL     1       1.331   8.520  20.251  0.00  0.00    +0.000 A 
ATOM      2  C   UNL     1       1.193   8.489  21.651  0.00  0.00    +0.000 A 
ATOM      3  C   UNL     1       0.356   9.396  22.299  0.00  0.00    +0.000 A 
ATOM      4 CL   UNL     1       0.196   9.334  24.011  0.00  0.00    +0.000 Cl
ATOM      5  C   UNL     1      -0.353  10.349  21.575  0.00  0.00    +0.000 A 
ATOM      6  C   UNL     1      -0.213  10.412  20.184  0.00  0.00    +0.000 A 
ATOM      7  C   UNL     1       0.623   9.490  19.526  0.00  0.00    +0.000 A 
ATOM      8  O   UNL     1       0.603   9.569  18.164  0.00  0.00    +0.000 OA
ATOM      9  C   UNL     1       1.743  10.154  17.543  0.00  0.00    +0.000 C 
ATOM     10  C   UNL     1       2.388  11.403  18.166  0.00  0.00    +0.000 C 
ATOM     11  C   UNL     1       1.556  12.365  19.022  0.00  0.00    +0.000 C 
ATOM     12  C   UNL     1       0.071  12.472  18.662  0.00  0.00    +0.000 C 
ATOM     13  C   UNL     1      -0.889  11.513  19.401  0.00  0.00    +0.000 C 
ENDROOT
BRANCH   1  15
ATOM     14  O   UNL     1       2.997   7.772  18.736  0.00  0.00    +0.000 OA
ATOM     15  C   UNL     1       2.157   7.477  19.572  0.00  0.00    +0.000 C 
ATOM     16  N   UNL     1       1.898   6.172  19.942  0.00  0.00    +0.000 N 
ATOM     17  H   UNL     1       1.361   5.978  20.771  0.00  0.00    +0.000 HD
BRANCH  16  18
ATOM     18  C   UNL     1       2.600   5.058  19.315  0.00  0.00    +0.000 C 
ATOM     19  C   UNL     1       1.869   4.578  18.035  0.00  0.00    +0.000 C 
ATOM     20  N   UNL     1       1.454   3.158  18.132  0.00  0.00    +0.000 NA
ATOM     21  C   UNL     1       2.672   2.330  18.288  0.00  0.00    +0.000 C 
ATOM     22  C   UNL     1       3.498   2.749  19.517  0.00  0.00    +0.000 C 
ATOM     23  C   UNL     1       2.755   3.861  20.279  0.00  0.00    +0.000 C 
ATOM     24  C   UNL     1       1.364   3.300  20.627  0.00  0.00    +0.000 C 
ATOM     25  C   UNL     1       0.601   2.996  19.329  0.00  0.00    +0.000 C 
ENDBRANCH  16  18
ENDBRANCH   1  15
TORSDOF 2
ENDMDL
MODEL 2
REMARK VINA RESULT:      -7.2      2.823      7.374
REMARK  Name = 
REMARK  2 active torsions:
REMARK  status: ('A' for Active; 'I' for Inactive)
REMARK    1  A    between atoms: C_2  and  C_12
REMARK    2  A    between atoms: N_3  and  C_4
REMARK                            x       y       z     vdW  Elec       q    Type
REMARK                         _______ _______ _______ _____ _____    ______ ____
ROOT
ATOM      1  C   UNL     1       2.659   6.335  18.974  0.00  0.00    +0.000 A 
ATOM      2  C   UNL     1       3.741   6.838  18.229  0.00  0.00    +0.000 A 
ATOM      3  C   UNL     1       4.353   6.052  17.254  0.00  0.00    +0.000 A 
ATOM      4 CL   UNL     1       5.669   6.690  16.348  0.00  0.00    +0.000 Cl
ATOM      5  C   UNL     1       3.909   4.757  17.005  0.00  0.00    +0.000 A 
ATOM      6  C   UNL     1       2.850   4.229  17.751  0.00  0.00    +0.000 A 
ATOM      7  C   UNL     1       2.222   5.026  18.727  0.00  0.00    +0.000 A 
ATOM      8  O   UNL     1       1.133   4.454  19.318  0.00  0.00    +0.000 OA
ATOM      9  C   UNL     1       1.304   3.985  20.652  0.00  0.00    +0.000 C 
ATOM     10  C   UNL     1       2.598   3.250  21.035  0.00  0.00    +0.000 C 
ATOM     11  C   UNL     1       3.408   2.491  19.977  0.00  0.00    +0.000 C 
ATOM     12  C   UNL     1       2.604   1.897  18.816  0.00  0.00    +0.000 C 
ATOM     13  C   UNL     1       2.434   2.789  17.567  0.00  0.00    +0.000 C 
ENDROOT
BRANCH   1  15
ATOM     14  O   UNL     1       1.656   6.846  21.063  0.00  0.00    +0.000 OA
ATOM     15  C   UNL     1       1.957   7.230  19.944  0.00  0.00    +0.000 C 
ATOM     16  N   UNL     1       1.667   8.500  19.486  0.00  0.00    +0.000 N 
ATOM     17  H   UNL     1       2.108   8.850  18.653  0.00  0.00    +0.000 HD
BRANCH  16  18
ATOM     18  C   UNL     1       0.939   9.452  20.318  0.00  0.00    +0.000 C 
ATOM     19  C   UNL     1      -0.591   9.352  20.083  0.00  0.00    +0.000 C 
ATOM     20  N   UNL     1      -1.162  10.631  19.597  0.00  0.00    +0.000 NA
ATOM     21  C   UNL     1      -0.935  11.663  20.635  0.00  0.00    +0.000 C 
ATOM     22  C   UNL     1       0.558  11.818  20.974  0.00  0.00    +0.000 C 
ATOM     23  C   UNL     1       1.390  10.906  20.055  0.00  0.00    +0.000 C 
ATOM     24  C   UNL     1       1.036  11.299  18.610  0.00  0.00    +0.000 C 
ATOM     25  C   UNL     1      -0.454  11.025  18.360  0.00  0.00    +0.000 C 
ENDBRANCH  16  18
ENDBRANCH   1  15
TORSDOF 2
ENDMDL
MODEL 3
REMARK VINA RESULT:      -7.1      2.266      3.374
REMARK  Name = 
REMARK  2 active torsions:
REMARK  status: ('A' for Active; 'I' for Inactive)
REMARK    1  A    between atoms: C_2  and  C_12
REMARK    2  A    between atoms: N_3  and  C_4
REMARK                            x       y       z     vdW  Elec       q    Type
REMARK                         _______ _______ _______ _____ _____    ______ ____
ROOT
ATOM      1  C   UNL     1       0.297   9.899  18.793  0.00  0.00    +0.000 A 
ATOM      2  C   UNL     1      -0.805  10.000  17.925  0.00  0.00    +0.000 A 
ATOM      3  C   UNL     1      -1.867  10.851  18.227  0.00  0.00    +0.000 A 
ATOM      4 CL   UNL     1      -3.201  10.965  17.146  0.00  0.00    +0.000 Cl
ATOM      5  C   UNL     1      -1.858  11.610  19.392  0.00  0.00    +0.000 A 
ATOM      6  C   UNL     1      -0.783  11.507  20.281  0.00  0.00    +0.000 A 
ATOM      7  C   UNL     1       0.297  10.657  19.972  0.00  0.00    +0.000 A 
ATOM      8  O   UNL     1       1.339  10.715  20.850  0.00  0.00    +0.000 OA
ATOM      9  C   UNL     1       1.486   9.611  21.738  0.00  0.00    +0.000 C 
ATOM     10  C   UNL     1       0.240   8.994  22.391  0.00  0.00    +0.000 C 
ATOM     11  C   UNL     1      -1.023   9.836  22.614  0.00  0.00    +0.000 C 
ATOM     12  C   UNL     1      -0.798  11.332  22.852  0.00  0.00    +0.000 C 
ATOM     13  C   UNL     1      -0.814  12.240  21.602  0.00  0.00    +0.000 C 
ENDROOT
BRANCH   1  15
ATOM     14  O   UNL     1       2.230   9.397  17.511  0.00  0.00    +0.000 OA
ATOM     15  C   UNL     1       1.466   9.055  18.400  0.00  0.00    +0.000 C 
ATOM     16  N   UNL     1       1.611   7.870  19.095  0.00  0.00    +0.000 N 
ATOM     17  H   UNL     1       1.101   7.719  19.949  0.00  0.00    +0.000 HD
BRANCH  16  18
ATOM     18  C   UNL     1       2.682   6.934  18.771  0.00  0.00    +0.000 C 
ATOM     19  C   UNL     1       2.242   5.932  17.673  0.00  0.00    +0.000 C 
ATOM     20  N   UNL     1       2.305   4.528  18.145  0.00  0.00    +0.000 NA
ATOM     21  C   UNL     1       3.711   4.220  18.494  0.00  0.00    +0.000 C 
ATOM     22  C   UNL     1       4.263   5.186  19.558  0.00  0.00    +0.000 C 
ATOM     23  C   UNL     1       3.146   6.141  20.013  0.00  0.00    +0.000 C 
ATOM     24  C   UNL     1       1.991   5.256  20.517  0.00  0.00    +0.000 C 
ATOM     25  C   UNL     1       1.466   4.398  19.356  0.00  0.00    +0.000 C 
ENDBRANCH  16  18
ENDBRANCH   1  15
TORSDOF 2
ENDMDL
MODEL 4
REMARK VINA RESULT:      -7.0      2.950      7.020
REMARK  Name = 
REMARK  2 active torsions:
REMARK  status: ('A' for Active; 'I' for Inactive)
REMARK    1  A    between atoms: C_2  and  C_12
REMARK    2  A    between atoms: N_3  and  C_4
REMARK                            x       y       z     vdW  Elec       q    Type
REMARK                         _______ _______ _______ _____ _____    ______ ____
ROOT
ATOM      1  C   UNL     1       3.085   6.621  18.551  0.00  0.00    +0.000 A 
ATOM      2  C   UNL     1       2.302   5.809  19.392  0.00  0.00    +0.000 A 
ATOM      3  C   UNL     1       2.868   4.713  20.042  0.00  0.00    +0.000 A 
ATOM      4 CL   UNL     1       1.895   3.738  21.073  0.00  0.00    +0.000 Cl
ATOM      5  C   UNL     1       4.213   4.401  19.867  0.00  0.00    +0.000 A 
ATOM      6  C   UNL     1       5.003   5.183  19.017  0.00  0.00    +0.000 A 
ATOM      7  C   UNL     1       4.437   6.297  18.369  0.00  0.00    +0.000 A 
ATOM      8  O   UNL     1       5.319   7.051  17.652  0.00  0.00    +0.000 OA
ATOM      9  C   UNL     1       5.254   6.931  16.234  0.00  0.00    +0.000 C 
ATOM     10  C   UNL     1       5.061   5.545  15.600  0.00  0.00    +0.000 C 
ATOM     11  C   UNL     1       5.522   4.280  16.332  0.00  0.00    +0.000 C 
ATOM     12  C   UNL     1       6.733   4.443  17.257  0.00  0.00    +0.000 C 
ATOM     13  C   UNL     1       6.433   4.788  18.733  0.00  0.00    +0.000 C 
ENDROOT
BRANCH   1  15
ATOM     14  O   UNL     1       2.716   8.168  16.790  0.00  0.00    +0.000 OA
ATOM     15  C   UNL     1       2.480   7.845  17.943  0.00  0.00    +0.000 C 
ATOM     16  N   UNL     1       1.655   8.581  18.772  0.00  0.00    +0.000 N 
ATOM     17  H   UNL     1       1.317   8.183  19.631  0.00  0.00    +0.000 HD
BRANCH  16  18
ATOM     18  C   UNL     1       1.045   9.824  18.314  0.00  0.00    +0.000 C 
ATOM     19  C   UNL     1       1.975  11.038  18.574  0.00  0.00    +0.000 C 
ATOM     20  N   UNL     1       1.341  12.043  19.462  0.00  0.00    +0.000 NA
ATOM     21  C   UNL     1       0.121  12.548  18.791  0.00  0.00    +0.000 C 
ATOM     22  C   UNL     1      -0.861  11.413  18.452  0.00  0.00    +0.000 C 
ATOM     23  C   UNL     1      -0.315  10.082  19.000  0.00  0.00    +0.000 C 
ATOM     24  C   UNL     1      -0.097  10.285  20.510  0.00  0.00    +0.000 C 
ATOM     25  C   UNL     1       0.959  11.380  20.728  0.00  0.00    +0.000 C 
ENDBRANCH  16  18
ENDBRANCH   1  15
TORSDOF 2
ENDMDL
MODEL 5
REMARK VINA RESULT:      -7.0      9.029     11.096
REMARK  Name = 
REMARK  2 active torsions:
REMARK  status: ('A' for Active; 'I' for Inactive)
REMARK    1  A    between atoms: C_2  and  C_12
REMARK    2  A    between atoms: N_3  and  C_4
REMARK                            x       y       z     vdW  Elec       q    Type
REMARK                         _______ _______ _______ _____ _____    ______ ____
ROOT
ATOM      1  C   UNL     1       8.684  14.645  19.620  0.00  0.00    +0.000 A 
ATOM      2  C   UNL     1       9.100  15.975  19.431  0.00  0.00    +0.000 A 
ATOM      3  C   UNL     1      10.094  16.279  18.502  0.00  0.00    +0.000 A 
ATOM      4 CL   UNL     1      10.582  17.914  18.279  0.00  0.00    +0.000 Cl
ATOM      5  C   UNL     1      10.694  15.273  17.750  0.00  0.00    +0.000 A 
ATOM      6  C   UNL     1      10.310  13.940  17.940  0.00  0.00    +0.000 A 
ATOM      7  C   UNL     1       9.298  13.633  18.869  0.00  0.00    +0.000 A 
ATOM      8  O   UNL     1       8.927  12.321  18.897  0.00  0.00    +0.000 OA
ATOM      9  C   UNL     1       9.371  11.556  20.013  0.00  0.00    +0.000 C 
ATOM     10  C   UNL     1      10.805  11.740  20.534  0.00  0.00    +0.000 C 
ATOM     11  C   UNL     1      11.920  12.222  19.598  0.00  0.00    +0.000 C 
ATOM     12  C   UNL     1      11.776  11.829  18.125  0.00  0.00    +0.000 C 
ATOM     13  C   UNL     1      11.032  12.831  17.213  0.00  0.00    +0.000 C 
ENDROOT
BRANCH   1  15
ATOM     14  O   UNL     1       6.416  14.742  20.313  0.00  0.00    +0.000 OA
ATOM     15  C   UNL     1       7.550  14.357  20.550  0.00  0.00    +0.000 C 
ATOM     16  N   UNL     1       7.874  13.644  21.688  0.00  0.00    +0.000 N 
ATOM     17  H   UNL     1       8.757  13.165  21.751  0.00  0.00    +0.000 HD
BRANCH  16  18
ATOM     18  C   UNL     1       6.867  13.343  22.700  0.00  0.00    +0.000 C 
ATOM     19  C   UNL     1       6.964  14.321  23.900  0.00  0.00    +0.000 C 
ATOM     20  N   UNL     1       7.234  13.611  25.174  0.00  0.00    +0.000 NA
ATOM     21  C   UNL     1       6.106  12.688  25.438  0.00  0.00    +0.000 C 
ATOM     22  C   UNL     1       5.897  11.692  24.284  0.00  0.00    +0.000 C 
ATOM     23  C   UNL     1       6.995  11.895  23.224  0.00  0.00    +0.000 C 
ATOM     24  C   UNL     1       8.342  11.731  23.951  0.00  0.00    +0.000 C 
ATOM     25  C   UNL     1       8.478  12.825  25.021  0.00  0.00    +0.000 C 
ENDBRANCH  16  18
ENDBRANCH   1  15
TORSDOF 2
ENDMDL
MODEL 6
REMARK VINA RESULT:      -7.0      3.691      6.340
REMARK  Name = 
REMARK  2 active torsions:
REMARK  status: ('A' for Active; 'I' for Inactive)
REMARK    1  A    between atoms: C_2  and  C_12
REMARK    2  A    between atoms: N_3  and  C_4
REMARK                            x       y       z     vdW  Elec       q    Type
REMARK                         _______ _______ _______ _____ _____    ______ ____
ROOT
ATOM      1  C   UNL     1       3.599   5.649  19.412  0.00  0.00    +0.000 A 
ATOM      2  C   UNL     1       2.901   6.836  19.702  0.00  0.00    +0.000 A 
ATOM      3  C   UNL     1       1.766   6.808  20.511  0.00  0.00    +0.000 A 
ATOM      4 CL   UNL     1       0.932   8.272  20.860  0.00  0.00    +0.000 Cl
ATOM      5  C   UNL     1       1.301   5.608  21.039  0.00  0.00    +0.000 A 
ATOM      6  C   UNL     1       1.967   4.414  20.744  0.00  0.00    +0.000 A 
ATOM      7  C   UNL     1       3.121   4.441  19.938  0.00  0.00    +0.000 A 
ATOM      8  O   UNL     1       3.753   3.239  19.804  0.00  0.00    +0.000 OA
ATOM      9  C   UNL     1       3.606   2.579  18.550  0.00  0.00    +0.000 C 
ATOM     10  C   UNL     1       2.234   2.569  17.857  0.00  0.00    +0.000 C 
ATOM     11  C   UNL     1       0.944   2.691  18.676  0.00  0.00    +0.000 C 
ATOM     12  C   UNL     1       0.994   2.118  20.096  0.00  0.00    +0.000 C 
ATOM     13  C   UNL     1       1.407   3.094  21.220  0.00  0.00    +0.000 C 
ENDROOT
BRANCH   1  15
ATOM     14  O   UNL     1       5.959   5.687  19.170  0.00  0.00    +0.000 OA
ATOM     15  C   UNL     1       4.867   5.718  18.625  0.00  0.00    +0.000 C 
ATOM     16  N   UNL     1       4.718   5.831  17.257  0.00  0.00    +0.000 N 
ATOM     17  H   UNL     1       3.828   5.644  16.828  0.00  0.00    +0.000 HD
BRANCH  16  18
ATOM     18  C   UNL     1       5.878   5.959  16.381  0.00  0.00    +0.000 C 
ATOM     19  C   UNL     1       5.459   6.370  14.946  0.00  0.00    +0.000 C 
ATOM     20  N   UNL     1       5.871   5.362  13.938  0.00  0.00    +0.000 NA
ATOM     21  C   UNL     1       7.348   5.261  13.962  0.00  0.00    +0.000 C 
ATOM     22  C   UNL     1       7.877   4.892  15.359  0.00  0.00    +0.000 C 
ATOM     23  C   UNL     1       6.690   4.647  16.308  0.00  0.00    +0.000 C 
ATOM     24  C   UNL     1       5.830   3.548  15.659  0.00  0.00    +0.000 C 
ATOM     25  C   UNL     1       5.290   4.055  14.313  0.00  0.00    +0.000 C 
ENDBRANCH  16  18
ENDBRANCH   1  15
TORSDOF 2
ENDMDL
MODEL 7
REMARK VINA RESULT:      -6.9      3.459      5.774
REMARK  Name = 
REMARK  2 active torsions:
REMARK  status: ('A' for Active; 'I' for Inactive)
REMARK    1  A    between atoms: C_2  and  C_12
REMARK    2  A    between atoms: N_3  and  C_4
REMARK                            x       y       z     vdW  Elec       q    Type
REMARK                         _______ _______ _______ _____ _____    ______ ____
ROOT
ATOM      1  C   UNL     1       2.831   6.786  18.823  0.00  0.00    +0.000 A 
ATOM      2  C   UNL     1       2.109   7.864  19.367  0.00  0.00    +0.000 A 
ATOM      3  C   UNL     1       1.421   7.718  20.570  0.00  0.00    +0.000 A 
ATOM      4 CL   UNL     1       0.552   9.052  21.222  0.00  0.00    +0.000 Cl
ATOM      5  C   UNL     1       1.431   6.505  21.251  0.00  0.00    +0.000 A 
ATOM      6  C   UNL     1       2.124   5.413  20.715  0.00  0.00    +0.000 A 
ATOM      7  C   UNL     1       2.830   5.561  19.506  0.00  0.00    +0.000 A 
ATOM      8  O   UNL     1       3.557   4.470  19.131  0.00  0.00    +0.000 OA
ATOM      9  C   UNL     1       3.038   3.698  18.053  0.00  0.00    +0.000 C 
ATOM     10  C   UNL     1       1.530   3.413  17.984  0.00  0.00    +0.000 C 
ATOM     11  C   UNL     1       0.680   3.391  19.260  0.00  0.00    +0.000 C 
ATOM     12  C   UNL     1       1.399   2.947  20.537  0.00  0.00    +0.000 C 
ATOM     13  C   UNL     1       2.049   4.062  21.387  0.00  0.00    +0.000 C 
ENDROOT
BRANCH   1  15
ATOM     14  O   UNL     1       3.303   7.801  16.731  0.00  0.00    +0.000 OA
ATOM     15  C   UNL     1       3.639   6.995  17.584  0.00  0.00    +0.000 C 
ATOM     16  N   UNL     1       4.772   6.214  17.468  0.00  0.00    +0.000 N 
ATOM     17  H   UNL     1       5.132   5.723  18.269  0.00  0.00    +0.000 HD
BRANCH  16  18
ATOM     18  C   UNL     1       5.619   6.286  16.282  0.00  0.00    +0.000 C 
ATOM     19  C   UNL     1       4.976   5.540  15.084  0.00  0.00    +0.000 C 
ATOM     20  N   UNL     1       5.835   4.435  14.593  0.00  0.00    +0.000 NA
ATOM     21  C   UNL     1       7.114   5.017  14.124  0.00  0.00    +0.000 C 
ATOM     22  C   UNL     1       7.822   5.817  15.233  0.00  0.00    +0.000 C 
ATOM     23  C   UNL     1       7.023   5.696  16.542  0.00  0.00    +0.000 C 
ATOM     24  C   UNL     1       6.898   4.192  16.844  0.00  0.00    +0.000 C 
ATOM     25  C   UNL     1       6.106   3.512  15.717  0.00  0.00    +0.000 C 
ENDBRANCH  16  18
ENDBRANCH   1  15
TORSDOF 2
ENDMDL
MODEL 8
REMARK VINA RESULT:      -6.9      2.965      6.847
REMARK  Name = 
REMARK  2 active torsions:
REMARK  status: ('A' for Active; 'I' for Inactive)
REMARK    1  A    between atoms: C_2  and  C_12
REMARK    2  A    between atoms: N_3  and  C_4
REMARK                            x       y       z     vdW  Elec       q    Type
REMARK                         _______ _______ _______ _____ _____    ______ ____
ROOT
ATOM      1  C   UNL     1       2.652   5.963  18.543  0.00  0.00    +0.000 A 
ATOM      2  C   UNL     1       1.687   4.944  18.635  0.00  0.00    +0.000 A 
ATOM      3  C   UNL     1       2.066   3.604  18.567  0.00  0.00    +0.000 A 
ATOM      4 CL   UNL     1       0.870   2.373  18.691  0.00  0.00    +0.000 Cl
ATOM      5  C   UNL     1       3.402   3.252  18.403  0.00  0.00    +0.000 A 
ATOM      6  C   UNL     1       4.375   4.251  18.286  0.00  0.00    +0.000 A 
ATOM      7  C   UNL     1       3.996   5.605  18.366  0.00  0.00    +0.000 A 
ATOM      8  O   UNL     1       5.033   6.491  18.350  0.00  0.00    +0.000 OA
ATOM      9  C   UNL     1       5.225   7.224  17.144  0.00  0.00    +0.000 C 
ATOM     10  C   UNL     1       5.082   6.508  15.792  0.00  0.00    +0.000 C 
ATOM     11  C   UNL     1       5.335   5.000  15.677  0.00  0.00    +0.000 C 
ATOM     12  C   UNL     1       6.360   4.415  16.653  0.00  0.00    +0.000 C 
ATOM     13  C   UNL     1       5.811   3.884  17.996  0.00  0.00    +0.000 C 
ENDROOT
BRANCH   1  15
ATOM     14  O   UNL     1       2.268   8.180  17.788  0.00  0.00    +0.000 OA
ATOM     15  C   UNL     1       2.233   7.387  18.716  0.00  0.00    +0.000 C 
ATOM     16  N   UNL     1       1.821   7.741  19.985  0.00  0.00    +0.000 N 
ATOM     17  H   UNL     1       1.604   7.030  20.663  0.00  0.00    +0.000 HD
BRANCH  16  18
ATOM     18  C   UNL     1       1.436   9.113  20.297  0.00  0.00    +0.000 C 
ATOM     19  C   UNL     1       1.868   9.509  21.733  0.00  0.00    +0.000 C 
ATOM     20  N   UNL     1       0.709   9.889  22.576  0.00  0.00    +0.000 NA
ATOM     21  C   UNL     1       0.059  11.070  21.963  0.00  0.00    +0.000 C 
ATOM     22  C   UNL     1      -0.379  10.797  20.513  0.00  0.00    +0.000 C 
ATOM     23  C   UNL     1      -0.088   9.329  20.157  0.00  0.00    +0.000 C 
ATOM     24  C   UNL     1      -0.823   8.469  21.201  0.00  0.00    +0.000 C 
ATOM     25  C   UNL     1      -0.250   8.763  22.596  0.00  0.00    +0.000 C 
ENDBRANCH  16  18
ENDBRANCH   1  15
TORSDOF 2
ENDMDL
MODEL 9
REMARK VINA RESULT:      -6.8      8.171     10.466
REMARK  Name = 
REMARK  2 active torsions:
REMARK  status: ('A' for Active; 'I' for Inactive)
REMARK    1  A    between atoms: C_2  and  C_12
REMARK    2  A    between atoms: N_3  and  C_4
REMARK                            x       y       z     vdW  Elec       q    Type
REMARK                         _______ _______ _______ _____ _____    ______ ____
ROOT
ATOM      1  C   UNL     1       7.781  14.152  20.854  0.00  0.00    +0.000 A 
ATOM      2  C   UNL     1       7.320  13.578  22.053  0.00  0.00    +0.000 A 
ATOM      3  C   UNL     1       8.068  12.597  22.701  0.00  0.00    +0.000 A 
ATOM      4 CL   UNL     1       7.489  11.916  24.171  0.00  0.00    +0.000 Cl
ATOM      5  C   UNL     1       9.280  12.165  22.172  0.00  0.00    +0.000 A 
ATOM      6  C   UNL     1       9.746  12.705  20.968  0.00  0.00    +0.000 A 
ATOM      7  C   UNL     1       8.998  13.705  20.318  0.00  0.00    +0.000 A 
ATOM      8  O   UNL     1       9.594  14.239  19.213  0.00  0.00    +0.000 OA
ATOM      9  C   UNL     1       9.065  13.845  17.951  0.00  0.00    +0.000 C 
ATOM     10  C   UNL     1       8.673  12.378  17.719  0.00  0.00    +0.000 C 
ATOM     11  C   UNL     1       9.350  11.254  18.512  0.00  0.00    +0.000 C 
ATOM     12  C   UNL     1      10.798  11.513  18.940  0.00  0.00    +0.000 C 
ATOM     13  C   UNL     1      11.002  12.163  20.327  0.00  0.00    +0.000 C 
ENDROOT
BRANCH   1  15
ATOM     14  O   UNL     1       7.415  16.421  20.264  0.00  0.00    +0.000 OA
ATOM     15  C   UNL     1       7.010  15.270  20.231  0.00  0.00    +0.000 C 
ATOM     16  N   UNL     1       5.816  14.915  19.634  0.00  0.00    +0.000 N 
ATOM     17  H   UNL     1       5.616  13.949  19.439  0.00  0.00    +0.000 HD
BRANCH  16  18
ATOM     18  C   UNL     1       4.945  15.921  19.036  0.00  0.00    +0.000 C 
ATOM     19  C   UNL     1       3.920  16.464  20.065  0.00  0.00    +0.000 C 
ATOM     20  N   UNL     1       2.522  16.221  19.636  0.00  0.00    +0.000 NA
ATOM     21  C   UNL     1       2.298  16.939  18.360  0.00  0.00    +0.000 C 
ATOM     22  C   UNL     1       3.294  16.499  17.271  0.00  0.00    +0.000 C 
ATOM     23  C   UNL     1       4.180  15.364  17.815  0.00  0.00    +0.000 C 
ATOM     24  C   UNL     1       3.228  14.246  18.274  0.00  0.00    +0.000 C 
ATOM     25  C   UNL     1       2.341  14.770  19.414  0.00  0.00    +0.000 C 
ENDBRANCH  16  18
ENDBRANCH   1  15
TORSDOF 2
ENDMDL
