MODEL 1
REMARK VINA RESULT:      -9.0      0.000      0.000
REMARK  Name = 
REMARK  13 active torsions:
REMARK  status: ('A' for Active; 'I' for Inactive)
REMARK    1  A    between atoms: C_1  and  C_2
REMARK    2  A    between atoms: C_2  and  C_3
REMARK    3  A    between atoms: C_2  and  C_4
REMARK    4  A    between atoms: C_4  and  C_5
REMARK    5  A    between atoms: C_5  and  O_6
REMARK    6  A    between atoms: C_5  and  C_7
REMARK    7  A    between atoms: N_9  and  S_10
REMARK    8  A    between atoms: S_10  and  O_13
REMARK    9  A    between atoms: O_13  and  C_14
REMARK   10  A    between atoms: C_14  and  C_15
REMARK   11  A    between atoms: C_17  and  N_18
REMARK   12  A    between atoms: C_29  and  O_30
REMARK   13  A    between atoms: C_31  and  O_32
REMARK                            x       y       z     vdW  Elec       q    Type
REMARK                         _______ _______ _______ _____ _____    ______ ____
ROOT
ATOM      1  C   UNL     1       4.609   4.392  19.000  0.00  0.00    +0.000 C 
ATOM      2  O   UNL     1       4.365   5.773  19.364  0.00  0.00    +0.000 OA
ATOM      3  C   UNL     1       2.964   5.936  19.665  0.00  0.00    +0.000 C 
ATOM      4  C   UNL     1       2.234   4.692  19.168  0.00  0.00    +0.000 C 
ATOM      5  C   UNL     1       3.314   3.630  19.304  0.00  0.00    +0.000 C 
ENDROOT
BRANCH   3   6
ATOM      6  N   UNL     1       2.489   7.183  19.105  0.00  0.00    +0.000 N 
ATOM      7  C   UNL     1       2.792   7.652  17.852  0.00  0.00    +0.000 A 
ATOM      8  N   UNL     1       2.243   8.825  17.616  0.00  0.00    +0.000 NA
ATOM      9  C   UNL     1       1.562   9.134  18.774  0.00  0.00    +0.000 A 
ATOM     10  C   UNL     1       0.795  10.250  19.154  0.00  0.00    +0.000 A 
ATOM     11  N   UNL     1       0.553  11.328  18.313  0.00  0.00    +0.000 N 
ATOM     12  N   UNL     1       0.293  10.296  20.404  0.00  0.00    +0.000 NA
ATOM     13  C   UNL     1       0.530   9.248  21.215  0.00  0.00    +0.000 A 
ATOM     14 CL   UNL     1      -0.033   9.430  22.820  0.00  0.00    +0.000 Cl
ATOM     15  N   UNL     1       1.230   8.121  20.970  0.00  0.00    +0.000 NA
ATOM     16  C   UNL     1       1.715   8.131  19.718  0.00  0.00    +0.000 A 
ATOM     17  H   UNL     1       1.222  11.415  17.555  0.00  0.00    +0.000 HD
ATOM     18  H   UNL     1       0.305  12.167  18.821  0.00  0.00    +0.000 HD
ENDBRANCH   3   6
BRANCH   4  19
ATOM     19  O   UNL     1       1.085   4.385  19.958  0.00  0.00    +0.000 OA
ATOM     20  H   UNL     1       0.769   3.507  19.654  0.00  0.00    +0.000 HD
ENDBRANCH   4  19
BRANCH   5  21
ATOM     21  O   UNL     1       3.276   3.133  20.654  0.00  0.00    +0.000 OA
ATOM     22  H   UNL     1       3.986   2.478  20.779  0.00  0.00    +0.000 HD
ENDBRANCH   5  21
BRANCH   1  23
ATOM     23  C   UNL     1       5.000   4.280  17.521  0.00  0.00    +0.000 C 
BRANCH  23  24
ATOM     24  O   UNL     1       5.420   5.537  17.003  0.00  0.00    +0.000 OA
BRANCH  24  25
ATOM     25  S   UNL     1       7.011   5.691  16.711  0.00  0.00    +0.000 S 
ATOM     26  O   UNL     1       7.669   4.487  17.160  0.00  0.00    +0.000 OA
ATOM     27  O   UNL     1       7.452   6.986  17.181  0.00  0.00    +0.000 OA
BRANCH  25  30
ATOM     28  C   UNL     1       6.721   4.604  14.266  0.00  0.00    +0.000 C 
ATOM     29  O   UNL     1       6.293   3.549  14.726  0.00  0.00    +0.000 OA
ATOM     30  N   UNL     1       7.167   5.654  15.067  0.00  0.00    +0.000 N 
ATOM     31  H   UNL     1       7.602   6.490  14.687  0.00  0.00    +0.000 HD
BRANCH  28  32
ATOM     32  C   UNL     1       6.875   4.806  12.754  0.00  0.00    +0.000 C 
BRANCH  32  33
ATOM     33  O   UNL     1       8.063   5.579  12.540  0.00  0.00    +0.000 OA
ATOM     34  H   UNL     1       7.808   6.316  11.946  0.00  0.00    +0.000 HD
ENDBRANCH  32  33
BRANCH  32  35
ATOM     35  C   UNL     1       7.032   3.474  12.013  0.00  0.00    +0.000 C 
BRANCH  35  37
ATOM     36  C   UNL     1       4.545   3.309  11.447  0.00  0.00    +0.000 C 
ATOM     37  C   UNL     1       5.780   2.577  11.973  0.00  0.00    +0.000 C 
ATOM     38  C   UNL     1       6.056   1.348  11.099  0.00  0.00    +0.000 C 
ENDBRANCH  35  37
ENDBRANCH  32  35
ENDBRANCH  28  32
ENDBRANCH  25  30
ENDBRANCH  24  25
ENDBRANCH  23  24
ENDBRANCH   1  23
TORSDOF 11
ENDMDL
MODEL 2
REMARK VINA RESULT:      -8.8      1.106      1.346
REMARK  Name = 
REMARK  13 active torsions:
REMARK  status: ('A' for Active; 'I' for Inactive)
REMARK    1  A    between atoms: C_1  and  C_2
REMARK    2  A    between atoms: C_2  and  C_3
REMARK    3  A    between atoms: C_2  and  C_4
REMARK    4  A    between atoms: C_4  and  C_5
REMARK    5  A    between atoms: C_5  and  O_6
REMARK    6  A    between atoms: C_5  and  C_7
REMARK    7  A    between atoms: N_9  and  S_10
REMARK    8  A    between atoms: S_10  and  O_13
REMARK    9  A    between atoms: O_13  and  C_14
REMARK   10  A    between atoms: C_14  and  C_15
REMARK   11  A    between atoms: C_17  and  N_18
REMARK   12  A    between atoms: C_29  and  O_30
REMARK   13  A    between atoms: C_31  and  O_32
REMARK                            x       y       z     vdW  Elec       q    Type
REMARK                         _______ _______ _______ _____ _____    ______ ____
ROOT
ATOM      1  C   UNL     1       4.239   4.800  19.700  0.00  0.00    +0.000 C 
ATOM      2  O   UNL     1       3.392   5.911  20.082  0.00  0.00    +0.000 OA
ATOM      3  C   UNL     1       2.294   6.003  19.151  0.00  0.00    +0.000 C 
ATOM      4  C   UNL     1       2.627   5.121  17.951  0.00  0.00    +0.000 C 
ATOM      5  C   UNL     1       3.492   4.047  18.594  0.00  0.00    +0.000 C 
ENDROOT
BRANCH   3   6
ATOM      6  N   UNL     1       2.043   7.392  18.831  0.00  0.00    +0.000 N 
ATOM      7  C   UNL     1       2.375   8.003  17.648  0.00  0.00    +0.000 A 
ATOM      8  N   UNL     1       2.053   9.279  17.641  0.00  0.00    +0.000 NA
ATOM      9  C   UNL     1       1.496   9.507  18.882  0.00  0.00    +0.000 A 
ATOM     10  C   UNL     1       0.976  10.664  19.490  0.00  0.00    +0.000 A 
ATOM     11  N   UNL     1       0.910  11.895  18.850  0.00  0.00    +0.000 N 
ATOM     12  N   UNL     1       0.549  10.590  20.767  0.00  0.00    +0.000 NA
ATOM     13  C   UNL     1       0.616   9.394  21.381  0.00  0.00    +0.000 A 
ATOM     14 CL   UNL     1       0.170   9.402  23.033  0.00  0.00    +0.000 Cl
ATOM     15  N   UNL     1       1.074   8.216  20.910  0.00  0.00    +0.000 NA
ATOM     16  C   UNL     1       1.495   8.348  19.642  0.00  0.00    +0.000 A 
ATOM     17  H   UNL     1       1.548  11.984  18.067  0.00  0.00    +0.000 HD
ATOM     18  H   UNL     1       0.850  12.667  19.501  0.00  0.00    +0.000 HD
ENDBRANCH   3   6
BRANCH   4  19
ATOM     19  O   UNL     1       1.459   4.568  17.343  0.00  0.00    +0.000 OA
ATOM     20  H   UNL     1       1.760   4.131  16.518  0.00  0.00    +0.000 HD
ENDBRANCH   4  19
BRANCH   5  21
ATOM     21  O   UNL     1       2.617   3.032  19.118  0.00  0.00    +0.000 OA
ATOM     22  H   UNL     1       1.691   3.320  19.020  0.00  0.00    +0.000 HD
ENDBRANCH   5  21
BRANCH   1  23
ATOM     23  C   UNL     1       5.608   5.300  19.221  0.00  0.00    +0.000 C 
BRANCH  23  24
ATOM     24  O   UNL     1       6.169   4.417  18.256  0.00  0.00    +0.000 OA
BRANCH  24  25
ATOM     25  S   UNL     1       7.541   4.920  17.545  0.00  0.00    +0.000 S 
ATOM     26  O   UNL     1       8.594   3.998  17.898  0.00  0.00    +0.000 OA
ATOM     27  O   UNL     1       7.699   6.339  17.780  0.00  0.00    +0.000 OA
BRANCH  25  30
ATOM     28  C   UNL     1       6.294   5.279  15.188  0.00  0.00    +0.000 C 
ATOM     29  O   UNL     1       5.387   5.927  15.704  0.00  0.00    +0.000 OA
ATOM     30  N   UNL     1       7.315   4.683  15.925  0.00  0.00    +0.000 N 
ATOM     31  H   UNL     1       8.013   4.075  15.508  0.00  0.00    +0.000 HD
BRANCH  28  32
ATOM     32  C   UNL     1       6.313   5.005  13.679  0.00  0.00    +0.000 C 
BRANCH  32  33
ATOM     33  O   UNL     1       7.639   5.275  13.208  0.00  0.00    +0.000 OA
ATOM     34  H   UNL     1       8.206   4.555  13.555  0.00  0.00    +0.000 HD
ENDBRANCH  32  33
BRANCH  32  35
ATOM     35  C   UNL     1       5.979   3.545  13.359  0.00  0.00    +0.000 C 
BRANCH  35  37
ATOM     36  C   UNL     1       6.355   1.845  11.488  0.00  0.00    +0.000 C 
ATOM     37  C   UNL     1       5.786   3.212  11.867  0.00  0.00    +0.000 C 
ATOM     38  C   UNL     1       4.294   3.260  11.518  0.00  0.00    +0.000 C 
ENDBRANCH  35  37
ENDBRANCH  32  35
ENDBRANCH  28  32
ENDBRANCH  25  30
ENDBRANCH  24  25
ENDBRANCH  23  24
ENDBRANCH   1  23
TORSDOF 11
ENDMDL
MODEL 3
REMARK VINA RESULT:      -8.4      3.416      5.044
REMARK  Name = 
REMARK  13 active torsions:
REMARK  status: ('A' for Active; 'I' for Inactive)
REMARK    1  A    between atoms: C_1  and  C_2
REMARK    2  A    between atoms: C_2  and  C_3
REMARK    3  A    between atoms: C_2  and  C_4
REMARK    4  A    between atoms: C_4  and  C_5
REMARK    5  A    between atoms: C_5  and  O_6
REMARK    6  A    between atoms: C_5  and  C_7
REMARK    7  A    between atoms: N_9  and  S_10
REMARK    8  A    between atoms: S_10  and  O_13
REMARK    9  A    between atoms: O_13  and  C_14
REMARK   10  A    between atoms: C_14  and  C_15
REMARK   11  A    between atoms: C_17  and  N_18
REMARK   12  A    between atoms: C_29  and  O_30
REMARK   13  A    between atoms: C_31  and  O_32
REMARK                            x       y       z     vdW  Elec       q    Type
REMARK                         _______ _______ _______ _____ _____    ______ ____
ROOT
ATOM      1  C   UNL     1       4.433   4.231  19.352  0.00  0.00    +0.000 C 
ATOM      2  O   UNL     1       3.784   5.449  19.793  0.00  0.00    +0.000 OA
ATOM      3  C   UNL     1       2.519   5.576  19.113  0.00  0.00    +0.000 C 
ATOM      4  C   UNL     1       2.505   4.571  17.965  0.00  0.00    +0.000 C 
ATOM      5  C   UNL     1       3.400   3.470  18.513  0.00  0.00    +0.000 C 
ENDROOT
BRANCH   3   6
ATOM      6  N   UNL     1       2.317   6.953  18.715  0.00  0.00    +0.000 N 
ATOM      7  C   UNL     1       2.693   7.491  17.511  0.00  0.00    +0.000 A 
ATOM      8  N   UNL     1       2.409   8.774  17.431  0.00  0.00    +0.000 NA
ATOM      9  C   UNL     1       1.833   9.083  18.644  0.00  0.00    +0.000 A 
ATOM     10  C   UNL     1       1.336  10.285  19.180  0.00  0.00    +0.000 A 
ATOM     11  N   UNL     1       1.320  11.481  18.475  0.00  0.00    +0.000 N 
ATOM     12  N   UNL     1       0.879  10.290  20.448  0.00  0.00    +0.000 NA
ATOM     13  C   UNL     1       0.896   9.127  21.126  0.00  0.00    +0.000 A 
ATOM     14 CL   UNL     1       0.415   9.234  22.764  0.00  0.00    +0.000 Cl
ATOM     15  N   UNL     1       1.328   7.912  20.726  0.00  0.00    +0.000 NA
ATOM     16  C   UNL     1       1.780   7.966  19.463  0.00  0.00    +0.000 A 
ATOM     17  H   UNL     1       1.977  11.511  17.704  0.00  0.00    +0.000 HD
ATOM     18  H   UNL     1       1.270  12.288  19.084  0.00  0.00    +0.000 HD
ENDBRANCH   3   6
BRANCH   4  19
ATOM     19  O   UNL     1       1.190   4.093  17.678  0.00  0.00    +0.000 OA
ATOM     20  H   UNL     1       0.706   4.095  18.531  0.00  0.00    +0.000 HD
ENDBRANCH   4  19
BRANCH   5  21
ATOM     21  O   UNL     1       2.584   2.595  19.311  0.00  0.00    +0.000 OA
ATOM     22  H   UNL     1       1.770   2.374  18.822  0.00  0.00    +0.000 HD
ENDBRANCH   5  21
BRANCH   1  23
ATOM     23  C   UNL     1       5.698   4.549  18.545  0.00  0.00    +0.000 C 
BRANCH  23  24
ATOM     24  O   UNL     1       5.651   5.868  18.014  0.00  0.00    +0.000 OA
BRANCH  24  25
ATOM     25  S   UNL     1       6.581   6.144  16.710  0.00  0.00    +0.000 S 
ATOM     26  O   UNL     1       5.718   6.254  15.558  0.00  0.00    +0.000 OA
ATOM     27  O   UNL     1       7.683   5.207  16.713  0.00  0.00    +0.000 OA
BRANCH  25  30
ATOM     28  C   UNL     1       8.079   8.018  17.928  0.00  0.00    +0.000 C 
ATOM     29  O   UNL     1       8.381   7.260  18.846  0.00  0.00    +0.000 OA
ATOM     30  N   UNL     1       7.191   7.666  16.913  0.00  0.00    +0.000 N 
ATOM     31  H   UNL     1       6.874   8.322  16.206  0.00  0.00    +0.000 HD
BRANCH  28  32
ATOM     32  C   UNL     1       8.601   9.460  17.887  0.00  0.00    +0.000 C 
BRANCH  32  33
ATOM     33  O   UNL     1       7.473  10.322  17.686  0.00  0.00    +0.000 OA
ATOM     34  H   UNL     1       7.784  11.231  17.880  0.00  0.00    +0.000 HD
ENDBRANCH  32  33
BRANCH  32  35
ATOM     35  C   UNL     1       9.280   9.860  19.201  0.00  0.00    +0.000 C 
BRANCH  35  37
ATOM     36  C   UNL     1      10.034  11.730  20.771  0.00  0.00    +0.000 C 
ATOM     37  C   UNL     1       9.645  11.350  19.342  0.00  0.00    +0.000 C 
ATOM     38  C   UNL     1      10.799  11.689  18.391  0.00  0.00    +0.000 C 
ENDBRANCH  35  37
ENDBRANCH  32  35
ENDBRANCH  28  32
ENDBRANCH  25  30
ENDBRANCH  24  25
ENDBRANCH  23  24
ENDBRANCH   1  23
TORSDOF 11
ENDMDL
MODEL 4
REMARK VINA RESULT:      -8.3      1.444      1.717
REMARK  Name = 
REMARK  13 active torsions:
REMARK  status: ('A' for Active; 'I' for Inactive)
REMARK    1  A    between atoms: C_1  and  C_2
REMARK    2  A    between atoms: C_2  and  C_3
REMARK    3  A    between atoms: C_2  and  C_4
REMARK    4  A    between atoms: C_4  and  C_5
REMARK    5  A    between atoms: C_5  and  O_6
REMARK    6  A    between atoms: C_5  and  C_7
REMARK    7  A    between atoms: N_9  and  S_10
REMARK    8  A    between atoms: S_10  and  O_13
REMARK    9  A    between atoms: O_13  and  C_14
REMARK   10  A    between atoms: C_14  and  C_15
REMARK   11  A    between atoms: C_17  and  N_18
REMARK   12  A    between atoms: C_29  and  O_30
REMARK   13  A    between atoms: C_31  and  O_32
REMARK                            x       y       z     vdW  Elec       q    Type
REMARK                         _______ _______ _______ _____ _____    ______ ____
ROOT
ATOM      1  C   UNL     1       3.827   4.137  19.808  0.00  0.00    +0.000 C 
ATOM      2  O   UNL     1       3.306   5.473  20.018  0.00  0.00    +0.000 OA
ATOM      3  C   UNL     1       2.234   5.709  19.082  0.00  0.00    +0.000 C 
ATOM      4  C   UNL     1       2.286   4.606  18.029  0.00  0.00    +0.000 C 
ATOM      5  C   UNL     1       2.871   3.450  18.827  0.00  0.00    +0.000 C 
ENDROOT
BRANCH   3   6
ATOM      6  N   UNL     1       2.336   7.054  18.557  0.00  0.00    +0.000 N 
ATOM      7  C   UNL     1       3.053   7.416  17.445  0.00  0.00    +0.000 A 
ATOM      8  N   UNL     1       2.989   8.711  17.214  0.00  0.00    +0.000 NA
ATOM      9  C   UNL     1       2.202   9.210  18.230  0.00  0.00    +0.000 A 
ATOM     10  C   UNL     1       1.778  10.514  18.549  0.00  0.00    +0.000 A 
ATOM     11  N   UNL     1       2.102  11.626  17.783  0.00  0.00    +0.000 N 
ATOM     12  N   UNL     1       1.049  10.703  19.666  0.00  0.00    +0.000 NA
ATOM     13  C   UNL     1       0.738   9.621  20.404  0.00  0.00    +0.000 A 
ATOM     14 CL   UNL     1      -0.084   9.952  21.867  0.00  0.00    +0.000 Cl
ATOM     15  N   UNL     1       1.065   8.328  20.202  0.00  0.00    +0.000 NA
ATOM     16  C   UNL     1       1.798   8.197  19.085  0.00  0.00    +0.000 A 
ATOM     17  H   UNL     1       2.915  11.494  17.193  0.00  0.00    +0.000 HD
ATOM     18  H   UNL     1       2.034  12.489  18.307  0.00  0.00    +0.000 HD
ENDBRANCH   3   6
BRANCH   4  19
ATOM     19  O   UNL     1       0.995   4.292  17.508  0.00  0.00    +0.000 OA
ATOM     20  H   UNL     1       1.144   3.893  16.625  0.00  0.00    +0.000 HD
ENDBRANCH   4  19
BRANCH   5  21
ATOM     21  O   UNL     1       1.786   2.783  19.495  0.00  0.00    +0.000 OA
ATOM     22  H   UNL     1       1.315   2.213  18.861  0.00  0.00    +0.000 HD
ENDBRANCH   5  21
BRANCH   1  23
ATOM     23  C   UNL     1       5.260   4.192  19.263  0.00  0.00    +0.000 C 
BRANCH  23  24
ATOM     24  O   UNL     1       5.752   5.527  19.240  0.00  0.00    +0.000 OA
BRANCH  24  25
ATOM     25  S   UNL     1       7.119   5.767  18.397  0.00  0.00    +0.000 S 
ATOM     26  O   UNL     1       8.224   5.269  19.181  0.00  0.00    +0.000 OA
ATOM     27  O   UNL     1       7.129   7.123  17.894  0.00  0.00    +0.000 OA
BRANCH  25  30
ATOM     28  C   UNL     1       6.412   5.051  15.901  0.00  0.00    +0.000 C 
ATOM     29  O   UNL     1       5.753   6.074  15.735  0.00  0.00    +0.000 OA
ATOM     30  N   UNL     1       7.033   4.736  17.108  0.00  0.00    +0.000 N 
ATOM     31  H   UNL     1       7.502   3.850  17.272  0.00  0.00    +0.000 HD
BRANCH  28  32
ATOM     32  C   UNL     1       6.523   3.992  14.797  0.00  0.00    +0.000 C 
BRANCH  32  33
ATOM     33  O   UNL     1       6.135   2.734  15.364  0.00  0.00    +0.000 OA
ATOM     34  H   UNL     1       6.082   2.101  14.618  0.00  0.00    +0.000 HD
ENDBRANCH  32  33
BRANCH  32  35
ATOM     35  C   UNL     1       5.590   4.294  13.620  0.00  0.00    +0.000 C 
BRANCH  35  37
ATOM     36  C   UNL     1       4.414   3.436  11.519  0.00  0.00    +0.000 C 
ATOM     37  C   UNL     1       5.589   3.256  12.481  0.00  0.00    +0.000 C 
ATOM     38  C   UNL     1       6.906   3.345  11.702  0.00  0.00    +0.000 C 
ENDBRANCH  35  37
ENDBRANCH  32  35
ENDBRANCH  28  32
ENDBRANCH  25  30
ENDBRANCH  24  25
ENDBRANCH  23  24
ENDBRANCH   1  23
TORSDOF 11
ENDMDL
MODEL 5
REMARK VINA RESULT:      -8.3      1.260      1.467
REMARK  Name = 
REMARK  13 active torsions:
REMARK  status: ('A' for Active; 'I' for Inactive)
REMARK    1  A    between atoms: C_1  and  C_2
REMARK    2  A    between atoms: C_2  and  C_3
REMARK    3  A    between atoms: C_2  and  C_4
REMARK    4  A    between atoms: C_4  and  C_5
REMARK    5  A    between atoms: C_5  and  O_6
REMARK    6  A    between atoms: C_5  and  C_7
REMARK    7  A    between atoms: N_9  and  S_10
REMARK    8  A    between atoms: S_10  and  O_13
REMARK    9  A    between atoms: O_13  and  C_14
REMARK   10  A    between atoms: C_14  and  C_15
REMARK   11  A    between atoms: C_17  and  N_18
REMARK   12  A    between atoms: C_29  and  O_30
REMARK   13  A    between atoms: C_31  and  O_32
REMARK                            x       y       z     vdW  Elec       q    Type
REMARK                         _______ _______ _______ _____ _____    ______ ____
ROOT
ATOM      1  C   UNL     1       4.369   5.110  19.744  0.00  0.00    +0.000 C 
ATOM      2  O   UNL     1       3.450   6.158  20.139  0.00  0.00    +0.000 OA
ATOM      3  C   UNL     1       2.345   6.184  19.212  0.00  0.00    +0.000 C 
ATOM      4  C   UNL     1       2.732   5.336  18.003  0.00  0.00    +0.000 C 
ATOM      5  C   UNL     1       3.669   4.317  18.634  0.00  0.00    +0.000 C 
ENDROOT
BRANCH   3   6
ATOM      6  N   UNL     1       2.001   7.557  18.904  0.00  0.00    +0.000 N 
ATOM      7  C   UNL     1       2.252   8.186  17.712  0.00  0.00    +0.000 A 
ATOM      8  N   UNL     1       1.855   9.441  17.720  0.00  0.00    +0.000 NA
ATOM      9  C   UNL     1       1.332   9.635  18.981  0.00  0.00    +0.000 A 
ATOM     10  C   UNL     1       0.768  10.760  19.611  0.00  0.00    +0.000 A 
ATOM     11  N   UNL     1       0.605  11.984  18.977  0.00  0.00    +0.000 N 
ATOM     12  N   UNL     1       0.394  10.660  20.902  0.00  0.00    +0.000 NA
ATOM     13  C   UNL     1       0.553   9.470  21.511  0.00  0.00    +0.000 A 
ATOM     14 CL   UNL     1       0.170   9.451  23.178  0.00  0.00    +0.000 Cl
ATOM     15  N   UNL     1       1.063   8.321  21.020  0.00  0.00    +0.000 NA
ATOM     16  C   UNL     1       1.428   8.478  19.738  0.00  0.00    +0.000 A 
ATOM     17  H   UNL     1       1.207  12.111  18.171  0.00  0.00    +0.000 HD
ATOM     18  H   UNL     1       0.525  12.751  19.631  0.00  0.00    +0.000 HD
ENDBRANCH   3   6
BRANCH   4  19
ATOM     19  O   UNL     1       1.602   4.713  17.394  0.00  0.00    +0.000 OA
ATOM     20  H   UNL     1       0.976   5.435  17.173  0.00  0.00    +0.000 HD
ENDBRANCH   4  19
BRANCH   5  21
ATOM     21  O   UNL     1       2.866   3.242  19.152  0.00  0.00    +0.000 OA
ATOM     22  H   UNL     1       3.431   2.625  19.651  0.00  0.00    +0.000 HD
ENDBRANCH   5  21
BRANCH   1  23
ATOM     23  C   UNL     1       5.700   5.704  19.265  0.00  0.00    +0.000 C 
BRANCH  23  24
ATOM     24  O   UNL     1       6.674   4.686  19.063  0.00  0.00    +0.000 OA
BRANCH  24  25
ATOM     25  S   UNL     1       7.564   4.813  17.709  0.00  0.00    +0.000 S 
ATOM     26  O   UNL     1       8.660   3.879  17.803  0.00  0.00    +0.000 OA
ATOM     27  O   UNL     1       7.813   6.212  17.441  0.00  0.00    +0.000 OA
BRANCH  25  30
ATOM     28  C   UNL     1       6.845   4.448  15.142  0.00  0.00    +0.000 C 
ATOM     29  O   UNL     1       7.694   5.235  14.734  0.00  0.00    +0.000 OA
ATOM     30  N   UNL     1       6.615   4.213  16.496  0.00  0.00    +0.000 N 
ATOM     31  H   UNL     1       5.855   3.630  16.834  0.00  0.00    +0.000 HD
BRANCH  28  32
ATOM     32  C   UNL     1       5.904   3.724  14.170  0.00  0.00    +0.000 C 
BRANCH  32  33
ATOM     33  O   UNL     1       4.692   4.485  14.094  0.00  0.00    +0.000 OA
ATOM     34  H   UNL     1       4.910   5.383  14.420  0.00  0.00    +0.000 HD
ENDBRANCH  32  33
BRANCH  32  35
ATOM     35  C   UNL     1       6.499   3.630  12.762  0.00  0.00    +0.000 C 
BRANCH  35  37
ATOM     36  C   UNL     1       4.759   2.785  11.091  0.00  0.00    +0.000 C 
ATOM     37  C   UNL     1       6.009   2.447  11.904  0.00  0.00    +0.000 C 
ATOM     38  C   UNL     1       7.129   2.000  10.957  0.00  0.00    +0.000 C 
ENDBRANCH  35  37
ENDBRANCH  32  35
ENDBRANCH  28  32
ENDBRANCH  25  30
ENDBRANCH  24  25
ENDBRANCH  23  24
ENDBRANCH   1  23
TORSDOF 11
ENDMDL
MODEL 6
REMARK VINA RESULT:      -8.2      1.234      1.723
REMARK  Name = 
REMARK  13 active torsions:
REMARK  status: ('A' for Active; 'I' for Inactive)
REMARK    1  A    between atoms: C_1  and  C_2
REMARK    2  A    between atoms: C_2  and  C_3
REMARK    3  A    between atoms: C_2  and  C_4
REMARK    4  A    between atoms: C_4  and  C_5
REMARK    5  A    between atoms: C_5  and  O_6
REMARK    6  A    between atoms: C_5  and  C_7
REMARK    7  A    between atoms: N_9  and  S_10
REMARK    8  A    between atoms: S_10  and  O_13
REMARK    9  A    between atoms: O_13  and  C_14
REMARK   10  A    between atoms: C_14  and  C_15
REMARK   11  A    between atoms: C_17  and  N_18
REMARK   12  A    between atoms: C_29  and  O_30
REMARK   13  A    between atoms: C_31  and  O_32
REMARK                            x       y       z     vdW  Elec       q    Type
REMARK                         _______ _______ _______ _____ _____    ______ ____
ROOT
ATOM      1  C   UNL     1       4.750   4.552  19.141  0.00  0.00    +0.000 C 
ATOM      2  O   UNL     1       4.104   5.746  19.647  0.00  0.00    +0.000 OA
ATOM      3  C   UNL     1       2.746   5.783  19.163  0.00  0.00    +0.000 C 
ATOM      4  C   UNL     1       2.619   4.743  18.053  0.00  0.00    +0.000 C 
ATOM      5  C   UNL     1       3.650   3.711  18.485  0.00  0.00    +0.000 C 
ENDROOT
BRANCH   3   6
ATOM      6  N   UNL     1       2.407   7.134  18.769  0.00  0.00    +0.000 N 
ATOM      7  C   UNL     1       2.723   7.709  17.565  0.00  0.00    +0.000 A 
ATOM      8  N   UNL     1       2.313   8.958  17.489  0.00  0.00    +0.000 NA
ATOM      9  C   UNL     1       1.713   9.205  18.705  0.00  0.00    +0.000 A 
ATOM     10  C   UNL     1       1.100  10.351  19.244  0.00  0.00    +0.000 A 
ATOM     11  N   UNL     1       0.963  11.541  18.543  0.00  0.00    +0.000 N 
ATOM     12  N   UNL     1       0.649  10.307  20.514  0.00  0.00    +0.000 NA
ATOM     13  C   UNL     1       0.784   9.150  21.189  0.00  0.00    +0.000 A 
ATOM     14 CL   UNL     1       0.300   9.206  22.829  0.00  0.00    +0.000 Cl
ATOM     15  N   UNL     1       1.334   7.986  20.785  0.00  0.00    +0.000 NA
ATOM     16  C   UNL     1       1.774   8.087  19.521  0.00  0.00    +0.000 A 
ATOM     17  H   UNL     1       1.611  11.638  17.770  0.00  0.00    +0.000 HD
ATOM     18  H   UNL     1       0.835  12.337  19.153  0.00  0.00    +0.000 HD
ENDBRANCH   3   6
BRANCH   4  19
ATOM     19  O   UNL     1       1.307   4.185  17.980  0.00  0.00    +0.000 OA
ATOM     20  H   UNL     1       0.820   4.717  17.316  0.00  0.00    +0.000 HD
ENDBRANCH   4  19
BRANCH   5  21
ATOM     21  O   UNL     1       3.014   2.818  19.417  0.00  0.00    +0.000 OA
ATOM     22  H   UNL     1       3.613   2.651  20.167  0.00  0.00    +0.000 HD
ENDBRANCH   5  21
BRANCH   1  23
ATOM     23  C   UNL     1       5.859   4.913  18.145  0.00  0.00    +0.000 C 
BRANCH  23  24
ATOM     24  O   UNL     1       5.619   4.324  16.872  0.00  0.00    +0.000 OA
BRANCH  24  25
ATOM     25  S   UNL     1       6.452   4.956  15.627  0.00  0.00    +0.000 S 
ATOM     26  O   UNL     1       7.820   4.509  15.730  0.00  0.00    +0.000 OA
ATOM     27  O   UNL     1       6.146   6.366  15.526  0.00  0.00    +0.000 OA
BRANCH  25  30
ATOM     28  C   UNL     1       6.501   4.242  13.033  0.00  0.00    +0.000 C 
ATOM     29  O   UNL     1       7.470   4.959  12.797  0.00  0.00    +0.000 OA
ATOM     30  N   UNL     1       5.873   4.200  14.277  0.00  0.00    +0.000 N 
ATOM     31  H   UNL     1       5.020   3.676  14.446  0.00  0.00    +0.000 HD
BRANCH  28  32
ATOM     32  C   UNL     1       5.853   3.397  11.929  0.00  0.00    +0.000 C 
BRANCH  32  33
ATOM     33  O   UNL     1       6.048   2.019  12.269  0.00  0.00    +0.000 OA
ATOM     34  H   UNL     1       6.294   2.001  13.218  0.00  0.00    +0.000 HD
ENDBRANCH  32  33
BRANCH  32  35
ATOM     35  C   UNL     1       4.346   3.654  11.822  0.00  0.00    +0.000 C 
BRANCH  35  37
ATOM     36  C   UNL     1       2.573   2.164  10.743  0.00  0.00    +0.000 C 
ATOM     37  C   UNL     1       3.678   3.195  10.512  0.00  0.00    +0.000 C 
ATOM     38  C   UNL     1       3.100   4.409   9.776  0.00  0.00    +0.000 C 
ENDBRANCH  35  37
ENDBRANCH  32  35
ENDBRANCH  28  32
ENDBRANCH  25  30
ENDBRANCH  24  25
ENDBRANCH  23  24
ENDBRANCH   1  23
TORSDOF 11
ENDMDL
MODEL 7
REMARK VINA RESULT:      -8.2      2.833      4.503
REMARK  Name = 
REMARK  13 active torsions:
REMARK  status: ('A' for Active; 'I' for Inactive)
REMARK    1  A    between atoms: C_1  and  C_2
REMARK    2  A    between atoms: C_2  and  C_3
REMARK    3  A    between atoms: C_2  and  C_4
REMARK    4  A    between atoms: C_4  and  C_5
REMARK    5  A    between atoms: C_5  and  O_6
REMARK    6  A    between atoms: C_5  and  C_7
REMARK    7  A    between atoms: N_9  and  S_10
REMARK    8  A    between atoms: S_10  and  O_13
REMARK    9  A    between atoms: O_13  and  C_14
REMARK   10  A    between atoms: C_14  and  C_15
REMARK   11  A    between atoms: C_17  and  N_18
REMARK   12  A    between atoms: C_29  and  O_30
REMARK   13  A    between atoms: C_31  and  O_32
REMARK                            x       y       z     vdW  Elec       q    Type
REMARK                         _______ _______ _______ _____ _____    ______ ____
ROOT
ATOM      1  C   UNL     1       4.101   3.764  19.457  0.00  0.00    +0.000 C 
ATOM      2  O   UNL     1       4.093   5.194  19.687  0.00  0.00    +0.000 OA
ATOM      3  C   UNL     1       2.764   5.597  20.078  0.00  0.00    +0.000 C 
ATOM      4  C   UNL     1       1.820   4.436  19.778  0.00  0.00    +0.000 C 
ATOM      5  C   UNL     1       2.745   3.240  19.943  0.00  0.00    +0.000 C 
ENDROOT
BRANCH   3   6
ATOM      6  N   UNL     1       2.422   6.842  19.424  0.00  0.00    +0.000 N 
ATOM      7  C   UNL     1       2.806   7.200  18.156  0.00  0.00    +0.000 A 
ATOM      8  N   UNL     1       2.374   8.400  17.828  0.00  0.00    +0.000 NA
ATOM      9  C   UNL     1       1.687   8.842  18.939  0.00  0.00    +0.000 A 
ATOM     10  C   UNL     1       1.013  10.044  19.221  0.00  0.00    +0.000 A 
ATOM     11  N   UNL     1       0.897  11.082  18.306  0.00  0.00    +0.000 N 
ATOM     12  N   UNL     1       0.479  10.216  20.446  0.00  0.00    +0.000 NA
ATOM     13  C   UNL     1       0.594   9.205  21.328  0.00  0.00    +0.000 A 
ATOM     14 CL   UNL     1      -0.001   9.540  22.897  0.00  0.00    +0.000 Cl
ATOM     15  N   UNL     1       1.196   8.007  21.179  0.00  0.00    +0.000 NA
ATOM     16  C   UNL     1       1.719   7.892  19.948  0.00  0.00    +0.000 A 
ATOM     17  H   UNL     1       1.594  11.060  17.570  0.00  0.00    +0.000 HD
ATOM     18  H   UNL     1       0.710  11.971  18.752  0.00  0.00    +0.000 HD
ENDBRANCH   3   6
BRANCH   4  19
ATOM     19  O   UNL     1       0.718   4.385  20.685  0.00  0.00    +0.000 OA
ATOM     20  H   UNL     1       0.448   5.315  20.840  0.00  0.00    +0.000 HD
ENDBRANCH   4  19
BRANCH   5  21
ATOM     21  O   UNL     1       2.763   2.887  21.338  0.00  0.00    +0.000 OA
ATOM     22  H   UNL     1       3.215   3.586  21.844  0.00  0.00    +0.000 HD
ENDBRANCH   5  21
BRANCH   1  23
ATOM     23  C   UNL     1       4.331   3.452  17.973  0.00  0.00    +0.000 C 
BRANCH  23  24
ATOM     24  O   UNL     1       4.174   4.618  17.172  0.00  0.00    +0.000 OA
BRANCH  24  25
ATOM     25  S   UNL     1       5.517   5.165  16.440  0.00  0.00    +0.000 S 
ATOM     26  O   UNL     1       5.119   6.035  15.360  0.00  0.00    +0.000 OA
ATOM     27  O   UNL     1       6.405   4.050  16.195  0.00  0.00    +0.000 OA
BRANCH  25  30
ATOM     28  C   UNL     1       7.316   7.004  17.231  0.00  0.00    +0.000 C 
ATOM     29  O   UNL     1       7.913   6.962  16.159  0.00  0.00    +0.000 OA
ATOM     30  N   UNL     1       6.239   6.173  17.534  0.00  0.00    +0.000 N 
ATOM     31  H   UNL     1       5.804   6.146  18.451  0.00  0.00    +0.000 HD
BRANCH  28  32
ATOM     32  C   UNL     1       7.781   7.931  18.362  0.00  0.00    +0.000 C 
BRANCH  32  33
ATOM     33  O   UNL     1       8.593   7.154  19.251  0.00  0.00    +0.000 OA
ATOM     34  H   UNL     1       9.514   7.464  19.123  0.00  0.00    +0.000 HD
ENDBRANCH  32  33
BRANCH  32  35
ATOM     35  C   UNL     1       8.626   9.095  17.835  0.00  0.00    +0.000 C 
BRANCH  35  37
ATOM     36  C   UNL     1       9.800  10.399  19.693  0.00  0.00    +0.000 C 
ATOM     37  C   UNL     1       8.634  10.367  18.705  0.00  0.00    +0.000 C 
ATOM     38  C   UNL     1       8.692  11.606  17.804  0.00  0.00    +0.000 C 
ENDBRANCH  35  37
ENDBRANCH  32  35
ENDBRANCH  28  32
ENDBRANCH  25  30
ENDBRANCH  24  25
ENDBRANCH  23  24
ENDBRANCH   1  23
TORSDOF 11
ENDMDL
MODEL 8
REMARK VINA RESULT:      -8.2      3.392      4.947
REMARK  Name = 
REMARK  13 active torsions:
REMARK  status: ('A' for Active; 'I' for Inactive)
REMARK    1  A    between atoms: C_1  and  C_2
REMARK    2  A    between atoms: C_2  and  C_3
REMARK    3  A    between atoms: C_2  and  C_4
REMARK    4  A    between atoms: C_4  and  C_5
REMARK    5  A    between atoms: C_5  and  O_6
REMARK    6  A    between atoms: C_5  and  C_7
REMARK    7  A    between atoms: N_9  and  S_10
REMARK    8  A    between atoms: S_10  and  O_13
REMARK    9  A    between atoms: O_13  and  C_14
REMARK   10  A    between atoms: C_14  and  C_15
REMARK   11  A    between atoms: C_17  and  N_18
REMARK   12  A    between atoms: C_29  and  O_30
REMARK   13  A    between atoms: C_31  and  O_32
REMARK                            x       y       z     vdW  Elec       q    Type
REMARK                         _______ _______ _______ _____ _____    ______ ____
ROOT
ATOM      1  C   UNL     1       4.151   4.064  19.586  0.00  0.00    +0.000 C 
ATOM      2  O   UNL     1       3.557   5.327  19.977  0.00  0.00    +0.000 OA
ATOM      3  C   UNL     1       2.320   5.504  19.256  0.00  0.00    +0.000 C 
ATOM      4  C   UNL     1       2.285   4.472  18.132  0.00  0.00    +0.000 C 
ATOM      5  C   UNL     1       3.103   3.339  18.735  0.00  0.00    +0.000 C 
ENDROOT
BRANCH   3   6
ATOM      6  N   UNL     1       2.206   6.880  18.819  0.00  0.00    +0.000 N 
ATOM      7  C   UNL     1       2.711   7.381  17.646  0.00  0.00    +0.000 A 
ATOM      8  N   UNL     1       2.482   8.671  17.519  0.00  0.00    +0.000 NA
ATOM      9  C   UNL     1       1.807   9.023  18.669  0.00  0.00    +0.000 A 
ATOM     10  C   UNL     1       1.305  10.251  19.135  0.00  0.00    +0.000 A 
ATOM     11  N   UNL     1       1.397  11.433  18.413  0.00  0.00    +0.000 N 
ATOM     12  N   UNL     1       0.732  10.296  20.355  0.00  0.00    +0.000 NA
ATOM     13  C   UNL     1       0.645   9.146  21.050  0.00  0.00    +0.000 A 
ATOM     14 CL   UNL     1       0.018   9.302  22.634  0.00  0.00    +0.000 Cl
ATOM     15  N   UNL     1       1.069   7.911  20.713  0.00  0.00    +0.000 NA
ATOM     16  C   UNL     1       1.638   7.924  19.497  0.00  0.00    +0.000 A 
ATOM     17  H   UNL     1       2.124  11.426  17.707  0.00  0.00    +0.000 HD
ATOM     18  H   UNL     1       1.320  12.253  19.002  0.00  0.00    +0.000 HD
ENDBRANCH   3   6
BRANCH   4  19
ATOM     19  O   UNL     1       0.956   4.058  17.818  0.00  0.00    +0.000 OA
ATOM     20  H   UNL     1       0.573   4.766  17.258  0.00  0.00    +0.000 HD
ENDBRANCH   4  19
BRANCH   5  21
ATOM     21  O   UNL     1       2.217   2.530  19.528  0.00  0.00    +0.000 OA
ATOM     22  H   UNL     1       1.456   2.255  18.986  0.00  0.00    +0.000 HD
ENDBRANCH   5  21
BRANCH   1  23
ATOM     23  C   UNL     1       5.454   4.293  18.810  0.00  0.00    +0.000 C 
BRANCH  23  24
ATOM     24  O   UNL     1       6.081   5.508  19.205  0.00  0.00    +0.000 OA
BRANCH  24  25
ATOM     25  S   UNL     1       7.701   5.465  19.330  0.00  0.00    +0.000 S 
ATOM     26  O   UNL     1       8.215   4.675  18.237  0.00  0.00    +0.000 OA
ATOM     27  O   UNL     1       8.058   5.148  20.696  0.00  0.00    +0.000 OA
BRANCH  25  30
ATOM     28  C   UNL     1       7.906   7.690  17.831  0.00  0.00    +0.000 C 
ATOM     29  O   UNL     1       7.339   7.166  16.876  0.00  0.00    +0.000 OA
ATOM     30  N   UNL     1       8.213   7.002  19.003  0.00  0.00    +0.000 N 
ATOM     31  H   UNL     1       8.759   7.410  19.755  0.00  0.00    +0.000 HD
BRANCH  28  32
ATOM     32  C   UNL     1       8.399   9.141  17.760  0.00  0.00    +0.000 C 
BRANCH  32  33
ATOM     33  O   UNL     1       7.244   9.986  17.672  0.00  0.00    +0.000 OA
ATOM     34  H   UNL     1       7.355  10.520  16.857  0.00  0.00    +0.000 HD
ENDBRANCH  32  33
BRANCH  32  35
ATOM     35  C   UNL     1       9.187   9.538  19.012  0.00  0.00    +0.000 C 
BRANCH  35  37
ATOM     36  C   UNL     1       9.283  11.483  20.668  0.00  0.00    +0.000 C 
ATOM     37  C   UNL     1       9.419  11.049  19.208  0.00  0.00    +0.000 C 
ATOM     38  C   UNL     1      10.812  11.427  18.691  0.00  0.00    +0.000 C 
ENDBRANCH  35  37
ENDBRANCH  32  35
ENDBRANCH  28  32
ENDBRANCH  25  30
ENDBRANCH  24  25
ENDBRANCH  23  24
ENDBRANCH   1  23
TORSDOF 11
ENDMDL
MODEL 9
REMARK VINA RESULT:      -8.2      3.136      4.724
REMARK  Name = 
REMARK  13 active torsions:
REMARK  status: ('A' for Active; 'I' for Inactive)
REMARK    1  A    between atoms: C_1  and  C_2
REMARK    2  A    between atoms: C_2  and  C_3
REMARK    3  A    between atoms: C_2  and  C_4
REMARK    4  A    between atoms: C_4  and  C_5
REMARK    5  A    between atoms: C_5  and  O_6
REMARK    6  A    between atoms: C_5  and  C_7
REMARK    7  A    between atoms: N_9  and  S_10
REMARK    8  A    between atoms: S_10  and  O_13
REMARK    9  A    between atoms: O_13  and  C_14
REMARK   10  A    between atoms: C_14  and  C_15
REMARK   11  A    between atoms: C_17  and  N_18
REMARK   12  A    between atoms: C_29  and  O_30
REMARK   13  A    between atoms: C_31  and  O_32
REMARK                            x       y       z     vdW  Elec       q    Type
REMARK                         _______ _______ _______ _____ _____    ______ ____
ROOT
ATOM      1  C   UNL     1       4.720   4.062  19.361  0.00  0.00    +0.000 C 
ATOM      2  O   UNL     1       4.406   5.432  19.711  0.00  0.00    +0.000 OA
ATOM      3  C   UNL     1       2.974   5.570  19.818  0.00  0.00    +0.000 C 
ATOM      4  C   UNL     1       2.340   4.325  19.202  0.00  0.00    +0.000 C 
ATOM      5  C   UNL     1       3.409   3.276  19.469  0.00  0.00    +0.000 C 
ENDROOT
BRANCH   3   6
ATOM      6  N   UNL     1       2.560   6.821  19.218  0.00  0.00    +0.000 N 
ATOM      7  C   UNL     1       2.862   7.222  17.941  0.00  0.00    +0.000 A 
ATOM      8  N   UNL     1       2.379   8.416  17.670  0.00  0.00    +0.000 NA
ATOM      9  C   UNL     1       1.743   8.809  18.828  0.00  0.00    +0.000 A 
ATOM     10  C   UNL     1       1.052   9.984  19.180  0.00  0.00    +0.000 A 
ATOM     11  N   UNL     1       0.856  11.041  18.302  0.00  0.00    +0.000 N 
ATOM     12  N   UNL     1       0.582  10.108  20.437  0.00  0.00    +0.000 NA
ATOM     13  C   UNL     1       0.775   9.079  21.283  0.00  0.00    +0.000 A 
ATOM     14 CL   UNL     1       0.260   9.355  22.891  0.00  0.00    +0.000 Cl
ATOM     15  N   UNL     1       1.402   7.903  21.069  0.00  0.00    +0.000 NA
ATOM     16  C   UNL     1       1.858   7.836  19.808  0.00  0.00    +0.000 A 
ATOM     17  H   UNL     1       1.511  11.058  17.528  0.00  0.00    +0.000 HD
ATOM     18  H   UNL     1       0.669  11.912  18.781  0.00  0.00    +0.000 HD
ENDBRANCH   3   6
BRANCH   4  19
ATOM     19  O   UNL     1       1.098   3.987  19.820  0.00  0.00    +0.000 OA
ATOM     20  H   UNL     1       0.594   3.469  19.157  0.00  0.00    +0.000 HD
ENDBRANCH   4  19
BRANCH   5  21
ATOM     21  O   UNL     1       3.191   2.753  20.792  0.00  0.00    +0.000 OA
ATOM     22  H   UNL     1       4.047   2.511  21.190  0.00  0.00    +0.000 HD
ENDBRANCH   5  21
BRANCH   1  23
ATOM     23  C   UNL     1       5.314   3.984  17.949  0.00  0.00    +0.000 C 
BRANCH  23  24
ATOM     24  O   UNL     1       5.793   5.254  17.521  0.00  0.00    +0.000 OA
BRANCH  24  25
ATOM     25  S   UNL     1       7.359   5.315  17.090  0.00  0.00    +0.000 S 
ATOM     26  O   UNL     1       7.425   5.585  15.674  0.00  0.00    +0.000 OA
ATOM     27  O   UNL     1       8.045   4.173  17.652  0.00  0.00    +0.000 OA
BRANCH  25  30
ATOM     28  C   UNL     1       7.460   7.962  17.566  0.00  0.00    +0.000 C 
ATOM     29  O   UNL     1       6.612   8.204  16.711  0.00  0.00    +0.000 OA
ATOM     30  N   UNL     1       7.961   6.682  17.797  0.00  0.00    +0.000 N 
ATOM     31  H   UNL     1       8.724   6.497  18.441  0.00  0.00    +0.000 HD
BRANCH  28  32
ATOM     32  C   UNL     1       8.097   9.087  18.392  0.00  0.00    +0.000 C 
BRANCH  32  33
ATOM     33  O   UNL     1       9.075   8.490  19.253  0.00  0.00    +0.000 OA
ATOM     34  H   UNL     1       9.921   8.950  19.069  0.00  0.00    +0.000 HD
ENDBRANCH  32  33
BRANCH  32  35
ATOM     35  C   UNL     1       8.805  10.116  17.505  0.00  0.00    +0.000 C 
BRANCH  35  37
ATOM     36  C   UNL     1      10.794  11.640  18.005  0.00  0.00    +0.000 C 
ATOM     37  C   UNL     1       9.301  11.389  18.218  0.00  0.00    +0.000 C 
ATOM     38  C   UNL     1       8.503  12.600  17.723  0.00  0.00    +0.000 C 
ENDBRANCH  35  37
ENDBRANCH  32  35
ENDBRANCH  28  32
ENDBRANCH  25  30
ENDBRANCH  24  25
ENDBRANCH  23  24
ENDBRANCH   1  23
TORSDOF 11
ENDMDL
