MODEL 1
REMARK VINA RESULT:      -8.7      0.000      0.000
REMARK  Name = 
REMARK  3 active torsions:
REMARK  status: ('A' for Active; 'I' for Inactive)
REMARK    1  A    between atoms: C_2  and  C_4
REMARK    2  A    between atoms: C_6  and  C_7
REMARK    3  A    between atoms: C_15  and  C_16
REMARK                            x       y       z     vdW  Elec       q    Type
REMARK                         _______ _______ _______ _____ _____    ______ ____
ROOT
ATOM      1  C   UNL     1       2.868   3.047  19.245  0.00  0.00    +0.000 C 
ATOM      2  C   UNL     1       3.562   3.186  17.866  0.00  0.00    +0.000 C 
ATOM      3  C   UNL     1       4.367   4.514  17.779  0.00  0.00    +0.000 C 
ATOM      4  C   UNL     1       3.387   5.713  17.802  0.00  0.00    +0.000 C 
ATOM      5  C   UNL     1       2.513   5.588  19.007  0.00  0.00    +0.000 A 
ATOM      6  C   UNL     1       1.790   6.542  19.771  0.00  0.00    +0.000 A 
ATOM      7  N   UNL     1       1.229   5.950  20.842  0.00  0.00    +0.000 NA
ATOM      8  N   UNL     1       1.519   4.645  20.715  0.00  0.00    +0.000 N 
ATOM      9  C   UNL     1       2.306   4.380  19.640  0.00  0.00    +0.000 A 
ATOM     10  H   UNL     1       1.166   3.999  21.421  0.00  0.00    +0.000 HD
ENDROOT
BRANCH   6  11
ATOM     11  C   UNL     1       1.659   7.978  19.531  0.00  0.00    +0.000 A 
ATOM     12  C   UNL     1       1.121   8.821  20.514  0.00  0.00    +0.000 A 
ATOM     13  C   UNL     1       0.946  10.185  20.267  0.00  0.00    +0.000 A 
ATOM     14  C   UNL     1       1.322  10.718  19.035  0.00  0.00    +0.000 A 
ATOM     15 CL   UNL     1       1.082  12.390  18.722  0.00  0.00    +0.000 Cl
ATOM     16  C   UNL     1       1.886   9.899  18.059  0.00  0.00    +0.000 A 
ATOM     17  C   UNL     1       2.057   8.533  18.307  0.00  0.00    +0.000 A 
ENDBRANCH   6  11
BRANCH   3  18
ATOM     18  C   UNL     1       5.335   4.556  16.625  0.00  0.00    +0.000 A 
ATOM     19  C   UNL     1       6.650   4.990  16.798  0.00  0.00    +0.000 A 
ATOM     20  C   UNL     1       7.527   5.038  15.716  0.00  0.00    +0.000 A 
ATOM     21  C   UNL     1       7.093   4.641  14.451  0.00  0.00    +0.000 A 
ATOM     22  C   UNL     1       5.787   4.202  14.265  0.00  0.00    +0.000 A 
ATOM     23  C   UNL     1       4.912   4.160  15.348  0.00  0.00    +0.000 A 
ENDBRANCH   3  18
BRANCH   1  25
ATOM     24  N   UNL     1       5.059   2.007  19.779  0.00  0.00    +0.000 N 
ATOM     25  C   UNL     1       3.882   2.504  20.254  0.00  0.00    +0.000 C 
ATOM     26  O   UNL     1       3.630   2.424  21.453  0.00  0.00    +0.000 OA
ATOM     27  H   UNL     1       5.681   1.554  20.436  0.00  0.00    +0.000 HD
ATOM     28  H   UNL     1       5.297   1.984  18.795  0.00  0.00    +0.000 HD
ENDBRANCH   1  25
TORSDOF 3
ENDMDL
MODEL 2
REMARK VINA RESULT:      -8.6      2.675      6.414
REMARK  Name = 
REMARK  3 active torsions:
REMARK  status: ('A' for Active; 'I' for Inactive)
REMARK    1  A    between atoms: C_2  and  C_4
REMARK    2  A    between atoms: C_6  and  C_7
REMARK    3  A    between atoms: C_15  and  C_16
REMARK                            x       y       z     vdW  Elec       q    Type
REMARK                         _______ _______ _______ _____ _____    ______ ____
ROOT
ATOM      1  C   UNL     1       2.733   3.905  20.201  0.00  0.00    +0.000 C 
ATOM      2  C   UNL     1       2.644   5.449  20.316  0.00  0.00    +0.000 C 
ATOM      3  C   UNL     1       2.518   6.105  18.911  0.00  0.00    +0.000 C 
ATOM      4  C   UNL     1       3.832   5.886  18.120  0.00  0.00    +0.000 C 
ATOM      5  C   UNL     1       4.137   4.424  18.104  0.00  0.00    +0.000 A 
ATOM      6  C   UNL     1       4.890   3.611  17.216  0.00  0.00    +0.000 A 
ATOM      7  N   UNL     1       4.783   2.316  17.568  0.00  0.00    +0.000 NA
ATOM      8  N   UNL     1       4.051   2.317  18.694  0.00  0.00    +0.000 N 
ATOM      9  C   UNL     1       3.621   3.556  19.045  0.00  0.00    +0.000 A 
ATOM     10  H   UNL     1       3.863   1.424  19.151  0.00  0.00    +0.000 HD
ENDROOT
BRANCH   6  11
ATOM     11  C   UNL     1       5.659   4.027  16.044  0.00  0.00    +0.000 A 
ATOM     12  C   UNL     1       6.816   4.806  16.189  0.00  0.00    +0.000 A 
ATOM     13  C   UNL     1       7.523   5.248  15.067  0.00  0.00    +0.000 A 
ATOM     14  C   UNL     1       7.083   4.901  13.792  0.00  0.00    +0.000 A 
ATOM     15 CL   UNL     1       7.936   5.468  12.413  0.00  0.00    +0.000 Cl
ATOM     16  C   UNL     1       5.952   4.102  13.632  0.00  0.00    +0.000 A 
ATOM     17  C   UNL     1       5.243   3.664  14.756  0.00  0.00    +0.000 A 
ENDBRANCH   6  11
BRANCH   3  18
ATOM     18  C   UNL     1       2.082   7.547  18.957  0.00  0.00    +0.000 A 
ATOM     19  C   UNL     1       1.499   8.091  20.102  0.00  0.00    +0.000 A 
ATOM     20  C   UNL     1       1.087   9.422  20.121  0.00  0.00    +0.000 A 
ATOM     21  C   UNL     1       1.266  10.222  18.993  0.00  0.00    +0.000 A 
ATOM     22  C   UNL     1       1.851   9.695  17.847  0.00  0.00    +0.000 A 
ATOM     23  C   UNL     1       2.258   8.362  17.830  0.00  0.00    +0.000 A 
ENDBRANCH   3  18
BRANCH   1  25
ATOM     24  N   UNL     1       0.680   2.910  21.184  0.00  0.00    +0.000 N 
ATOM     25  C   UNL     1       1.318   3.341  20.058  0.00  0.00    +0.000 C 
ATOM     26  O   UNL     1       0.785   3.185  18.963  0.00  0.00    +0.000 OA
ATOM     27  H   UNL     1      -0.210   2.443  21.073  0.00  0.00    +0.000 HD
ATOM     28  H   UNL     1       1.093   2.951  22.108  0.00  0.00    +0.000 HD
ENDBRANCH   1  25
TORSDOF 3
ENDMDL
MODEL 3
REMARK VINA RESULT:      -8.5      2.701      6.496
REMARK  Name = 
REMARK  3 active torsions:
REMARK  status: ('A' for Active; 'I' for Inactive)
REMARK    1  A    between atoms: C_2  and  C_4
REMARK    2  A    between atoms: C_6  and  C_7
REMARK    3  A    between atoms: C_15  and  C_16
REMARK                            x       y       z     vdW  Elec       q    Type
REMARK                         _______ _______ _______ _____ _____    ______ ____
ROOT
ATOM      1  C   UNL     1       2.770   3.835  20.146  0.00  0.00    +0.000 C 
ATOM      2  C   UNL     1       2.654   5.374  20.300  0.00  0.00    +0.000 C 
ATOM      3  C   UNL     1       2.492   6.061  18.913  0.00  0.00    +0.000 C 
ATOM      4  C   UNL     1       3.796   5.885  18.095  0.00  0.00    +0.000 C 
ATOM      5  C   UNL     1       4.128   4.430  18.039  0.00  0.00    +0.000 A 
ATOM      6  C   UNL     1       4.880   3.652  17.119  0.00  0.00    +0.000 A 
ATOM      7  N   UNL     1       4.803   2.348  17.442  0.00  0.00    +0.000 NA
ATOM      8  N   UNL     1       4.090   2.308  18.579  0.00  0.00    +0.000 N 
ATOM      9  C   UNL     1       3.644   3.531  18.968  0.00  0.00    +0.000 A 
ATOM     10  H   UNL     1       3.926   1.402  19.017  0.00  0.00    +0.000 HD
ENDROOT
BRANCH   6  11
ATOM     11  C   UNL     1       5.621   4.110  15.945  0.00  0.00    +0.000 A 
ATOM     12  C   UNL     1       5.203   3.757  14.654  0.00  0.00    +0.000 A 
ATOM     13  C   UNL     1       5.939   4.150  13.533  0.00  0.00    +0.000 A 
ATOM     14  C   UNL     1       7.094   4.913  13.698  0.00  0.00    +0.000 A 
ATOM     15 CL   UNL     1       8.013   5.372  12.321  0.00  0.00    +0.000 Cl
ATOM     16  C   UNL     1       7.506   5.297  14.972  0.00  0.00    +0.000 A 
ATOM     17  C   UNL     1       6.770   4.899  16.093  0.00  0.00    +0.000 A 
ENDBRANCH   6  11
BRANCH   3  18
ATOM     18  C   UNL     1       2.032   7.493  19.002  0.00  0.00    +0.000 A 
ATOM     19  C   UNL     1       2.125   8.353  17.907  0.00  0.00    +0.000 A 
ATOM     20  C   UNL     1       1.709   9.679  18.012  0.00  0.00    +0.000 A 
ATOM     21  C   UNL     1       1.187  10.151  19.217  0.00  0.00    +0.000 A 
ATOM     22  C   UNL     1       1.084   9.304  20.315  0.00  0.00    +0.000 A 
ATOM     23  C   UNL     1       1.505   7.980  20.207  0.00  0.00    +0.000 A 
ENDBRANCH   3  18
BRANCH   1  25
ATOM     24  N   UNL     1       0.690   2.925  21.155  0.00  0.00    +0.000 N 
ATOM     25  C   UNL     1       1.363   3.248  20.014  0.00  0.00    +0.000 C 
ATOM     26  O   UNL     1       0.867   2.982  18.922  0.00  0.00    +0.000 OA
ATOM     27  H   UNL     1      -0.193   2.442  21.062  0.00  0.00    +0.000 HD
ATOM     28  H   UNL     1       1.072   3.059  22.083  0.00  0.00    +0.000 HD
ENDBRANCH   1  25
TORSDOF 3
ENDMDL
MODEL 4
REMARK VINA RESULT:      -8.5      0.094      1.369
REMARK  Name = 
REMARK  3 active torsions:
REMARK  status: ('A' for Active; 'I' for Inactive)
REMARK    1  A    between atoms: C_2  and  C_4
REMARK    2  A    between atoms: C_6  and  C_7
REMARK    3  A    between atoms: C_15  and  C_16
REMARK                            x       y       z     vdW  Elec       q    Type
REMARK                         _______ _______ _______ _____ _____    ______ ____
ROOT
ATOM      1  C   UNL     1       2.874   3.051  19.238  0.00  0.00    +0.000 C 
ATOM      2  C   UNL     1       3.533   3.176  17.840  0.00  0.00    +0.000 C 
ATOM      3  C   UNL     1       4.329   4.507  17.717  0.00  0.00    +0.000 C 
ATOM      4  C   UNL     1       3.343   5.701  17.749  0.00  0.00    +0.000 C 
ATOM      5  C   UNL     1       2.499   5.586  18.977  0.00  0.00    +0.000 A 
ATOM      6  C   UNL     1       1.790   6.546  19.747  0.00  0.00    +0.000 A 
ATOM      7  N   UNL     1       1.260   5.965  20.839  0.00  0.00    +0.000 NA
ATOM      8  N   UNL     1       1.553   4.660  20.721  0.00  0.00    +0.000 N 
ATOM      9  C   UNL     1       2.315   4.385  19.630  0.00  0.00    +0.000 A 
ATOM     10  H   UNL     1       1.222   4.021  21.443  0.00  0.00    +0.000 HD
ENDROOT
BRANCH   6  11
ATOM     11  C   UNL     1       1.645   7.978  19.492  0.00  0.00    +0.000 A 
ATOM     12  C   UNL     1       2.036   8.529  18.263  0.00  0.00    +0.000 A 
ATOM     13  C   UNL     1       1.946   9.905  18.037  0.00  0.00    +0.000 A 
ATOM     14  C   UNL     1       1.450  10.739  19.038  0.00  0.00    +0.000 A 
ATOM     15 CL   UNL     1       1.366  12.433  18.768  0.00  0.00    +0.000 Cl
ATOM     16  C   UNL     1       1.029  10.203  20.253  0.00  0.00    +0.000 A 
ATOM     17  C   UNL     1       1.123   8.826  20.479  0.00  0.00    +0.000 A 
ENDBRANCH   6  11
BRANCH   3  18
ATOM     18  C   UNL     1       5.268   4.540  16.539  0.00  0.00    +0.000 A 
ATOM     19  C   UNL     1       4.867   4.090  15.281  0.00  0.00    +0.000 A 
ATOM     20  C   UNL     1       5.754   4.112  14.206  0.00  0.00    +0.000 A 
ATOM     21  C   UNL     1       7.050   4.596  14.384  0.00  0.00    +0.000 A 
ATOM     22  C   UNL     1       7.462   5.053  15.632  0.00  0.00    +0.000 A 
ATOM     23  C   UNL     1       6.574   5.025  16.704  0.00  0.00    +0.000 A 
ENDBRANCH   3  18
BRANCH   1  25
ATOM     24  N   UNL     1       5.101   2.068  19.732  0.00  0.00    +0.000 N 
ATOM     25  C   UNL     1       3.917   2.526  20.228  0.00  0.00    +0.000 C 
ATOM     26  O   UNL     1       3.682   2.424  21.429  0.00  0.00    +0.000 OA
ATOM     27  H   UNL     1       5.744   1.627  20.376  0.00  0.00    +0.000 HD
ATOM     28  H   UNL     1       5.328   2.064  18.745  0.00  0.00    +0.000 HD
ENDBRANCH   1  25
TORSDOF 3
ENDMDL
MODEL 5
REMARK VINA RESULT:      -8.3      4.363      8.422
REMARK  Name = 
REMARK  3 active torsions:
REMARK  status: ('A' for Active; 'I' for Inactive)
REMARK    1  A    between atoms: C_2  and  C_4
REMARK    2  A    between atoms: C_6  and  C_7
REMARK    3  A    between atoms: C_15  and  C_16
REMARK                            x       y       z     vdW  Elec       q    Type
REMARK                         _______ _______ _______ _____ _____    ______ ____
ROOT
ATOM      1  C   UNL     1      -0.450  11.668  21.214  0.00  0.00    +0.000 C 
ATOM      2  C   UNL     1      -1.023  11.869  19.787  0.00  0.00    +0.000 C 
ATOM      3  C   UNL     1      -1.491  10.515  19.179  0.00  0.00    +0.000 C 
ATOM      4  C   UNL     1      -0.260   9.606  18.940  0.00  0.00    +0.000 C 
ATOM      5  C   UNL     1       0.499   9.488  20.221  0.00  0.00    +0.000 A 
ATOM      6  C   UNL     1       1.385   8.499  20.724  0.00  0.00    +0.000 A 
ATOM      7  N   UNL     1       1.738   8.792  21.989  0.00  0.00    +0.000 NA
ATOM      8  N   UNL     1       1.159   9.975  22.252  0.00  0.00    +0.000 N 
ATOM      9  C   UNL     1       0.387  10.424  21.229  0.00  0.00    +0.000 A 
ATOM     10  H   UNL     1       1.315  10.399  23.166  0.00  0.00    +0.000 HD
ENDROOT
BRANCH   6  11
ATOM     11  C   UNL     1       1.860   7.289  20.055  0.00  0.00    +0.000 A 
ATOM     12  C   UNL     1       2.491   7.365  18.805  0.00  0.00    +0.000 A 
ATOM     13  C   UNL     1       2.898   6.205  18.140  0.00  0.00    +0.000 A 
ATOM     14  C   UNL     1       2.689   4.960  18.731  0.00  0.00    +0.000 A 
ATOM     15 CL   UNL     1       3.166   3.534  17.901  0.00  0.00    +0.000 Cl
ATOM     16  C   UNL     1       2.091   4.870  19.986  0.00  0.00    +0.000 A 
ATOM     17  C   UNL     1       1.681   6.032  20.648  0.00  0.00    +0.000 A 
ENDBRANCH   6  11
BRANCH   3  18
ATOM     18  C   UNL     1      -2.363  10.673  17.961  0.00  0.00    +0.000 A 
ATOM     19  C   UNL     1      -3.511  11.466  17.990  0.00  0.00    +0.000 A 
ATOM     20  C   UNL     1      -4.315  11.586  16.858  0.00  0.00    +0.000 A 
ATOM     21  C   UNL     1      -3.968  10.918  15.683  0.00  0.00    +0.000 A 
ATOM     22  C   UNL     1      -2.824  10.128  15.639  0.00  0.00    +0.000 A 
ATOM     23  C   UNL     1      -2.025  10.007  16.774  0.00  0.00    +0.000 A 
ENDBRANCH   3  18
BRANCH   1  25
ATOM     24  N   UNL     1      -2.674  12.446  21.999  0.00  0.00    +0.000 N 
ATOM     25  C   UNL     1      -1.613  11.618  22.208  0.00  0.00    +0.000 C 
ATOM     26  O   UNL     1      -1.574  10.925  23.222  0.00  0.00    +0.000 OA
ATOM     27  H   UNL     1      -3.391  12.486  22.712  0.00  0.00    +0.000 HD
ATOM     28  H   UNL     1      -2.735  13.088  21.218  0.00  0.00    +0.000 HD
ENDBRANCH   1  25
TORSDOF 3
ENDMDL
MODEL 6
REMARK VINA RESULT:      -8.2      4.343      8.378
REMARK  Name = 
REMARK  3 active torsions:
REMARK  status: ('A' for Active; 'I' for Inactive)
REMARK    1  A    between atoms: C_2  and  C_4
REMARK    2  A    between atoms: C_6  and  C_7
REMARK    3  A    between atoms: C_15  and  C_16
REMARK                            x       y       z     vdW  Elec       q    Type
REMARK                         _______ _______ _______ _____ _____    ______ ____
ROOT
ATOM      1  C   UNL     1      -0.396  11.612  21.244  0.00  0.00    +0.000 C 
ATOM      2  C   UNL     1      -0.981  11.825  19.824  0.00  0.00    +0.000 C 
ATOM      3  C   UNL     1      -1.461  10.477  19.212  0.00  0.00    +0.000 C 
ATOM      4  C   UNL     1      -0.237   9.563  18.955  0.00  0.00    +0.000 C 
ATOM      5  C   UNL     1       0.534   9.434  20.228  0.00  0.00    +0.000 A 
ATOM      6  C   UNL     1       1.420   8.438  20.717  0.00  0.00    +0.000 A 
ATOM      7  N   UNL     1       1.786   8.721  21.980  0.00  0.00    +0.000 NA
ATOM      8  N   UNL     1       1.215   9.905  22.256  0.00  0.00    +0.000 N 
ATOM      9  C   UNL     1       0.436  10.364  21.243  0.00  0.00    +0.000 A 
ATOM     10  H   UNL     1       1.382  10.323  23.171  0.00  0.00    +0.000 HD
ENDROOT
BRANCH   6  11
ATOM     11  C   UNL     1       1.883   7.230  20.036  0.00  0.00    +0.000 A 
ATOM     12  C   UNL     1       1.718   5.969  20.626  0.00  0.00    +0.000 A 
ATOM     13  C   UNL     1       2.207   4.819  20.001  0.00  0.00    +0.000 A 
ATOM     14  C   UNL     1       2.853   4.923  18.771  0.00  0.00    +0.000 A 
ATOM     15 CL   UNL     1       3.478   3.511  18.016  0.00  0.00    +0.000 Cl
ATOM     16  C   UNL     1       2.999   6.165  18.156  0.00  0.00    +0.000 A 
ATOM     17  C   UNL     1       2.513   7.316  18.786  0.00  0.00    +0.000 A 
ENDBRANCH   6  11
BRANCH   3  18
ATOM     18  C   UNL     1      -2.344  10.646  18.003  0.00  0.00    +0.000 A 
ATOM     19  C   UNL     1      -2.032  10.037  16.787  0.00  0.00    +0.000 A 
ATOM     20  C   UNL     1      -2.851  10.218  15.674  0.00  0.00    +0.000 A 
ATOM     21  C   UNL     1      -3.998  11.006  15.776  0.00  0.00    +0.000 A 
ATOM     22  C   UNL     1      -4.324  11.616  16.983  0.00  0.00    +0.000 A 
ATOM     23  C   UNL     1      -3.500  11.436  18.091  0.00  0.00    +0.000 A 
ENDBRANCH   3  18
BRANCH   1  25
ATOM     24  N   UNL     1      -2.607  12.399  22.057  0.00  0.00    +0.000 N 
ATOM     25  C   UNL     1      -1.549  11.560  22.248  0.00  0.00    +0.000 C 
ATOM     26  O   UNL     1      -1.507  10.858  23.255  0.00  0.00    +0.000 OA
ATOM     27  H   UNL     1      -3.316  12.437  22.777  0.00  0.00    +0.000 HD
ATOM     28  H   UNL     1      -2.670  13.049  21.283  0.00  0.00    +0.000 HD
ENDBRANCH   1  25
TORSDOF 3
ENDMDL
MODEL 7
REMARK VINA RESULT:      -8.2      8.665     10.821
REMARK  Name = 
REMARK  3 active torsions:
REMARK  status: ('A' for Active; 'I' for Inactive)
REMARK    1  A    between atoms: C_2  and  C_4
REMARK    2  A    between atoms: C_6  and  C_7
REMARK    3  A    between atoms: C_15  and  C_16
REMARK                            x       y       z     vdW  Elec       q    Type
REMARK                         _______ _______ _______ _____ _____    ______ ____
ROOT
ATOM      1  C   UNL     1      -7.329  11.045  20.001  0.00  0.00    +0.000 C 
ATOM      2  C   UNL     1      -6.520  11.157  18.683  0.00  0.00    +0.000 C 
ATOM      3  C   UNL     1      -4.993  11.046  18.955  0.00  0.00    +0.000 C 
ATOM      4  C   UNL     1      -4.523  12.281  19.763  0.00  0.00    +0.000 C 
ATOM      5  C   UNL     1      -5.372  12.399  20.987  0.00  0.00    +0.000 A 
ATOM      6  C   UNL     1      -5.149  12.999  22.255  0.00  0.00    +0.000 A 
ATOM      7  N   UNL     1      -6.185  12.747  23.076  0.00  0.00    +0.000 NA
ATOM      8  N   UNL     1      -7.075  12.077  22.325  0.00  0.00    +0.000 N 
ATOM      9  C   UNL     1      -6.624  11.825  21.069  0.00  0.00    +0.000 A 
ATOM     10  H   UNL     1      -7.959  11.800  22.752  0.00  0.00    +0.000 HD
ENDROOT
BRANCH   6  11
ATOM     11  C   UNL     1      -3.981  13.756  22.702  0.00  0.00    +0.000 A 
ATOM     12  C   UNL     1      -4.014  15.157  22.752  0.00  0.00    +0.000 A 
ATOM     13  C   UNL     1      -2.882  15.884  23.129  0.00  0.00    +0.000 A 
ATOM     14  C   UNL     1      -1.711  15.211  23.474  0.00  0.00    +0.000 A 
ATOM     15 CL   UNL     1      -0.312  16.106  23.912  0.00  0.00    +0.000 Cl
ATOM     16  C   UNL     1      -1.672  13.818  23.459  0.00  0.00    +0.000 A 
ATOM     17  C   UNL     1      -2.805  13.092  23.077  0.00  0.00    +0.000 A 
ENDBRANCH   6  11
BRANCH   3  18
ATOM     18  C   UNL     1      -4.176  10.799  17.713  0.00  0.00    +0.000 A 
ATOM     19  C   UNL     1      -4.565  11.315  16.477  0.00  0.00    +0.000 A 
ATOM     20  C   UNL     1      -3.806  11.062  15.335  0.00  0.00    +0.000 A 
ATOM     21  C   UNL     1      -2.644  10.295  15.428  0.00  0.00    +0.000 A 
ATOM     22  C   UNL     1      -2.242   9.779  16.655  0.00  0.00    +0.000 A 
ATOM     23  C   UNL     1      -3.006  10.030  17.793  0.00  0.00    +0.000 A 
ENDBRANCH   3  18
BRANCH   1  25
ATOM     24  N   UNL     1      -7.597   8.669  19.330  0.00  0.00    +0.000 N 
ATOM     25  C   UNL     1      -7.494   9.564  20.352  0.00  0.00    +0.000 C 
ATOM     26  O   UNL     1      -7.624   9.180  21.511  0.00  0.00    +0.000 OA
ATOM     27  H   UNL     1      -7.810   7.708  19.563  0.00  0.00    +0.000 HD
ATOM     28  H   UNL     1      -7.564   8.932  18.352  0.00  0.00    +0.000 HD
ENDBRANCH   1  25
TORSDOF 3
ENDMDL
MODEL 8
REMARK VINA RESULT:      -7.5      4.584      7.568
REMARK  Name = 
REMARK  3 active torsions:
REMARK  status: ('A' for Active; 'I' for Inactive)
REMARK    1  A    between atoms: C_2  and  C_4
REMARK    2  A    between atoms: C_6  and  C_7
REMARK    3  A    between atoms: C_15  and  C_16
REMARK                            x       y       z     vdW  Elec       q    Type
REMARK                         _______ _______ _______ _____ _____    ______ ____
ROOT
ATOM      1  C   UNL     1       6.120   6.414  18.091  0.00  0.00    +0.000 C 
ATOM      2  C   UNL     1       4.667   5.969  18.404  0.00  0.00    +0.000 C 
ATOM      3  C   UNL     1       4.415   4.512  17.921  0.00  0.00    +0.000 C 
ATOM      4  C   UNL     1       4.473   4.464  16.374  0.00  0.00    +0.000 C 
ATOM      5  C   UNL     1       5.771   5.056  15.929  0.00  0.00    +0.000 A 
ATOM      6  C   UNL     1       6.551   4.886  14.756  0.00  0.00    +0.000 A 
ATOM      7  N   UNL     1       7.709   5.562  14.865  0.00  0.00    +0.000 NA
ATOM      8  N   UNL     1       7.629   6.208  16.039  0.00  0.00    +0.000 N 
ATOM      9  C   UNL     1       6.493   5.921  16.726  0.00  0.00    +0.000 A 
ATOM     10  H   UNL     1       8.406   6.808  16.317  0.00  0.00    +0.000 HD
ENDROOT
BRANCH   6  11
ATOM     11  C   UNL     1       6.241   4.079  13.576  0.00  0.00    +0.000 A 
ATOM     12  C   UNL     1       4.911   3.852  13.194  0.00  0.00    +0.000 A 
ATOM     13  C   UNL     1       4.612   3.039  12.098  0.00  0.00    +0.000 A 
ATOM     14  C   UNL     1       5.646   2.458  11.366  0.00  0.00    +0.000 A 
ATOM     15 CL   UNL     1       5.277   1.436  10.035  0.00  0.00    +0.000 Cl
ATOM     16  C   UNL     1       6.974   2.698  11.714  0.00  0.00    +0.000 A 
ATOM     17  C   UNL     1       7.271   3.509  12.814  0.00  0.00    +0.000 A 
ENDBRANCH   6  11
BRANCH   3  18
ATOM     18  C   UNL     1       3.163   3.898  18.491  0.00  0.00    +0.000 A 
ATOM     19  C   UNL     1       2.683   2.671  18.031  0.00  0.00    +0.000 A 
ATOM     20  C   UNL     1       1.514   2.126  18.558  0.00  0.00    +0.000 A 
ATOM     21  C   UNL     1       0.820   2.805  19.560  0.00  0.00    +0.000 A 
ATOM     22  C   UNL     1       1.289   4.027  20.031  0.00  0.00    +0.000 A 
ATOM     23  C   UNL     1       2.455   4.570  19.499  0.00  0.00    +0.000 A 
ENDBRANCH   3  18
BRANCH   1  25
ATOM     24  N   UNL     1       8.295   6.412  19.289  0.00  0.00    +0.000 N 
ATOM     25  C   UNL     1       7.043   5.884  19.191  0.00  0.00    +0.000 C 
ATOM     26  O   UNL     1       6.720   4.948  19.918  0.00  0.00    +0.000 OA
ATOM     27  H   UNL     1       8.936   5.989  19.947  0.00  0.00    +0.000 HD
ATOM     28  H   UNL     1       8.643   7.140  18.677  0.00  0.00    +0.000 HD
ENDBRANCH   1  25
TORSDOF 3
ENDMDL
MODEL 9
REMARK VINA RESULT:      -7.3      4.783      7.520
REMARK  Name = 
REMARK  3 active torsions:
REMARK  status: ('A' for Active; 'I' for Inactive)
REMARK    1  A    between atoms: C_2  and  C_4
REMARK    2  A    between atoms: C_6  and  C_7
REMARK    3  A    between atoms: C_15  and  C_16
REMARK                            x       y       z     vdW  Elec       q    Type
REMARK                         _______ _______ _______ _____ _____    ______ ____
ROOT
ATOM      1  C   UNL     1       6.815   5.809  17.670  0.00  0.00    +0.000 C 
ATOM      2  C   UNL     1       5.405   5.551  18.262  0.00  0.00    +0.000 C 
ATOM      3  C   UNL     1       4.818   4.209  17.739  0.00  0.00    +0.000 C 
ATOM      4  C   UNL     1       4.546   4.322  16.218  0.00  0.00    +0.000 C 
ATOM      5  C   UNL     1       5.805   4.762  15.543  0.00  0.00    +0.000 A 
ATOM      6  C   UNL     1       6.286   4.608  14.217  0.00  0.00    +0.000 A 
ATOM      7  N   UNL     1       7.538   5.090  14.118  0.00  0.00    +0.000 NA
ATOM      8  N   UNL     1       7.812   5.610  15.325  0.00  0.00    +0.000 N 
ATOM      9  C   UNL     1       6.811   5.419  16.223  0.00  0.00    +0.000 A 
ATOM     10  H   UNL     1       8.719   6.054  15.468  0.00  0.00    +0.000 HD
ENDROOT
BRANCH   6  11
ATOM     11  C   UNL     1       5.609   3.990  13.077  0.00  0.00    +0.000 A 
ATOM     12  C   UNL     1       4.411   4.524  12.583  0.00  0.00    +0.000 A 
ATOM     13  C   UNL     1       3.735   3.904  11.528  0.00  0.00    +0.000 A 
ATOM     14  C   UNL     1       4.264   2.751  10.951  0.00  0.00    +0.000 A 
ATOM     15 CL   UNL     1       3.420   1.975   9.672  0.00  0.00    +0.000 Cl
ATOM     16  C   UNL     1       5.470   2.226  11.411  0.00  0.00    +0.000 A 
ATOM     17  C   UNL     1       6.142   2.845  12.470  0.00  0.00    +0.000 A 
ENDBRANCH   6  11
BRANCH   3  18
ATOM     18  C   UNL     1       3.626   3.727  18.524  0.00  0.00    +0.000 A 
ATOM     19  C   UNL     1       3.772   3.171  19.795  0.00  0.00    +0.000 A 
ATOM     20  C   UNL     1       2.660   2.715  20.500  0.00  0.00    +0.000 A 
ATOM     21  C   UNL     1       1.388   2.822  19.938  0.00  0.00    +0.000 A 
ATOM     22  C   UNL     1       1.226   3.379  18.673  0.00  0.00    +0.000 A 
ATOM     23  C   UNL     1       2.341   3.829  17.970  0.00  0.00    +0.000 A 
ENDBRANCH   3  18
BRANCH   1  25
ATOM     24  N   UNL     1       8.091   5.447  19.770  0.00  0.00    +0.000 N 
ATOM     25  C   UNL     1       7.843   5.032  18.495  0.00  0.00    +0.000 C 
ATOM     26  O   UNL     1       8.505   4.115  18.016  0.00  0.00    +0.000 OA
ATOM     27  H   UNL     1       8.844   4.998  20.275  0.00  0.00    +0.000 HD
ATOM     28  H   UNL     1       7.626   6.237  20.199  0.00  0.00    +0.000 HD
ENDBRANCH   1  25
TORSDOF 3
ENDMDL
