MODEL 1
REMARK VINA RESULT:      -7.7      0.000      0.000
REMARK  Name = 
REMARK  7 active torsions:
REMARK  status: ('A' for Active; 'I' for Inactive)
REMARK    1  A    between atoms: C_1  and  C_2
REMARK    2  A    between atoms: C_2  and  C_3
REMARK    3  A    between atoms: C_2  and  C_4
REMARK    4  A    between atoms: C_2  and  C_5
REMARK    5  A    between atoms: C_10  and  C_11
REMARK    6  A    between atoms: C_11  and  O_12
REMARK    7  A    between atoms: O_12  and  C_13
REMARK                            x       y       z     vdW  Elec       q    Type
REMARK                         _______ _______ _______ _____ _____    ______ ____
ROOT
ATOM      1  C   UNL     1       3.437   4.201  18.898  0.00  0.00    +0.000 A 
ATOM      2  N   UNL     1       4.402   3.445  19.338  0.00  0.00    +0.000 NA
ATOM      3  N   UNL     1       5.735   3.858  19.268  0.00  0.00    +0.000 NA
ATOM      4  C   UNL     1       5.990   5.016  18.771  0.00  0.00    +0.000 A 
ATOM      5  S   UNL     1       7.591   5.664  18.636  0.00  0.00    +0.000 S 
ATOM      6  C   UNL     1       6.881   7.099  17.927  0.00  0.00    +0.000 A 
ATOM      7  N   UNL     1       5.584   7.103  17.797  0.00  0.00    +0.000 NA
ATOM      8  N   UNL     1       5.077   5.898  18.290  0.00  0.00    +0.000 N 
ATOM      9  C   UNL     1       3.729   5.581  18.272  0.00  0.00    +0.000 A 
ATOM     10  O   UNL     1       2.822   6.261  17.828  0.00  0.00    +0.000 OA
ENDROOT
BRANCH   1  12
ATOM     11  C   UNL     1       1.979   2.158  19.293  0.00  0.00    +0.000 C 
ATOM     12  C   UNL     1       1.976   3.683  19.015  0.00  0.00    +0.000 C 
ATOM     13  C   UNL     1       1.199   3.900  17.708  0.00  0.00    +0.000 C 
ATOM     14  C   UNL     1       1.238   4.358  20.180  0.00  0.00    +0.000 C 
ENDBRANCH   1  12
BRANCH   6  15
ATOM     15  C   UNL     1       7.822   8.215  17.501  0.00  0.00    +0.000 C 
BRANCH  15  16
ATOM     16  O   UNL     1       8.579   8.585  18.652  0.00  0.00    +0.000 OA
BRANCH  16  17
ATOM     17  C   UNL     1       8.947   9.892  18.799  0.00  0.00    +0.000 A 
ATOM     18  C   UNL     1       8.493  10.737  17.779  0.00  0.00    +0.000 A 
ATOM     19  C   UNL     1       8.731  12.114  17.819  0.00  0.00    +0.000 A 
ATOM     20  C   UNL     1       9.420  12.658  18.896  0.00  0.00    +0.000 A 
ATOM     21 CL   UNL     1       9.685  14.357  18.970  0.00  0.00    +0.000 Cl
ATOM     22  C   UNL     1       9.881  11.830  19.921  0.00  0.00    +0.000 A 
ATOM     23  C   UNL     1       9.650  10.446  19.874  0.00  0.00    +0.000 A 
ENDBRANCH  16  17
ENDBRANCH  15  16
ENDBRANCH   6  15
TORSDOF 4
ENDMDL
MODEL 2
REMARK VINA RESULT:      -7.7      0.284      1.039
REMARK  Name = 
REMARK  7 active torsions:
REMARK  status: ('A' for Active; 'I' for Inactive)
REMARK    1  A    between atoms: C_1  and  C_2
REMARK    2  A    between atoms: C_2  and  C_3
REMARK    3  A    between atoms: C_2  and  C_4
REMARK    4  A    between atoms: C_2  and  C_5
REMARK    5  A    between atoms: C_10  and  C_11
REMARK    6  A    between atoms: C_11  and  O_12
REMARK    7  A    between atoms: O_12  and  C_13
REMARK                            x       y       z     vdW  Elec       q    Type
REMARK                         _______ _______ _______ _____ _____    ______ ____
ROOT
ATOM      1  C   UNL     1       3.502   4.258  18.842  0.00  0.00    +0.000 A 
ATOM      2  N   UNL     1       4.460   3.512  19.316  0.00  0.00    +0.000 NA
ATOM      3  N   UNL     1       5.793   3.928  19.268  0.00  0.00    +0.000 NA
ATOM      4  C   UNL     1       6.055   5.079  18.759  0.00  0.00    +0.000 A 
ATOM      5  S   UNL     1       7.657   5.730  18.649  0.00  0.00    +0.000 S 
ATOM      6  C   UNL     1       6.959   7.152  17.903  0.00  0.00    +0.000 A 
ATOM      7  N   UNL     1       5.665   7.149  17.744  0.00  0.00    +0.000 NA
ATOM      8  N   UNL     1       5.150   5.950  18.244  0.00  0.00    +0.000 N 
ATOM      9  C   UNL     1       3.804   5.629  18.202  0.00  0.00    +0.000 A 
ATOM     10  O   UNL     1       2.905   6.299  17.727  0.00  0.00    +0.000 OA
ENDROOT
BRANCH   1  12
ATOM     11  C   UNL     1       2.042   2.210  19.202  0.00  0.00    +0.000 C 
ATOM     12  C   UNL     1       2.040   3.737  18.935  0.00  0.00    +0.000 C 
ATOM     13  C   UNL     1       1.282   3.962  17.620  0.00  0.00    +0.000 C 
ATOM     14  C   UNL     1       1.286   4.403  20.095  0.00  0.00    +0.000 C 
ENDBRANCH   1  12
BRANCH   6  15
ATOM     15  C   UNL     1       7.906   8.264  17.480  0.00  0.00    +0.000 C 
BRANCH  15  16
ATOM     16  O   UNL     1       8.531   8.753  18.665  0.00  0.00    +0.000 OA
BRANCH  16  17
ATOM     17  C   UNL     1       8.897  10.068  18.716  0.00  0.00    +0.000 A 
ATOM     18  C   UNL     1       9.679  10.405  19.827  0.00  0.00    +0.000 A 
ATOM     19  C   UNL     1      10.188  11.697  19.989  0.00  0.00    +0.000 A 
ATOM     20  C   UNL     1       9.925  12.661  19.024  0.00  0.00    +0.000 A 
ATOM     21 CL   UNL     1      10.579  14.244  19.200  0.00  0.00    +0.000 Cl
ATOM     22  C   UNL     1       9.147  12.342  17.911  0.00  0.00    +0.000 A 
ATOM     23  C   UNL     1       8.627  11.047  17.756  0.00  0.00    +0.000 A 
ENDBRANCH  16  17
ENDBRANCH  15  16
ENDBRANCH   6  15
TORSDOF 4
ENDMDL
MODEL 3
REMARK VINA RESULT:      -7.4      0.936      1.333
REMARK  Name = 
REMARK  7 active torsions:
REMARK  status: ('A' for Active; 'I' for Inactive)
REMARK    1  A    between atoms: C_1  and  C_2
REMARK    2  A    between atoms: C_2  and  C_3
REMARK    3  A    between atoms: C_2  and  C_4
REMARK    4  A    between atoms: C_2  and  C_5
REMARK    5  A    between atoms: C_10  and  C_11
REMARK    6  A    between atoms: C_11  and  O_12
REMARK    7  A    between atoms: O_12  and  C_13
REMARK                            x       y       z     vdW  Elec       q    Type
REMARK                         _______ _______ _______ _____ _____    ______ ____
ROOT
ATOM      1  C   UNL     1       3.609   4.387  18.828  0.00  0.00    +0.000 A 
ATOM      2  N   UNL     1       4.539   3.646  19.361  0.00  0.00    +0.000 NA
ATOM      3  N   UNL     1       5.881   4.036  19.332  0.00  0.00    +0.000 NA
ATOM      4  C   UNL     1       6.179   5.158  18.779  0.00  0.00    +0.000 A 
ATOM      5  S   UNL     1       7.795   5.774  18.685  0.00  0.00    +0.000 S 
ATOM      6  C   UNL     1       7.144   7.173  17.858  0.00  0.00    +0.000 A 
ATOM      7  N   UNL     1       5.855   7.187  17.663  0.00  0.00    +0.000 NA
ATOM      8  N   UNL     1       5.305   6.021  18.201  0.00  0.00    +0.000 N 
ATOM      9  C   UNL     1       3.954   5.722  18.136  0.00  0.00    +0.000 A 
ATOM     10  O   UNL     1       3.081   6.386  17.607  0.00  0.00    +0.000 OA
ENDROOT
BRANCH   1  12
ATOM     11  C   UNL     1       1.393   4.261  17.592  0.00  0.00    +0.000 C 
ATOM     12  C   UNL     1       2.135   3.897  18.904  0.00  0.00    +0.000 C 
ATOM     13  C   UNL     1       1.379   4.579  20.053  0.00  0.00    +0.000 C 
ATOM     14  C   UNL     1       2.064   2.372  19.062  0.00  0.00    +0.000 C 
ENDBRANCH   1  12
BRANCH   6  15
ATOM     15  C   UNL     1       8.124   8.249  17.412  0.00  0.00    +0.000 C 
BRANCH  15  16
ATOM     16  O   UNL     1       7.840   9.416  18.182  0.00  0.00    +0.000 OA
BRANCH  16  17
ATOM     17  C   UNL     1       8.885  10.159  18.650  0.00  0.00    +0.000 A 
ATOM     18  C   UNL     1       9.625  10.805  17.653  0.00  0.00    +0.000 A 
ATOM     19  C   UNL     1      10.687  11.656  17.975  0.00  0.00    +0.000 A 
ATOM     20  C   UNL     1      11.006  11.876  19.309  0.00  0.00    +0.000 A 
ATOM     21 CL   UNL     1      12.289  12.950  19.714  0.00  0.00    +0.000 Cl
ATOM     22  C   UNL     1      10.280  11.238  20.316  0.00  0.00    +0.000 A 
ATOM     23  C   UNL     1       9.221  10.376  19.990  0.00  0.00    +0.000 A 
ENDBRANCH  16  17
ENDBRANCH  15  16
ENDBRANCH   6  15
TORSDOF 4
ENDMDL
MODEL 4
REMARK VINA RESULT:      -7.3      0.716      1.495
REMARK  Name = 
REMARK  7 active torsions:
REMARK  status: ('A' for Active; 'I' for Inactive)
REMARK    1  A    between atoms: C_1  and  C_2
REMARK    2  A    between atoms: C_2  and  C_3
REMARK    3  A    between atoms: C_2  and  C_4
REMARK    4  A    between atoms: C_2  and  C_5
REMARK    5  A    between atoms: C_10  and  C_11
REMARK    6  A    between atoms: C_11  and  O_12
REMARK    7  A    between atoms: O_12  and  C_13
REMARK                            x       y       z     vdW  Elec       q    Type
REMARK                         _______ _______ _______ _____ _____    ______ ____
ROOT
ATOM      1  C   UNL     1       3.520   4.378  18.903  0.00  0.00    +0.000 A 
ATOM      2  N   UNL     1       4.443   3.593  19.381  0.00  0.00    +0.000 NA
ATOM      3  N   UNL     1       5.795   3.940  19.312  0.00  0.00    +0.000 NA
ATOM      4  C   UNL     1       6.110   5.066  18.778  0.00  0.00    +0.000 A 
ATOM      5  S   UNL     1       7.741   5.632  18.640  0.00  0.00    +0.000 S 
ATOM      6  C   UNL     1       7.108   7.073  17.873  0.00  0.00    +0.000 A 
ATOM      7  N   UNL     1       5.814   7.134  17.727  0.00  0.00    +0.000 NA
ATOM      8  N   UNL     1       5.245   5.972  18.255  0.00  0.00    +0.000 N 
ATOM      9  C   UNL     1       3.884   5.719  18.233  0.00  0.00    +0.000 A 
ATOM     10  O   UNL     1       3.015   6.425  17.754  0.00  0.00    +0.000 OA
ENDROOT
BRANCH   1  12
ATOM     11  C   UNL     1       1.309   4.162  17.669  0.00  0.00    +0.000 C 
ATOM     12  C   UNL     1       2.034   3.935  19.021  0.00  0.00    +0.000 C 
ATOM     13  C   UNL     1       1.286   4.762  20.076  0.00  0.00    +0.000 C 
ATOM     14  C   UNL     1       1.925   2.440  19.353  0.00  0.00    +0.000 C 
ENDBRANCH   1  12
BRANCH   6  15
ATOM     15  C   UNL     1       8.107   8.128  17.419  0.00  0.00    +0.000 C 
BRANCH  15  16
ATOM     16  O   UNL     1       7.560   9.397  17.771  0.00  0.00    +0.000 OA
BRANCH  16  17
ATOM     17  C   UNL     1       8.407  10.370  18.222  0.00  0.00    +0.000 A 
ATOM     18  C   UNL     1       9.218   9.976  19.293  0.00  0.00    +0.000 A 
ATOM     19  C   UNL     1      10.182  10.836  19.826  0.00  0.00    +0.000 A 
ATOM     20  C   UNL     1      10.349  12.101  19.275  0.00  0.00    +0.000 A 
ATOM     21 CL   UNL     1      11.560  13.152  19.902  0.00  0.00    +0.000 Cl
ATOM     22  C   UNL     1       9.548  12.510  18.208  0.00  0.00    +0.000 A 
ATOM     23  C   UNL     1       8.573  11.649  17.682  0.00  0.00    +0.000 A 
ENDBRANCH  16  17
ENDBRANCH  15  16
ENDBRANCH   6  15
TORSDOF 4
ENDMDL
MODEL 5
REMARK VINA RESULT:      -7.3      4.601      6.083
REMARK  Name = 
REMARK  7 active torsions:
REMARK  status: ('A' for Active; 'I' for Inactive)
REMARK    1  A    between atoms: C_1  and  C_2
REMARK    2  A    between atoms: C_2  and  C_3
REMARK    3  A    between atoms: C_2  and  C_4
REMARK    4  A    between atoms: C_2  and  C_5
REMARK    5  A    between atoms: C_10  and  C_11
REMARK    6  A    between atoms: C_11  and  O_12
REMARK    7  A    between atoms: O_12  and  C_13
REMARK                            x       y       z     vdW  Elec       q    Type
REMARK                         _______ _______ _______ _____ _____    ______ ____
ROOT
ATOM      1  C   UNL     1       2.917   3.671  19.626  0.00  0.00    +0.000 A 
ATOM      2  N   UNL     1       3.951   3.057  20.130  0.00  0.00    +0.000 NA
ATOM      3  N   UNL     1       5.245   3.331  19.681  0.00  0.00    +0.000 NA
ATOM      4  C   UNL     1       5.398   4.219  18.764  0.00  0.00    +0.000 A 
ATOM      5  S   UNL     1       6.943   4.670  18.124  0.00  0.00    +0.000 S 
ATOM      6  C   UNL     1       6.108   5.806  17.085  0.00  0.00    +0.000 A 
ATOM      7  N   UNL     1       4.810   5.849  17.194  0.00  0.00    +0.000 NA
ATOM      8  N   UNL     1       4.408   4.931  18.169  0.00  0.00    +0.000 N 
ATOM      9  C   UNL     1       3.082   4.718  18.506  0.00  0.00    +0.000 A 
ATOM     10  O   UNL     1       2.106   5.255  18.015  0.00  0.00    +0.000 OA
ENDROOT
BRANCH   1  12
ATOM     11  C   UNL     1       0.731   4.629  20.496  0.00  0.00    +0.000 C 
ATOM     12  C   UNL     1       1.506   3.325  20.179  0.00  0.00    +0.000 C 
ATOM     13  C   UNL     1       1.599   2.528  21.489  0.00  0.00    +0.000 C 
ATOM     14  C   UNL     1       0.682   2.541  19.148  0.00  0.00    +0.000 C 
ENDBRANCH   1  12
BRANCH   6  15
ATOM     15  C   UNL     1       6.949   6.636  16.126  0.00  0.00    +0.000 C 
BRANCH  15  16
ATOM     16  O   UNL     1       7.688   5.720  15.320  0.00  0.00    +0.000 OA
BRANCH  16  17
ATOM     17  C   UNL     1       7.015   4.973  14.396  0.00  0.00    +0.000 A 
ATOM     18  C   UNL     1       7.613   4.945  13.131  0.00  0.00    +0.000 A 
ATOM     19  C   UNL     1       7.082   4.172  12.095  0.00  0.00    +0.000 A 
ATOM     20  C   UNL     1       5.946   3.406  12.327  0.00  0.00    +0.000 A 
ATOM     21 CL   UNL     1       5.306   2.424  11.066  0.00  0.00    +0.000 Cl
ATOM     22  C   UNL     1       5.335   3.423  13.582  0.00  0.00    +0.000 A 
ATOM     23  C   UNL     1       5.865   4.209  14.618  0.00  0.00    +0.000 A 
ENDBRANCH  16  17
ENDBRANCH  15  16
ENDBRANCH   6  15
TORSDOF 4
ENDMDL
MODEL 6
REMARK VINA RESULT:      -7.2      4.651      6.041
REMARK  Name = 
REMARK  7 active torsions:
REMARK  status: ('A' for Active; 'I' for Inactive)
REMARK    1  A    between atoms: C_1  and  C_2
REMARK    2  A    between atoms: C_2  and  C_3
REMARK    3  A    between atoms: C_2  and  C_4
REMARK    4  A    between atoms: C_2  and  C_5
REMARK    5  A    between atoms: C_10  and  C_11
REMARK    6  A    between atoms: C_11  and  O_12
REMARK    7  A    between atoms: O_12  and  C_13
REMARK                            x       y       z     vdW  Elec       q    Type
REMARK                         _______ _______ _______ _____ _____    ______ ____
ROOT
ATOM      1  C   UNL     1       2.879   3.668  19.601  0.00  0.00    +0.000 A 
ATOM      2  N   UNL     1       3.928   3.122  20.148  0.00  0.00    +0.000 NA
ATOM      3  N   UNL     1       5.216   3.422  19.699  0.00  0.00    +0.000 NA
ATOM      4  C   UNL     1       5.347   4.266  18.738  0.00  0.00    +0.000 A 
ATOM      5  S   UNL     1       6.882   4.744  18.092  0.00  0.00    +0.000 S 
ATOM      6  C   UNL     1       6.018   5.791  16.986  0.00  0.00    +0.000 A 
ATOM      7  N   UNL     1       4.717   5.789  17.079  0.00  0.00    +0.000 NA
ATOM      8  N   UNL     1       4.338   4.908  18.096  0.00  0.00    +0.000 N 
ATOM      9  C   UNL     1       3.018   4.662  18.430  0.00  0.00    +0.000 A 
ATOM     10  O   UNL     1       2.028   5.134  17.901  0.00  0.00    +0.000 OA
ENDROOT
BRANCH   1  12
ATOM     11  C   UNL     1       1.626   2.480  21.466  0.00  0.00    +0.000 C 
ATOM     12  C   UNL     1       1.474   3.297  20.157  0.00  0.00    +0.000 C 
ATOM     13  C   UNL     1       0.697   2.418  19.167  0.00  0.00    +0.000 C 
ATOM     14  C   UNL     1       0.659   4.553  20.493  0.00  0.00    +0.000 C 
ENDBRANCH   1  12
BRANCH   6  15
ATOM     15  C   UNL     1       6.838   6.602  15.995  0.00  0.00    +0.000 C 
BRANCH  15  16
ATOM     16  O   UNL     1       7.710   5.689  15.331  0.00  0.00    +0.000 OA
BRANCH  16  17
ATOM     17  C   UNL     1       7.217   4.951  14.293  0.00  0.00    +0.000 A 
ATOM     18  C   UNL     1       6.123   4.145  14.629  0.00  0.00    +0.000 A 
ATOM     19  C   UNL     1       5.463   3.379  13.663  0.00  0.00    +0.000 A 
ATOM     20  C   UNL     1       5.892   3.428  12.342  0.00  0.00    +0.000 A 
ATOM     21 CL   UNL     1       5.063   2.516  11.141  0.00  0.00    +0.000 Cl
ATOM     22  C   UNL     1       6.982   4.226  11.990  0.00  0.00    +0.000 A 
ATOM     23  C   UNL     1       7.650   4.986  12.964  0.00  0.00    +0.000 A 
ENDBRANCH  16  17
ENDBRANCH  15  16
ENDBRANCH   6  15
TORSDOF 4
ENDMDL
MODEL 7
REMARK VINA RESULT:      -7.1      1.102      1.760
REMARK  Name = 
REMARK  7 active torsions:
REMARK  status: ('A' for Active; 'I' for Inactive)
REMARK    1  A    between atoms: C_1  and  C_2
REMARK    2  A    between atoms: C_2  and  C_3
REMARK    3  A    between atoms: C_2  and  C_4
REMARK    4  A    between atoms: C_2  and  C_5
REMARK    5  A    between atoms: C_10  and  C_11
REMARK    6  A    between atoms: C_11  and  O_12
REMARK    7  A    between atoms: O_12  and  C_13
REMARK                            x       y       z     vdW  Elec       q    Type
REMARK                         _______ _______ _______ _____ _____    ______ ____
ROOT
ATOM      1  C   UNL     1       4.149   4.238  18.574  0.00  0.00    +0.000 A 
ATOM      2  N   UNL     1       5.104   3.643  19.231  0.00  0.00    +0.000 NA
ATOM      3  N   UNL     1       6.365   4.230  19.364  0.00  0.00    +0.000 NA
ATOM      4  C   UNL     1       6.560   5.385  18.835  0.00  0.00    +0.000 A 
ATOM      5  S   UNL     1       8.065   6.237  18.934  0.00  0.00    +0.000 S 
ATOM      6  C   UNL     1       7.323   7.525  18.008  0.00  0.00    +0.000 A 
ATOM      7  N   UNL     1       6.081   7.345  17.653  0.00  0.00    +0.000 NA
ATOM      8  N   UNL     1       5.647   6.108  18.137  0.00  0.00    +0.000 N 
ATOM      9  C   UNL     1       4.376   5.611  17.909  0.00  0.00    +0.000 A 
ATOM     10  O   UNL     1       3.487   6.137  17.264  0.00  0.00    +0.000 OA
ENDROOT
BRANCH   1  12
ATOM     11  C   UNL     1       1.670   4.430  19.100  0.00  0.00    +0.000 C 
ATOM     12  C   UNL     1       2.767   3.532  18.473  0.00  0.00    +0.000 C 
ATOM     13  C   UNL     1       2.759   2.206  19.247  0.00  0.00    +0.000 C 
ATOM     14  C   UNL     1       2.375   3.285  17.009  0.00  0.00    +0.000 C 
ENDBRANCH   1  12
BRANCH   6  15
ATOM     15  C   UNL     1       8.179   8.736  17.671  0.00  0.00    +0.000 C 
BRANCH  15  16
ATOM     16  O   UNL     1       8.607   9.302  18.908  0.00  0.00    +0.000 OA
BRANCH  16  17
ATOM     17  C   UNL     1       9.420  10.399  18.878  0.00  0.00    +0.000 A 
ATOM     18  C   UNL     1       9.829  10.846  20.140  0.00  0.00    +0.000 A 
ATOM     19  C   UNL     1      10.716  11.919  20.275  0.00  0.00    +0.000 A 
ATOM     20  C   UNL     1      11.211  12.545  19.138  0.00  0.00    +0.000 A 
ATOM     21 CL   UNL     1      12.330  13.842  19.297  0.00  0.00    +0.000 Cl
ATOM     22  C   UNL     1      10.811  12.112  17.873  0.00  0.00    +0.000 A 
ATOM     23  C   UNL     1       9.913  11.042  17.739  0.00  0.00    +0.000 A 
ENDBRANCH  16  17
ENDBRANCH  15  16
ENDBRANCH   6  15
TORSDOF 4
ENDMDL
MODEL 8
REMARK VINA RESULT:      -7.0      4.962      6.853
REMARK  Name = 
REMARK  7 active torsions:
REMARK  status: ('A' for Active; 'I' for Inactive)
REMARK    1  A    between atoms: C_1  and  C_2
REMARK    2  A    between atoms: C_2  and  C_3
REMARK    3  A    between atoms: C_2  and  C_4
REMARK    4  A    between atoms: C_2  and  C_5
REMARK    5  A    between atoms: C_10  and  C_11
REMARK    6  A    between atoms: C_11  and  O_12
REMARK    7  A    between atoms: O_12  and  C_13
REMARK                            x       y       z     vdW  Elec       q    Type
REMARK                         _______ _______ _______ _____ _____    ______ ____
ROOT
ATOM      1  C   UNL     1       1.310   9.346  19.527  0.00  0.00    +0.000 A 
ATOM      2  N   UNL     1       1.067   8.869  20.716  0.00  0.00    +0.000 NA
ATOM      3  N   UNL     1       1.395   7.552  21.048  0.00  0.00    +0.000 NA
ATOM      4  C   UNL     1       1.960   6.820  20.155  0.00  0.00    +0.000 A 
ATOM      5  S   UNL     1       2.435   5.177  20.431  0.00  0.00    +0.000 S 
ATOM      6  C   UNL     1       3.029   5.140  18.784  0.00  0.00    +0.000 A 
ATOM      7  N   UNL     1       2.889   6.234  18.090  0.00  0.00    +0.000 NA
ATOM      8  N   UNL     1       2.274   7.201  18.890  0.00  0.00    +0.000 N 
ATOM      9  C   UNL     1       1.962   8.471  18.437  0.00  0.00    +0.000 A 
ATOM     10  O   UNL     1       2.146   8.916  17.318  0.00  0.00    +0.000 OA
ENDROOT
BRANCH   1  12
ATOM     11  C   UNL     1       2.038  11.491  18.376  0.00  0.00    +0.000 C 
ATOM     12  C   UNL     1       0.929  10.823  19.228  0.00  0.00    +0.000 C 
ATOM     13  C   UNL     1       0.803  11.641  20.522  0.00  0.00    +0.000 C 
ATOM     14  C   UNL     1      -0.378  10.908  18.427  0.00  0.00    +0.000 C 
ENDBRANCH   1  12
BRANCH   6  15
ATOM     15  C   UNL     1       3.640   3.840  18.283  0.00  0.00    +0.000 C 
BRANCH  15  16
ATOM     16  O   UNL     1       5.041   4.064  18.143  0.00  0.00    +0.000 OA
BRANCH  16  17
ATOM     17  C   UNL     1       5.538   4.334  16.900  0.00  0.00    +0.000 A 
ATOM     18  C   UNL     1       6.848   4.827  16.898  0.00  0.00    +0.000 A 
ATOM     19  C   UNL     1       7.522   5.091  15.702  0.00  0.00    +0.000 A 
ATOM     20  C   UNL     1       6.885   4.847  14.491  0.00  0.00    +0.000 A 
ATOM     21 CL   UNL     1       7.721   5.135  13.014  0.00  0.00    +0.000 Cl
ATOM     22  C   UNL     1       5.578   4.357  14.475  0.00  0.00    +0.000 A 
ATOM     23  C   UNL     1       4.900   4.103  15.677  0.00  0.00    +0.000 A 
ENDBRANCH  16  17
ENDBRANCH  15  16
ENDBRANCH   6  15
TORSDOF 4
ENDMDL
MODEL 9
REMARK VINA RESULT:      -6.9      5.219      7.074
REMARK  Name = 
REMARK  7 active torsions:
REMARK  status: ('A' for Active; 'I' for Inactive)
REMARK    1  A    between atoms: C_1  and  C_2
REMARK    2  A    between atoms: C_2  and  C_3
REMARK    3  A    between atoms: C_2  and  C_4
REMARK    4  A    between atoms: C_2  and  C_5
REMARK    5  A    between atoms: C_10  and  C_11
REMARK    6  A    between atoms: C_11  and  O_12
REMARK    7  A    between atoms: O_12  and  C_13
REMARK                            x       y       z     vdW  Elec       q    Type
REMARK                         _______ _______ _______ _____ _____    ______ ____
ROOT
ATOM      1  C   UNL     1       0.924   9.706  19.648  0.00  0.00    +0.000 A 
ATOM      2  N   UNL     1       0.678   9.140  20.796  0.00  0.00    +0.000 NA
ATOM      3  N   UNL     1       1.161   7.863  21.091  0.00  0.00    +0.000 NA
ATOM      4  C   UNL     1       1.873   7.260  20.206  0.00  0.00    +0.000 A 
ATOM      5  S   UNL     1       2.550   5.683  20.441  0.00  0.00    +0.000 S 
ATOM      6  C   UNL     1       3.241   5.811  18.837  0.00  0.00    +0.000 A 
ATOM      7  N   UNL     1       2.994   6.912  18.184  0.00  0.00    +0.000 NA
ATOM      8  N   UNL     1       2.206   7.745  18.983  0.00  0.00    +0.000 N 
ATOM      9  C   UNL     1       1.752   8.984  18.566  0.00  0.00    +0.000 A 
ATOM     10  O   UNL     1       1.941   9.507  17.483  0.00  0.00    +0.000 OA
ENDROOT
BRANCH   1  12
ATOM     11  C   UNL     1      -0.155  11.743  20.718  0.00  0.00    +0.000 C 
ATOM     12  C   UNL     1       0.363  11.133  19.390  0.00  0.00    +0.000 C 
ATOM     13  C   UNL     1      -0.826  11.098  18.418  0.00  0.00    +0.000 C 
ATOM     14  C   UNL     1       1.453  12.069  18.850  0.00  0.00    +0.000 C 
ENDBRANCH   1  12
BRANCH   6  15
ATOM     15  C   UNL     1       4.052   4.632  18.322  0.00  0.00    +0.000 C 
BRANCH  15  16
ATOM     16  O   UNL     1       5.327   5.140  17.935  0.00  0.00    +0.000 OA
BRANCH  16  17
ATOM     17  C   UNL     1       5.802   4.835  16.691  0.00  0.00    +0.000 A 
ATOM     18  C   UNL     1       4.868   4.208  15.857  0.00  0.00    +0.000 A 
ATOM     19  C   UNL     1       5.180   3.891  14.531  0.00  0.00    +0.000 A 
ATOM     20  C   UNL     1       6.434   4.215  14.027  0.00  0.00    +0.000 A 
ATOM     21 CL   UNL     1       6.811   3.860  12.386  0.00  0.00    +0.000 Cl
ATOM     22  C   UNL     1       7.376   4.839  14.846  0.00  0.00    +0.000 A 
ATOM     23  C   UNL     1       7.065   5.147  16.180  0.00  0.00    +0.000 A 
ENDBRANCH  16  17
ENDBRANCH  15  16
ENDBRANCH   6  15
TORSDOF 4
ENDMDL
