MODEL 1
REMARK VINA RESULT:      -6.5      0.000      0.000
REMARK  Name = 
REMARK  3 active torsions:
REMARK  status: ('A' for Active; 'I' for Inactive)
REMARK    1  A    between atoms: C_2  and  C_3
REMARK    2  A    between atoms: C_3  and  N_4
REMARK    3  A    between atoms: N_9  and  C_10
REMARK                            x       y       z     vdW  Elec       q    Type
REMARK                         _______ _______ _______ _____ _____    ______ ____
ROOT
ATOM      1  O   UNL     1       5.295   5.455  19.388  0.00  0.00    +0.000 OA
ATOM      2  C   UNL     1       5.469   4.415  18.748  0.00  0.00    +0.000 C 
ATOM      3  N   UNL     1       4.702   3.269  18.855  0.00  0.00    +0.000 N 
ATOM      4  H   UNL     1       5.071   2.423  18.431  0.00  0.00    +0.000 HD
ENDROOT
BRANCH   3   5
ATOM      5  C   UNL     1       3.487   3.128  19.583  0.00  0.00    +0.000 A 
ATOM      6  C   UNL     1       3.456   2.737  20.927  0.00  0.00    +0.000 A 
ATOM      7  C   UNL     1       2.249   2.635  21.626  0.00  0.00    +0.000 A 
ATOM      8  C   UNL     1       1.046   2.931  20.996  0.00  0.00    +0.000 A 
ATOM      9  C   UNL     1       1.049   3.326  19.660  0.00  0.00    +0.000 A 
ATOM     10  C   UNL     1       2.261   3.424  18.957  0.00  0.00    +0.000 A 
ATOM     11 CL   UNL     1       2.196   3.914  17.301  0.00  0.00    +0.000 Cl
ENDBRANCH   3   5
BRANCH   2  12
ATOM     12  C   UNL     1       6.595   4.344  17.713  0.00  0.00    +0.000 C 
BRANCH  12  13
ATOM     13  N   UNL     1       6.471   5.360  16.642  0.00  0.00    +0.000 NA
ATOM     14  C   UNL     1       5.160   5.326  15.964  0.00  0.00    +0.000 C 
ATOM     15  C   UNL     1       5.319   4.373  14.797  0.00  0.00    +0.000 C 
ATOM     16  C   UNL     1       6.714   4.700  14.313  0.00  0.00    +0.000 C 
ATOM     17  C   UNL     1       7.472   5.077  15.582  0.00  0.00    +0.000 C 
ENDBRANCH  12  13
ENDBRANCH   2  12
TORSDOF 3
ENDMDL
MODEL 2
REMARK VINA RESULT:      -6.2      1.661      5.698
REMARK  Name = 
REMARK  3 active torsions:
REMARK  status: ('A' for Active; 'I' for Inactive)
REMARK    1  A    between atoms: C_2  and  C_3
REMARK    2  A    between atoms: C_3  and  N_4
REMARK    3  A    between atoms: N_9  and  C_10
REMARK                            x       y       z     vdW  Elec       q    Type
REMARK                         _______ _______ _______ _____ _____    ______ ____
ROOT
ATOM      1  O   UNL     1       5.631   3.779  19.679  0.00  0.00    +0.000 OA
ATOM      2  C   UNL     1       4.574   3.322  19.238  0.00  0.00    +0.000 C 
ATOM      3  N   UNL     1       4.075   3.538  17.966  0.00  0.00    +0.000 N 
ATOM      4  H   UNL     1       3.107   3.280  17.799  0.00  0.00    +0.000 HD
ENDROOT
BRANCH   3   5
ATOM      5  C   UNL     1       4.751   4.174  16.887  0.00  0.00    +0.000 A 
ATOM      6  C   UNL     1       5.509   3.461  15.950  0.00  0.00    +0.000 A 
ATOM      7  C   UNL     1       6.139   4.108  14.882  0.00  0.00    +0.000 A 
ATOM      8  C   UNL     1       6.016   5.485  14.725  0.00  0.00    +0.000 A 
ATOM      9  C   UNL     1       5.265   6.216  15.642  0.00  0.00    +0.000 A 
ATOM     10  C   UNL     1       4.635   5.566  16.716  0.00  0.00    +0.000 A 
ATOM     11 CL   UNL     1       3.722   6.532  17.821  0.00  0.00    +0.000 Cl
ENDBRANCH   3   5
BRANCH   2  12
ATOM     12  C   UNL     1       3.720   2.408  20.121  0.00  0.00    +0.000 C 
BRANCH  12  13
ATOM     13  N   UNL     1       2.912   3.145  21.119  0.00  0.00    +0.000 NA
ATOM     14  C   UNL     1       1.559   2.581  21.297  0.00  0.00    +0.000 C 
ATOM     15  C   UNL     1       0.672   3.307  20.305  0.00  0.00    +0.000 C 
ATOM     16  C   UNL     1       1.211   4.719  20.376  0.00  0.00    +0.000 C 
ATOM     17  C   UNL     1       2.702   4.537  20.645  0.00  0.00    +0.000 C 
ENDBRANCH  12  13
ENDBRANCH   2  12
TORSDOF 3
ENDMDL
MODEL 3
REMARK VINA RESULT:      -6.2      1.533      2.116
REMARK  Name = 
REMARK  3 active torsions:
REMARK  status: ('A' for Active; 'I' for Inactive)
REMARK    1  A    between atoms: C_2  and  C_3
REMARK    2  A    between atoms: C_3  and  N_4
REMARK    3  A    between atoms: N_9  and  C_10
REMARK                            x       y       z     vdW  Elec       q    Type
REMARK                         _______ _______ _______ _____ _____    ______ ____
ROOT
ATOM      1  O   UNL     1       5.750   5.381  19.537  0.00  0.00    +0.000 OA
ATOM      2  C   UNL     1       5.994   4.584  18.628  0.00  0.00    +0.000 C 
ATOM      3  N   UNL     1       5.129   3.610  18.161  0.00  0.00    +0.000 N 
ATOM      4  H   UNL     1       5.522   2.894  17.558  0.00  0.00    +0.000 HD
ENDROOT
BRANCH   3   5
ATOM      5  C   UNL     1       3.760   3.451  18.518  0.00  0.00    +0.000 A 
ATOM      6  C   UNL     1       2.719   4.022  17.775  0.00  0.00    +0.000 A 
ATOM      7  C   UNL     1       1.381   3.825  18.131  0.00  0.00    +0.000 A 
ATOM      8  C   UNL     1       1.056   3.045  19.235  0.00  0.00    +0.000 A 
ATOM      9  C   UNL     1       2.073   2.463  19.988  0.00  0.00    +0.000 A 
ATOM     10  C   UNL     1       3.417   2.664  19.633  0.00  0.00    +0.000 A 
ATOM     11 CL   UNL     1       4.631   1.919  20.612  0.00  0.00    +0.000 Cl
ENDBRANCH   3   5
BRANCH   2  12
ATOM     12  C   UNL     1       7.338   4.658  17.897  0.00  0.00    +0.000 C 
BRANCH  12  13
ATOM     13  N   UNL     1       7.347   5.635  16.785  0.00  0.00    +0.000 NA
ATOM     14  C   UNL     1       6.351   6.712  16.955  0.00  0.00    +0.000 C 
ATOM     15  C   UNL     1       5.088   6.221  16.278  0.00  0.00    +0.000 C 
ATOM     16  C   UNL     1       5.638   5.518  15.057  0.00  0.00    +0.000 C 
ATOM     17  C   UNL     1       6.972   4.944  15.525  0.00  0.00    +0.000 C 
ENDBRANCH  12  13
ENDBRANCH   2  12
TORSDOF 3
ENDMDL
MODEL 4
REMARK VINA RESULT:      -6.2      2.164      5.622
REMARK  Name = 
REMARK  3 active torsions:
REMARK  status: ('A' for Active; 'I' for Inactive)
REMARK    1  A    between atoms: C_2  and  C_3
REMARK    2  A    between atoms: C_3  and  N_4
REMARK    3  A    between atoms: N_9  and  C_10
REMARK                            x       y       z     vdW  Elec       q    Type
REMARK                         _______ _______ _______ _____ _____    ______ ____
ROOT
ATOM      1  O   UNL     1       2.897   5.595  17.969  0.00  0.00    +0.000 OA
ATOM      2  C   UNL     1       3.413   4.535  17.608  0.00  0.00    +0.000 C 
ATOM      3  N   UNL     1       4.768   4.325  17.419  0.00  0.00    +0.000 N 
ATOM      4  H   UNL     1       5.041   3.480  16.928  0.00  0.00    +0.000 HD
ENDROOT
BRANCH   3   5
ATOM      5  C   UNL     1       5.819   5.222  17.760  0.00  0.00    +0.000 A 
ATOM      6  C   UNL     1       6.632   5.035  18.884  0.00  0.00    +0.000 A 
ATOM      7  C   UNL     1       7.678   5.916  19.179  0.00  0.00    +0.000 A 
ATOM      8  C   UNL     1       7.937   7.001  18.348  0.00  0.00    +0.000 A 
ATOM      9  C   UNL     1       7.144   7.207  17.221  0.00  0.00    +0.000 A 
ATOM     10  C   UNL     1       6.092   6.324  16.928  0.00  0.00    +0.000 A 
ATOM     11 CL   UNL     1       5.144   6.639  15.517  0.00  0.00    +0.000 Cl
ENDBRANCH   3   5
BRANCH   2  12
ATOM     12  C   UNL     1       2.530   3.307  17.367  0.00  0.00    +0.000 C 
BRANCH  12  13
ATOM     13  N   UNL     1       2.360   2.463  18.572  0.00  0.00    +0.000 NA
ATOM     14  C   UNL     1       0.962   2.405  19.043  0.00  0.00    +0.000 C 
ATOM     15  C   UNL     1       0.810   3.540  20.035  0.00  0.00    +0.000 C 
ATOM     16  C   UNL     1       2.137   3.505  20.759  0.00  0.00    +0.000 C 
ATOM     17  C   UNL     1       3.132   3.053  19.695  0.00  0.00    +0.000 C 
ENDBRANCH  12  13
ENDBRANCH   2  12
TORSDOF 3
ENDMDL
MODEL 5
REMARK VINA RESULT:      -6.2      1.370      1.771
REMARK  Name = 
REMARK  3 active torsions:
REMARK  status: ('A' for Active; 'I' for Inactive)
REMARK    1  A    between atoms: C_2  and  C_3
REMARK    2  A    between atoms: C_3  and  N_4
REMARK    3  A    between atoms: N_9  and  C_10
REMARK                            x       y       z     vdW  Elec       q    Type
REMARK                         _______ _______ _______ _____ _____    ______ ____
ROOT
ATOM      1  O   UNL     1       5.961   5.458  19.599  0.00  0.00    +0.000 OA
ATOM      2  C   UNL     1       5.886   4.583  18.734  0.00  0.00    +0.000 C 
ATOM      3  N   UNL     1       4.879   3.639  18.631  0.00  0.00    +0.000 N 
ATOM      4  H   UNL     1       5.042   2.855  18.007  0.00  0.00    +0.000 HD
ENDROOT
BRANCH   3   5
ATOM      5  C   UNL     1       3.673   3.602  19.386  0.00  0.00    +0.000 A 
ATOM      6  C   UNL     1       2.575   4.418  19.090  0.00  0.00    +0.000 A 
ATOM      7  C   UNL     1       1.391   4.340  19.829  0.00  0.00    +0.000 A 
ATOM      8  C   UNL     1       1.278   3.435  20.879  0.00  0.00    +0.000 A 
ATOM      9  C   UNL     1       2.355   2.609  21.192  0.00  0.00    +0.000 A 
ATOM     10  C   UNL     1       3.545   2.691  20.451  0.00  0.00    +0.000 A 
ATOM     11 CL   UNL     1       4.845   1.641  20.894  0.00  0.00    +0.000 Cl
ENDBRANCH   3   5
BRANCH   2  12
ATOM     12  C   UNL     1       6.953   4.509  17.638  0.00  0.00    +0.000 C 
BRANCH  12  13
ATOM     13  N   UNL     1       6.696   5.431  16.508  0.00  0.00    +0.000 NA
ATOM     14  C   UNL     1       5.271   5.492  16.125  0.00  0.00    +0.000 C 
ATOM     15  C   UNL     1       5.079   4.426  15.067  0.00  0.00    +0.000 C 
ATOM     16  C   UNL     1       6.359   4.539  14.269  0.00  0.00    +0.000 C 
ATOM     17  C   UNL     1       7.409   4.938  15.303  0.00  0.00    +0.000 C 
ENDBRANCH  12  13
ENDBRANCH   2  12
TORSDOF 3
ENDMDL
MODEL 6
REMARK VINA RESULT:      -6.1      2.312      5.657
REMARK  Name = 
REMARK  3 active torsions:
REMARK  status: ('A' for Active; 'I' for Inactive)
REMARK    1  A    between atoms: C_2  and  C_3
REMARK    2  A    between atoms: C_3  and  N_4
REMARK    3  A    between atoms: N_9  and  C_10
REMARK                            x       y       z     vdW  Elec       q    Type
REMARK                         _______ _______ _______ _____ _____    ______ ____
ROOT
ATOM      1  O   UNL     1       4.552   3.140  16.804  0.00  0.00    +0.000 OA
ATOM      2  C   UNL     1       3.786   3.812  17.498  0.00  0.00    +0.000 C 
ATOM      3  N   UNL     1       4.149   4.901  18.271  0.00  0.00    +0.000 N 
ATOM      4  H   UNL     1       3.471   5.235  18.948  0.00  0.00    +0.000 HD
ENDROOT
BRANCH   3   5
ATOM      5  C   UNL     1       5.418   5.547  18.281  0.00  0.00    +0.000 A 
ATOM      6  C   UNL     1       6.424   5.214  19.197  0.00  0.00    +0.000 A 
ATOM      7  C   UNL     1       7.672   5.844  19.165  0.00  0.00    +0.000 A 
ATOM      8  C   UNL     1       7.944   6.816  18.209  0.00  0.00    +0.000 A 
ATOM      9  C   UNL     1       6.961   7.163  17.284  0.00  0.00    +0.000 A 
ATOM     10  C   UNL     1       5.706   6.533  17.319  0.00  0.00    +0.000 A 
ATOM     11 CL   UNL     1       4.529   7.013  16.147  0.00  0.00    +0.000 Cl
ENDBRANCH   3   5
BRANCH   2  12
ATOM     12  C   UNL     1       2.292   3.477  17.518  0.00  0.00    +0.000 C 
BRANCH  12  13
ATOM     13  N   UNL     1       1.952   2.377  18.449  0.00  0.00    +0.000 NA
ATOM     14  C   UNL     1       0.679   2.598  19.164  0.00  0.00    +0.000 C 
ATOM     15  C   UNL     1       1.040   3.329  20.441  0.00  0.00    +0.000 C 
ATOM     16  C   UNL     1       2.332   2.649  20.837  0.00  0.00    +0.000 C 
ATOM     17  C   UNL     1       2.991   2.293  19.507  0.00  0.00    +0.000 C 
ENDBRANCH  12  13
ENDBRANCH   2  12
TORSDOF 3
ENDMDL
MODEL 7
REMARK VINA RESULT:      -6.1      1.879      6.136
REMARK  Name = 
REMARK  3 active torsions:
REMARK  status: ('A' for Active; 'I' for Inactive)
REMARK    1  A    between atoms: C_2  and  C_3
REMARK    2  A    between atoms: C_3  and  N_4
REMARK    3  A    between atoms: N_9  and  C_10
REMARK                            x       y       z     vdW  Elec       q    Type
REMARK                         _______ _______ _______ _____ _____    ______ ____
ROOT
ATOM      1  O   UNL     1       3.562   6.132  17.873  0.00  0.00    +0.000 OA
ATOM      2  C   UNL     1       3.938   5.075  18.385  0.00  0.00    +0.000 C 
ATOM      3  N   UNL     1       4.783   4.153  17.793  0.00  0.00    +0.000 N 
ATOM      4  H   UNL     1       4.849   3.239  18.229  0.00  0.00    +0.000 HD
ENDROOT
BRANCH   3   5
ATOM      5  C   UNL     1       5.500   4.322  16.575  0.00  0.00    +0.000 A 
ATOM      6  C   UNL     1       4.920   4.092  15.322  0.00  0.00    +0.000 A 
ATOM      7  C   UNL     1       5.639   4.295  14.140  0.00  0.00    +0.000 A 
ATOM      8  C   UNL     1       6.956   4.740  14.187  0.00  0.00    +0.000 A 
ATOM      9  C   UNL     1       7.556   4.979  15.422  0.00  0.00    +0.000 A 
ATOM     10  C   UNL     1       6.833   4.772  16.609  0.00  0.00    +0.000 A 
ATOM     11 CL   UNL     1       7.638   5.082  18.107  0.00  0.00    +0.000 Cl
ENDBRANCH   3   5
BRANCH   2  12
ATOM     12  C   UNL     1       3.488   4.720  19.805  0.00  0.00    +0.000 C 
BRANCH  12  13
ATOM     13  N   UNL     1       3.093   3.301  19.956  0.00  0.00    +0.000 NA
ATOM     14  C   UNL     1       1.854   2.966  19.225  0.00  0.00    +0.000 C 
ATOM     15  C   UNL     1       0.720   3.201  20.201  0.00  0.00    +0.000 C 
ATOM     16  C   UNL     1       1.311   2.698  21.499  0.00  0.00    +0.000 C 
ATOM     17  C   UNL     1       2.797   3.025  21.385  0.00  0.00    +0.000 C 
ENDBRANCH  12  13
ENDBRANCH   2  12
TORSDOF 3
ENDMDL
MODEL 8
REMARK VINA RESULT:      -6.1      2.103      5.419
REMARK  Name = 
REMARK  3 active torsions:
REMARK  status: ('A' for Active; 'I' for Inactive)
REMARK    1  A    between atoms: C_2  and  C_3
REMARK    2  A    between atoms: C_3  and  N_4
REMARK    3  A    between atoms: N_9  and  C_10
REMARK                            x       y       z     vdW  Elec       q    Type
REMARK                         _______ _______ _______ _____ _____    ______ ____
ROOT
ATOM      1  O   UNL     1       3.879   4.867  19.790  0.00  0.00    +0.000 OA
ATOM      2  C   UNL     1       4.554   3.933  19.350  0.00  0.00    +0.000 C 
ATOM      3  N   UNL     1       5.725   4.062  18.624  0.00  0.00    +0.000 N 
ATOM      4  H   UNL     1       6.068   3.233  18.149  0.00  0.00    +0.000 HD
ENDROOT
BRANCH   3   5
ATOM      5  C   UNL     1       6.451   5.264  18.393  0.00  0.00    +0.000 A 
ATOM      6  C   UNL     1       7.526   5.660  19.199  0.00  0.00    +0.000 A 
ATOM      7  C   UNL     1       8.241   6.832  18.932  0.00  0.00    +0.000 A 
ATOM      8  C   UNL     1       7.899   7.630  17.846  0.00  0.00    +0.000 A 
ATOM      9  C   UNL     1       6.835   7.257  17.027  0.00  0.00    +0.000 A 
ATOM     10  C   UNL     1       6.115   6.081  17.298  0.00  0.00    +0.000 A 
ATOM     11 CL   UNL     1       4.804   5.678  16.246  0.00  0.00    +0.000 Cl
ENDBRANCH   3   5
BRANCH   2  12
ATOM     12  C   UNL     1       4.124   2.491  19.631  0.00  0.00    +0.000 C 
BRANCH  12  13
ATOM     13  N   UNL     1       3.142   1.972  18.652  0.00  0.00    +0.000 NA
ATOM     14  C   UNL     1       2.899   2.901  17.530  0.00  0.00    +0.000 C 
ATOM     15  C   UNL     1       1.741   3.778  17.960  0.00  0.00    +0.000 C 
ATOM     16  C   UNL     1       0.851   2.792  18.683  0.00  0.00    +0.000 C 
ATOM     17  C   UNL     1       1.826   1.806  19.320  0.00  0.00    +0.000 C 
ENDBRANCH  12  13
ENDBRANCH   2  12
TORSDOF 3
ENDMDL
MODEL 9
REMARK VINA RESULT:      -6.1      1.986      5.985
REMARK  Name = 
REMARK  3 active torsions:
REMARK  status: ('A' for Active; 'I' for Inactive)
REMARK    1  A    between atoms: C_2  and  C_3
REMARK    2  A    between atoms: C_3  and  N_4
REMARK    3  A    between atoms: N_9  and  C_10
REMARK                            x       y       z     vdW  Elec       q    Type
REMARK                         _______ _______ _______ _____ _____    ______ ____
ROOT
ATOM      1  O   UNL     1       5.344   3.714  19.294  0.00  0.00    +0.000 OA
ATOM      2  C   UNL     1       4.573   4.628  18.997  0.00  0.00    +0.000 C 
ATOM      3  N   UNL     1       4.600   5.351  17.817  0.00  0.00    +0.000 N 
ATOM      4  H   UNL     1       4.050   6.204  17.784  0.00  0.00    +0.000 HD
ENDROOT
BRANCH   3   5
ATOM      5  C   UNL     1       5.399   5.072  16.672  0.00  0.00    +0.000 A 
ATOM      6  C   UNL     1       4.925   4.321  15.590  0.00  0.00    +0.000 A 
ATOM      7  C   UNL     1       5.721   4.087  14.464  0.00  0.00    +0.000 A 
ATOM      8  C   UNL     1       7.008   4.609  14.394  0.00  0.00    +0.000 A 
ATOM      9  C   UNL     1       7.502   5.364  15.456  0.00  0.00    +0.000 A 
ATOM     10  C   UNL     1       6.703   5.595  16.588  0.00  0.00    +0.000 A 
ATOM     11 CL   UNL     1       7.377   6.534  17.873  0.00  0.00    +0.000 Cl
ENDBRANCH   3   5
BRANCH   2  12
ATOM     12  C   UNL     1       3.451   5.016  19.965  0.00  0.00    +0.000 C 
BRANCH  12  13
ATOM     13  N   UNL     1       2.100   4.677  19.462  0.00  0.00    +0.000 NA
ATOM     14  C   UNL     1       1.115   4.476  20.543  0.00  0.00    +0.000 C 
ATOM     15  C   UNL     1       1.166   3.001  20.883  0.00  0.00    +0.000 C 
ATOM     16  C   UNL     1       1.332   2.368  19.520  0.00  0.00    +0.000 C 
ATOM     17  C   UNL     1       2.160   3.382  18.736  0.00  0.00    +0.000 C 
ENDBRANCH  12  13
ENDBRANCH   2  12
TORSDOF 3
ENDMDL
