MODEL 1
REMARK VINA RESULT:      -7.5      0.000      0.000
REMARK  Name = 
REMARK  7 active torsions:
REMARK  status: ('A' for Active; 'I' for Inactive)
REMARK    1  A    between atoms: C_2  and  C_3
REMARK    2  A    between atoms: C_3  and  C_4
REMARK    3  A    between atoms: C_7  and  O_8
REMARK    4  A    between atoms: N_11  and  N_12
REMARK    5  A    between atoms: C_13  and  C_14
REMARK    6  A    between atoms: C_18  and  O_19
REMARK    7  A    between atoms: C_22  and  O_23
REMARK                            x       y       z     vdW  Elec       q    Type
REMARK                         _______ _______ _______ _____ _____    ______ ____
ROOT
ATOM      1  N   UNL     1       7.964   8.030  18.218  0.00  0.00    +0.000 NA
ATOM      2  C   UNL     1       7.967   6.812  18.660  0.00  0.00    +0.000 C 
ENDROOT
BRANCH   2   3
ATOM      3  C   UNL     1       7.001   5.807  18.164  0.00  0.00    +0.000 A 
ATOM      4  C   UNL     1       6.185   5.116  19.068  0.00  0.00    +0.000 A 
ATOM      5  C   UNL     1       5.299   4.145  18.600  0.00  0.00    +0.000 A 
ATOM      6 BR   UNL     1       4.210   3.221  19.846  0.00  0.00    +0.000 Br
ATOM      7  C   UNL     1       5.221   3.857  17.233  0.00  0.00    +0.000 A 
ATOM      8  C   UNL     1       6.028   4.554  16.328  0.00  0.00    +0.000 A 
ATOM      9 BR   UNL     1       5.940   4.184  14.463  0.00  0.00    +0.000 Br
ATOM     10  C   UNL     1       6.918   5.532  16.794  0.00  0.00    +0.000 A 
BRANCH   7  11
ATOM     11  O   UNL     1       4.365   2.893  16.767  0.00  0.00    +0.000 OA
ATOM     12  H   UNL     1       3.733   3.317  16.157  0.00  0.00    +0.000 HD
ENDBRANCH   7  11
BRANCH  10  13
ATOM     13  O   UNL     1       7.718   6.226  15.922  0.00  0.00    +0.000 OA
ATOM     14  H   UNL     1       8.548   5.722  15.817  0.00  0.00    +0.000 HD
ENDBRANCH  10  13
ENDBRANCH   2   3
BRANCH   1  17
ATOM     15  O   UNL     1       8.122  10.759  17.676  0.00  0.00    +0.000 OA
ATOM     16  C   UNL     1       8.903  10.210  18.449  0.00  0.00    +0.000 C 
ATOM     17  N   UNL     1       8.890   8.859  18.779  0.00  0.00    +0.000 N 
ATOM     18  H   UNL     1       9.519   8.497  19.486  0.00  0.00    +0.000 HD
BRANCH  16  19
ATOM     19  C   UNL     1      10.018  10.979  19.140  0.00  0.00    +0.000 C 
BRANCH  19  20
ATOM     20  C   UNL     1      10.427  12.239  18.414  0.00  0.00    +0.000 A 
ATOM     21  C   UNL     1       9.817  13.467  18.711  0.00  0.00    +0.000 A 
ATOM     22  C   UNL     1      10.219  14.636  18.059  0.00  0.00    +0.000 A 
ATOM     23  C   UNL     1      11.236  14.579  17.113  0.00  0.00    +0.000 A 
ATOM     24  C   UNL     1      11.857  13.374  16.811  0.00  0.00    +0.000 A 
ATOM     25  C   UNL     1      11.455  12.206  17.460  0.00  0.00    +0.000 A 
BRANCH  23  26
ATOM     26  O   UNL     1      11.660  15.695  16.455  0.00  0.00    +0.000 OA
ATOM     27  H   UNL     1      11.674  15.508  15.502  0.00  0.00    +0.000 HD
ENDBRANCH  23  26
ENDBRANCH  19  20
ENDBRANCH  16  19
ENDBRANCH   1  17
TORSDOF 7
ENDMDL
MODEL 2
REMARK VINA RESULT:      -7.5      0.129      1.013
REMARK  Name = 
REMARK  7 active torsions:
REMARK  status: ('A' for Active; 'I' for Inactive)
REMARK    1  A    between atoms: C_2  and  C_3
REMARK    2  A    between atoms: C_3  and  C_4
REMARK    3  A    between atoms: C_7  and  O_8
REMARK    4  A    between atoms: N_11  and  N_12
REMARK    5  A    between atoms: C_13  and  C_14
REMARK    6  A    between atoms: C_18  and  O_19
REMARK    7  A    between atoms: C_22  and  O_23
REMARK                            x       y       z     vdW  Elec       q    Type
REMARK                         _______ _______ _______ _____ _____    ______ ____
ROOT
ATOM      1  N   UNL     1       7.952   8.039  18.156  0.00  0.00    +0.000 NA
ATOM      2  C   UNL     1       7.900   6.827  18.612  0.00  0.00    +0.000 C 
ENDROOT
BRANCH   2   3
ATOM      3  C   UNL     1       6.915   5.850  18.101  0.00  0.00    +0.000 A 
ATOM      4  C   UNL     1       6.050   5.198  18.990  0.00  0.00    +0.000 A 
ATOM      5  C   UNL     1       5.145   4.252  18.509  0.00  0.00    +0.000 A 
ATOM      6 BR   UNL     1       3.991   3.381  19.734  0.00  0.00    +0.000 Br
ATOM      7  C   UNL     1       5.096   3.949  17.143  0.00  0.00    +0.000 A 
ATOM      8  C   UNL     1       5.951   4.607  16.254  0.00  0.00    +0.000 A 
ATOM      9 BR   UNL     1       5.902   4.217  14.391  0.00  0.00    +0.000 Br
ATOM     10  C   UNL     1       6.860   5.560  16.733  0.00  0.00    +0.000 A 
BRANCH   7  11
ATOM     11  O   UNL     1       4.220   3.009  16.665  0.00  0.00    +0.000 OA
ATOM     12  H   UNL     1       4.689   2.157  16.611  0.00  0.00    +0.000 HD
ENDBRANCH   7  11
BRANCH  10  13
ATOM     13  O   UNL     1       7.707   6.216  15.876  0.00  0.00    +0.000 OA
ATOM     14  H   UNL     1       7.394   7.139  15.799  0.00  0.00    +0.000 HD
ENDBRANCH  10  13
ENDBRANCH   2   3
BRANCH   1  17
ATOM     15  O   UNL     1       8.105  10.788  17.723  0.00  0.00    +0.000 OA
ATOM     16  C   UNL     1       8.899  10.207  18.458  0.00  0.00    +0.000 C 
ATOM     17  N   UNL     1       8.890   8.844  18.732  0.00  0.00    +0.000 N 
ATOM     18  H   UNL     1       9.531   8.452  19.412  0.00  0.00    +0.000 HD
BRANCH  16  19
ATOM     19  C   UNL     1      10.028  10.945  19.159  0.00  0.00    +0.000 C 
BRANCH  19  20
ATOM     20  C   UNL     1      10.463  12.205  18.447  0.00  0.00    +0.000 A 
ATOM     21  C   UNL     1      11.387  12.148  17.392  0.00  0.00    +0.000 A 
ATOM     22  C   UNL     1      11.764  13.312  16.715  0.00  0.00    +0.000 A 
ATOM     23  C   UNL     1      11.213  14.532  17.089  0.00  0.00    +0.000 A 
ATOM     24  C   UNL     1      10.292  14.607  18.126  0.00  0.00    +0.000 A 
ATOM     25  C   UNL     1       9.916  13.446  18.803  0.00  0.00    +0.000 A 
BRANCH  23  26
ATOM     26  O   UNL     1      11.552  15.691  16.454  0.00  0.00    +0.000 OA
ATOM     27  H   UNL     1      12.312  15.518  15.876  0.00  0.00    +0.000 HD
ENDBRANCH  23  26
ENDBRANCH  19  20
ENDBRANCH  16  19
ENDBRANCH   1  17
TORSDOF 7
ENDMDL
MODEL 3
REMARK VINA RESULT:      -7.4      7.241      9.438
REMARK  Name = 
REMARK  7 active torsions:
REMARK  status: ('A' for Active; 'I' for Inactive)
REMARK    1  A    between atoms: C_2  and  C_3
REMARK    2  A    between atoms: C_3  and  C_4
REMARK    3  A    between atoms: C_7  and  O_8
REMARK    4  A    between atoms: N_11  and  N_12
REMARK    5  A    between atoms: C_13  and  C_14
REMARK    6  A    between atoms: C_18  and  O_19
REMARK    7  A    between atoms: C_22  and  O_23
REMARK                            x       y       z     vdW  Elec       q    Type
REMARK                         _______ _______ _______ _____ _____    ______ ____
ROOT
ATOM      1  N   UNL     1       1.870   8.248  19.814  0.00  0.00    +0.000 NA
ATOM      2  C   UNL     1       2.331   7.584  18.801  0.00  0.00    +0.000 C 
ENDROOT
BRANCH   2   3
ATOM      3  C   UNL     1       3.061   6.310  18.979  0.00  0.00    +0.000 A 
ATOM      4  C   UNL     1       4.234   6.069  18.254  0.00  0.00    +0.000 A 
ATOM      5  C   UNL     1       4.901   4.853  18.399  0.00  0.00    +0.000 A 
ATOM      6 BR   UNL     1       6.485   4.550  17.402  0.00  0.00    +0.000 Br
ATOM      7  C   UNL     1       4.405   3.870  19.265  0.00  0.00    +0.000 A 
ATOM      8  C   UNL     1       3.240   4.115  19.997  0.00  0.00    +0.000 A 
ATOM      9 BR   UNL     1       2.544   2.798  21.184  0.00  0.00    +0.000 Br
ATOM     10  C   UNL     1       2.568   5.337  19.856  0.00  0.00    +0.000 A 
BRANCH   7  11
ATOM     11  O   UNL     1       5.047   2.666  19.401  0.00  0.00    +0.000 OA
ATOM     12  H   UNL     1       5.310   2.361  18.513  0.00  0.00    +0.000 HD
ENDBRANCH   7  11
BRANCH  10  13
ATOM     13  O   UNL     1       1.422   5.594  20.566  0.00  0.00    +0.000 OA
ATOM     14  H   UNL     1       0.759   4.924  20.311  0.00  0.00    +0.000 HD
ENDBRANCH  10  13
ENDBRANCH   2   3
BRANCH   1  17
ATOM     15  O   UNL     1      -0.492   9.092  21.030  0.00  0.00    +0.000 OA
ATOM     16  C   UNL     1       0.060   9.763  20.161  0.00  0.00    +0.000 C 
ATOM     17  N   UNL     1       1.241   9.419  19.511  0.00  0.00    +0.000 N 
ATOM     18  H   UNL     1       1.675  10.064  18.862  0.00  0.00    +0.000 HD
BRANCH  16  19
ATOM     19  C   UNL     1      -0.520  11.082  19.679  0.00  0.00    +0.000 C 
BRANCH  19  20
ATOM     20  C   UNL     1      -1.593  10.925  18.627  0.00  0.00    +0.000 A 
ATOM     21  C   UNL     1      -2.784  11.662  18.703  0.00  0.00    +0.000 A 
ATOM     22  C   UNL     1      -3.761  11.537  17.710  0.00  0.00    +0.000 A 
ATOM     23  C   UNL     1      -3.545  10.679  16.639  0.00  0.00    +0.000 A 
ATOM     24  C   UNL     1      -2.369   9.946  16.543  0.00  0.00    +0.000 A 
ATOM     25  C   UNL     1      -1.394  10.069  17.533  0.00  0.00    +0.000 A 
BRANCH  23  26
ATOM     26  O   UNL     1      -4.471  10.528  15.649  0.00  0.00    +0.000 OA
ATOM     27  H   UNL     1      -4.387   9.634  15.279  0.00  0.00    +0.000 HD
ENDBRANCH  23  26
ENDBRANCH  19  20
ENDBRANCH  16  19
ENDBRANCH   1  17
TORSDOF 7
ENDMDL
MODEL 4
REMARK VINA RESULT:      -7.3      7.225      9.479
REMARK  Name = 
REMARK  7 active torsions:
REMARK  status: ('A' for Active; 'I' for Inactive)
REMARK    1  A    between atoms: C_2  and  C_3
REMARK    2  A    between atoms: C_3  and  C_4
REMARK    3  A    between atoms: C_7  and  O_8
REMARK    4  A    between atoms: N_11  and  N_12
REMARK    5  A    between atoms: C_13  and  C_14
REMARK    6  A    between atoms: C_18  and  O_19
REMARK    7  A    between atoms: C_22  and  O_23
REMARK                            x       y       z     vdW  Elec       q    Type
REMARK                         _______ _______ _______ _____ _____    ______ ____
ROOT
ATOM      1  N   UNL     1       1.941   8.286  19.873  0.00  0.00    +0.000 NA
ATOM      2  C   UNL     1       2.312   7.592  18.844  0.00  0.00    +0.000 C 
ENDROOT
BRANCH   2   3
ATOM      3  C   UNL     1       3.038   6.313  18.995  0.00  0.00    +0.000 A 
ATOM      4  C   UNL     1       4.188   6.066  18.234  0.00  0.00    +0.000 A 
ATOM      5  C   UNL     1       4.851   4.845  18.354  0.00  0.00    +0.000 A 
ATOM      6 BR   UNL     1       6.401   4.535  17.309  0.00  0.00    +0.000 Br
ATOM      7  C   UNL     1       4.374   3.863  19.231  0.00  0.00    +0.000 A 
ATOM      8  C   UNL     1       3.233   4.112  19.999  0.00  0.00    +0.000 A 
ATOM      9 BR   UNL     1       2.564   2.796  21.202  0.00  0.00    +0.000 Br
ATOM     10  C   UNL     1       2.565   5.339  19.883  0.00  0.00    +0.000 A 
BRANCH   7  11
ATOM     11  O   UNL     1       5.011   2.654  19.343  0.00  0.00    +0.000 OA
ATOM     12  H   UNL     1       5.822   2.687  18.804  0.00  0.00    +0.000 HD
ENDBRANCH   7  11
BRANCH  10  13
ATOM     13  O   UNL     1       1.443   5.602  20.628  0.00  0.00    +0.000 OA
ATOM     14  H   UNL     1       1.212   4.785  21.112  0.00  0.00    +0.000 HD
ENDBRANCH  10  13
ENDBRANCH   2   3
BRANCH   1  17
ATOM     15  O   UNL     1      -0.497   9.029  21.002  0.00  0.00    +0.000 OA
ATOM     16  C   UNL     1       0.085   9.750  20.195  0.00  0.00    +0.000 C 
ATOM     17  N   UNL     1       1.304   9.458  19.591  0.00  0.00    +0.000 N 
ATOM     18  H   UNL     1       1.758  10.140  18.996  0.00  0.00    +0.000 HD
BRANCH  16  19
ATOM     19  C   UNL     1      -0.497  11.080  19.744  0.00  0.00    +0.000 C 
BRANCH  19  20
ATOM     20  C   UNL     1      -1.546  10.948  18.666  0.00  0.00    +0.000 A 
ATOM     21  C   UNL     1      -1.368  10.055  17.598  0.00  0.00    +0.000 A 
ATOM     22  C   UNL     1      -2.355   9.912  16.618  0.00  0.00    +0.000 A 
ATOM     23  C   UNL     1      -3.524  10.660  16.708  0.00  0.00    +0.000 A 
ATOM     24  C   UNL     1      -3.721  11.544  17.761  0.00  0.00    +0.000 A 
ATOM     25  C   UNL     1      -2.736  11.687  18.739  0.00  0.00    +0.000 A 
BRANCH  23  26
ATOM     26  O   UNL     1      -4.512  10.551  15.775  0.00  0.00    +0.000 OA
ATOM     27  H   UNL     1      -4.165  10.849  14.919  0.00  0.00    +0.000 HD
ENDBRANCH  23  26
ENDBRANCH  19  20
ENDBRANCH  16  19
ENDBRANCH   1  17
TORSDOF 7
ENDMDL
MODEL 5
REMARK VINA RESULT:      -7.2      6.790      8.954
REMARK  Name = 
REMARK  7 active torsions:
REMARK  status: ('A' for Active; 'I' for Inactive)
REMARK    1  A    between atoms: C_2  and  C_3
REMARK    2  A    between atoms: C_3  and  C_4
REMARK    3  A    between atoms: C_7  and  O_8
REMARK    4  A    between atoms: N_11  and  N_12
REMARK    5  A    between atoms: C_13  and  C_14
REMARK    6  A    between atoms: C_18  and  O_19
REMARK    7  A    between atoms: C_22  and  O_23
REMARK                            x       y       z     vdW  Elec       q    Type
REMARK                         _______ _______ _______ _____ _____    ______ ____
ROOT
ATOM      1  N   UNL     1       2.713   6.923  19.085  0.00  0.00    +0.000 NA
ATOM      2  C   UNL     1       2.016   7.855  18.515  0.00  0.00    +0.000 C 
ENDROOT
BRANCH   2   3
ATOM      3  C   UNL     1       1.499   9.011  19.279  0.00  0.00    +0.000 A 
ATOM      4  C   UNL     1       1.007   8.828  20.578  0.00  0.00    +0.000 A 
ATOM      5  C   UNL     1       0.489   9.914  21.282  0.00  0.00    +0.000 A 
ATOM      6 BR   UNL     1      -0.175   9.637  23.036  0.00  0.00    +0.000 Br
ATOM      7  C   UNL     1       0.456  11.187  20.700  0.00  0.00    +0.000 A 
ATOM      8  C   UNL     1       0.957  11.373  19.408  0.00  0.00    +0.000 A 
ATOM      9 BR   UNL     1       0.927  13.093  18.593  0.00  0.00    +0.000 Br
ATOM     10  C   UNL     1       1.480  10.284  18.697  0.00  0.00    +0.000 A 
BRANCH   7  11
ATOM     11  O   UNL     1      -0.066  12.256  21.380  0.00  0.00    +0.000 OA
ATOM     12  H   UNL     1       0.616  12.951  21.424  0.00  0.00    +0.000 HD
ENDBRANCH   7  11
BRANCH  10  13
ATOM     13  O   UNL     1       1.976  10.446  17.428  0.00  0.00    +0.000 OA
ATOM     14  H   UNL     1       2.609  11.191  17.451  0.00  0.00    +0.000 HD
ENDBRANCH  10  13
ENDBRANCH   2   3
BRANCH   1  17
ATOM     15  O   UNL     1       3.318   4.362  20.002  0.00  0.00    +0.000 OA
ATOM     16  C   UNL     1       3.394   4.654  18.811  0.00  0.00    +0.000 C 
ATOM     17  N   UNL     1       3.105   5.902  18.271  0.00  0.00    +0.000 N 
ATOM     18  H   UNL     1       3.115   6.042  17.268  0.00  0.00    +0.000 HD
BRANCH  16  19
ATOM     19  C   UNL     1       3.843   3.645  17.767  0.00  0.00    +0.000 C 
BRANCH  19  20
ATOM     20  C   UNL     1       4.958   4.147  16.879  0.00  0.00    +0.000 A 
ATOM     21  C   UNL     1       6.212   4.471  17.419  0.00  0.00    +0.000 A 
ATOM     22  C   UNL     1       7.252   4.906  16.591  0.00  0.00    +0.000 A 
ATOM     23  C   UNL     1       7.039   5.011  15.221  0.00  0.00    +0.000 A 
ATOM     24  C   UNL     1       5.806   4.688  14.668  0.00  0.00    +0.000 A 
ATOM     25  C   UNL     1       4.769   4.255  15.494  0.00  0.00    +0.000 A 
BRANCH  23  26
ATOM     26  O   UNL     1       8.025   5.429  14.378  0.00  0.00    +0.000 OA
ATOM     27  H   UNL     1       8.134   4.768  13.675  0.00  0.00    +0.000 HD
ENDBRANCH  23  26
ENDBRANCH  19  20
ENDBRANCH  16  19
ENDBRANCH   1  17
TORSDOF 7
ENDMDL
MODEL 6
REMARK VINA RESULT:      -7.2      7.433      9.346
REMARK  Name = 
REMARK  7 active torsions:
REMARK  status: ('A' for Active; 'I' for Inactive)
REMARK    1  A    between atoms: C_2  and  C_3
REMARK    2  A    between atoms: C_3  and  C_4
REMARK    3  A    between atoms: C_7  and  O_8
REMARK    4  A    between atoms: N_11  and  N_12
REMARK    5  A    between atoms: C_13  and  C_14
REMARK    6  A    between atoms: C_18  and  O_19
REMARK    7  A    between atoms: C_22  and  O_23
REMARK                            x       y       z     vdW  Elec       q    Type
REMARK                         _______ _______ _______ _____ _____    ______ ____
ROOT
ATOM      1  N   UNL     1       1.998   8.369  19.008  0.00  0.00    +0.000 NA
ATOM      2  C   UNL     1       2.586   7.654  18.102  0.00  0.00    +0.000 C 
ENDROOT
BRANCH   2   3
ATOM      3  C   UNL     1       3.285   6.397  18.443  0.00  0.00    +0.000 A 
ATOM      4  C   UNL     1       2.671   5.460  19.285  0.00  0.00    +0.000 A 
ATOM      5  C   UNL     1       3.348   4.291  19.632  0.00  0.00    +0.000 A 
ATOM      6 BR   UNL     1       2.496   3.044  20.777  0.00  0.00    +0.000 Br
ATOM      7  C   UNL     1       4.638   4.047  19.145  0.00  0.00    +0.000 A 
ATOM      8  C   UNL     1       5.247   4.976  18.295  0.00  0.00    +0.000 A 
ATOM      9 BR   UNL     1       6.999   4.668  17.616  0.00  0.00    +0.000 Br
ATOM     10  C   UNL     1       4.569   6.151  17.943  0.00  0.00    +0.000 A 
BRANCH   7  11
ATOM     11  O   UNL     1       5.315   2.908  19.494  0.00  0.00    +0.000 OA
ATOM     12  H   UNL     1       4.836   2.144  19.123  0.00  0.00    +0.000 HD
ENDBRANCH   7  11
BRANCH  10  13
ATOM     13  O   UNL     1       5.151   7.074  17.111  0.00  0.00    +0.000 OA
ATOM     14  H   UNL     1       5.116   6.717  16.202  0.00  0.00    +0.000 HD
ENDBRANCH  10  13
ENDBRANCH   2   3
BRANCH   1  17
ATOM     15  O   UNL     1      -0.170   9.591  20.265  0.00  0.00    +0.000 OA
ATOM     16  C   UNL     1       0.331  10.059  19.245  0.00  0.00    +0.000 C 
ATOM     17  N   UNL     1       1.414   9.518  18.561  0.00  0.00    +0.000 N 
ATOM     18  H   UNL     1       1.819  10.007  17.772  0.00  0.00    +0.000 HD
BRANCH  16  19
ATOM     19  C   UNL     1      -0.214  11.319  18.593  0.00  0.00    +0.000 C 
BRANCH  19  20
ATOM     20  C   UNL     1      -1.680  11.234  18.238  0.00  0.00    +0.000 A 
ATOM     21  C   UNL     1      -2.114  10.426  17.177  0.00  0.00    +0.000 A 
ATOM     22  C   UNL     1      -3.475  10.325  16.871  0.00  0.00    +0.000 A 
ATOM     23  C   UNL     1      -4.403  11.028  17.631  0.00  0.00    +0.000 A 
ATOM     24  C   UNL     1      -3.992  11.828  18.690  0.00  0.00    +0.000 A 
ATOM     25  C   UNL     1      -2.635  11.930  18.995  0.00  0.00    +0.000 A 
BRANCH  23  26
ATOM     26  O   UNL     1      -5.739  10.957  17.368  0.00  0.00    +0.000 OA
ATOM     27  H   UNL     1      -6.158  11.782  17.663  0.00  0.00    +0.000 HD
ENDBRANCH  23  26
ENDBRANCH  19  20
ENDBRANCH  16  19
ENDBRANCH   1  17
TORSDOF 7
ENDMDL
MODEL 7
REMARK VINA RESULT:      -7.2      6.774      8.966
REMARK  Name = 
REMARK  7 active torsions:
REMARK  status: ('A' for Active; 'I' for Inactive)
REMARK    1  A    between atoms: C_2  and  C_3
REMARK    2  A    between atoms: C_3  and  C_4
REMARK    3  A    between atoms: C_7  and  O_8
REMARK    4  A    between atoms: N_11  and  N_12
REMARK    5  A    between atoms: C_13  and  C_14
REMARK    6  A    between atoms: C_18  and  O_19
REMARK    7  A    between atoms: C_22  and  O_23
REMARK                            x       y       z     vdW  Elec       q    Type
REMARK                         _______ _______ _______ _____ _____    ______ ____
ROOT
ATOM      1  N   UNL     1       2.543   6.711  19.235  0.00  0.00    +0.000 NA
ATOM      2  C   UNL     1       2.075   7.745  18.610  0.00  0.00    +0.000 C 
ENDROOT
BRANCH   2   3
ATOM      3  C   UNL     1       1.542   8.915  19.341  0.00  0.00    +0.000 A 
ATOM      4  C   UNL     1       1.051   8.762  20.644  0.00  0.00    +0.000 A 
ATOM      5  C   UNL     1       0.517   9.860  21.317  0.00  0.00    +0.000 A 
ATOM      6 BR   UNL     1      -0.146   9.624  23.077  0.00  0.00    +0.000 Br
ATOM      7  C   UNL     1       0.468  11.116  20.699  0.00  0.00    +0.000 A 
ATOM      8  C   UNL     1       0.968  11.272  19.403  0.00  0.00    +0.000 A 
ATOM      9 BR   UNL     1       0.917  12.968  18.540  0.00  0.00    +0.000 Br
ATOM     10  C   UNL     1       1.507  10.171  18.724  0.00  0.00    +0.000 A 
BRANCH   7  11
ATOM     11  O   UNL     1      -0.069  12.197  21.349  0.00  0.00    +0.000 OA
ATOM     12  H   UNL     1      -0.960  12.356  20.986  0.00  0.00    +0.000 HD
ENDBRANCH   7  11
BRANCH  10  13
ATOM     13  O   UNL     1       2.003  10.305  17.451  0.00  0.00    +0.000 OA
ATOM     14  H   UNL     1       1.539   9.658  16.884  0.00  0.00    +0.000 HD
ENDBRANCH  10  13
ENDBRANCH   2   3
BRANCH   1  17
ATOM     15  O   UNL     1       3.308   4.213  20.208  0.00  0.00    +0.000 OA
ATOM     16  C   UNL     1       3.347   4.477  19.008  0.00  0.00    +0.000 C 
ATOM     17  N   UNL     1       2.978   5.692  18.441  0.00  0.00    +0.000 N 
ATOM     18  H   UNL     1       2.964   5.806  17.435  0.00  0.00    +0.000 HD
BRANCH  16  19
ATOM     19  C   UNL     1       3.836   3.468  17.982  0.00  0.00    +0.000 C 
BRANCH  19  20
ATOM     20  C   UNL     1       4.919   4.001  17.075  0.00  0.00    +0.000 A 
ATOM     21  C   UNL     1       4.706   4.111  15.692  0.00  0.00    +0.000 A 
ATOM     22  C   UNL     1       5.700   4.634  14.859  0.00  0.00    +0.000 A 
ATOM     23  C   UNL     1       6.905   5.054  15.409  0.00  0.00    +0.000 A 
ATOM     24  C   UNL     1       7.132   4.960  16.776  0.00  0.00    +0.000 A 
ATOM     25  C   UNL     1       6.141   4.437  17.608  0.00  0.00    +0.000 A 
BRANCH  23  26
ATOM     26  O   UNL     1       7.900   5.571  14.633  0.00  0.00    +0.000 OA
ATOM     27  H   UNL     1       8.727   5.104  14.836  0.00  0.00    +0.000 HD
ENDBRANCH  23  26
ENDBRANCH  19  20
ENDBRANCH  16  19
ENDBRANCH   1  17
TORSDOF 7
ENDMDL
MODEL 8
REMARK VINA RESULT:      -7.1      7.420      9.232
REMARK  Name = 
REMARK  7 active torsions:
REMARK  status: ('A' for Active; 'I' for Inactive)
REMARK    1  A    between atoms: C_2  and  C_3
REMARK    2  A    between atoms: C_3  and  C_4
REMARK    3  A    between atoms: C_7  and  O_8
REMARK    4  A    between atoms: N_11  and  N_12
REMARK    5  A    between atoms: C_13  and  C_14
REMARK    6  A    between atoms: C_18  and  O_19
REMARK    7  A    between atoms: C_22  and  O_23
REMARK                            x       y       z     vdW  Elec       q    Type
REMARK                         _______ _______ _______ _____ _____    ______ ____
ROOT
ATOM      1  N   UNL     1       1.866   8.187  18.900  0.00  0.00    +0.000 NA
ATOM      2  C   UNL     1       2.731   7.666  18.089  0.00  0.00    +0.000 C 
ENDROOT
BRANCH   2   3
ATOM      3  C   UNL     1       3.420   6.396  18.406  0.00  0.00    +0.000 A 
ATOM      4  C   UNL     1       2.809   5.460  19.251  0.00  0.00    +0.000 A 
ATOM      5  C   UNL     1       3.477   4.279  19.574  0.00  0.00    +0.000 A 
ATOM      6 BR   UNL     1       2.630   3.033  20.724  0.00  0.00    +0.000 Br
ATOM      7  C   UNL     1       4.754   4.022  19.061  0.00  0.00    +0.000 A 
ATOM      8  C   UNL     1       5.359   4.951  18.209  0.00  0.00    +0.000 A 
ATOM      9 BR   UNL     1       7.094   4.626  17.494  0.00  0.00    +0.000 Br
ATOM     10  C   UNL     1       4.691   6.138  17.879  0.00  0.00    +0.000 A 
BRANCH   7  11
ATOM     11  O   UNL     1       5.422   2.871  19.387  0.00  0.00    +0.000 OA
ATOM     12  H   UNL     1       5.707   2.939  20.317  0.00  0.00    +0.000 HD
ENDBRANCH   7  11
BRANCH  10  13
ATOM     13  O   UNL     1       5.269   7.061  17.045  0.00  0.00    +0.000 OA
ATOM     14  H   UNL     1       4.568   7.677  16.754  0.00  0.00    +0.000 HD
ENDBRANCH  10  13
ENDBRANCH   2   3
BRANCH   1  17
ATOM     15  O   UNL     1      -0.095   9.556  20.333  0.00  0.00    +0.000 OA
ATOM     16  C   UNL     1       0.345   9.988  19.270  0.00  0.00    +0.000 C 
ATOM     17  N   UNL     1       1.325   9.373  18.498  0.00  0.00    +0.000 N 
ATOM     18  H   UNL     1       1.692   9.833  17.674  0.00  0.00    +0.000 HD
BRANCH  16  19
ATOM     19  C   UNL     1      -0.166  11.282  18.659  0.00  0.00    +0.000 C 
BRANCH  19  20
ATOM     20  C   UNL     1      -1.626  11.235  18.274  0.00  0.00    +0.000 A 
ATOM     21  C   UNL     1      -2.592  11.900  19.045  0.00  0.00    +0.000 A 
ATOM     22  C   UNL     1      -3.938  11.881  18.668  0.00  0.00    +0.000 A 
ATOM     23  C   UNL     1      -4.319  11.202  17.517  0.00  0.00    +0.000 A 
ATOM     24  C   UNL     1      -3.376  10.544  16.737  0.00  0.00    +0.000 A 
ATOM     25  C   UNL     1      -2.033  10.562  17.112  0.00  0.00    +0.000 A 
BRANCH  23  26
ATOM     26  O   UNL     1      -5.620  11.159  17.113  0.00  0.00    +0.000 OA
ATOM     27  H   UNL     1      -6.190  11.147  17.899  0.00  0.00    +0.000 HD
ENDBRANCH  23  26
ENDBRANCH  19  20
ENDBRANCH  16  19
ENDBRANCH   1  17
TORSDOF 7
ENDMDL
MODEL 9
REMARK VINA RESULT:      -7.1      3.833      9.364
REMARK  Name = 
REMARK  7 active torsions:
REMARK  status: ('A' for Active; 'I' for Inactive)
REMARK    1  A    between atoms: C_2  and  C_3
REMARK    2  A    between atoms: C_3  and  C_4
REMARK    3  A    between atoms: C_7  and  O_8
REMARK    4  A    between atoms: N_11  and  N_12
REMARK    5  A    between atoms: C_13  and  C_14
REMARK    6  A    between atoms: C_18  and  O_19
REMARK    7  A    between atoms: C_22  and  O_23
REMARK                            x       y       z     vdW  Elec       q    Type
REMARK                         _______ _______ _______ _____ _____    ______ ____
ROOT
ATOM      1  N   UNL     1       8.748   9.423  18.577  0.00  0.00    +0.000 NA
ATOM      2  C   UNL     1       9.334  10.086  19.523  0.00  0.00    +0.000 C 
ENDROOT
BRANCH   2   3
ATOM      3  C   UNL     1       9.607  11.534  19.397  0.00  0.00    +0.000 A 
ATOM      4  C   UNL     1       9.096  12.428  20.346  0.00  0.00    +0.000 A 
ATOM      5  C   UNL     1       9.327  13.796  20.205  0.00  0.00    +0.000 A 
ATOM      6 BR   UNL     1       8.619  14.984  21.501  0.00  0.00    +0.000 Br
ATOM      7  C   UNL     1      10.066  14.283  19.120  0.00  0.00    +0.000 A 
ATOM      8  C   UNL     1      10.587  13.390  18.178  0.00  0.00    +0.000 A 
ATOM      9 BR   UNL     1      11.598  14.024  16.695  0.00  0.00    +0.000 Br
ATOM     10  C   UNL     1      10.358  12.014  18.318  0.00  0.00    +0.000 A 
BRANCH   7  11
ATOM     11  O   UNL     1      10.284  15.628  18.967  0.00  0.00    +0.000 OA
ATOM     12  H   UNL     1      10.843  15.756  18.178  0.00  0.00    +0.000 HD
ENDBRANCH   7  11
BRANCH  10  13
ATOM     13  O   UNL     1      10.860  11.123  17.403  0.00  0.00    +0.000 OA
ATOM     14  H   UNL     1      10.811  11.544  16.522  0.00  0.00    +0.000 HD
ENDBRANCH  10  13
ENDBRANCH   2   3
BRANCH   1  17
ATOM     15  O   UNL     1       7.159   7.763  16.998  0.00  0.00    +0.000 OA
ATOM     16  C   UNL     1       7.765   7.334  17.977  0.00  0.00    +0.000 C 
ATOM     17  N   UNL     1       8.581   8.090  18.811  0.00  0.00    +0.000 N 
ATOM     18  H   UNL     1       9.109   7.646  19.553  0.00  0.00    +0.000 HD
BRANCH  16  19
ATOM     19  C   UNL     1       7.669   5.878  18.402  0.00  0.00    +0.000 C 
BRANCH  19  20
ATOM     20  C   UNL     1       6.337   5.239  18.082  0.00  0.00    +0.000 A 
ATOM     21  C   UNL     1       5.226   5.444  18.915  0.00  0.00    +0.000 A 
ATOM     22  C   UNL     1       3.987   4.878  18.599  0.00  0.00    +0.000 A 
ATOM     23  C   UNL     1       3.858   4.110  17.447  0.00  0.00    +0.000 A 
ATOM     24  C   UNL     1       4.944   3.902  16.607  0.00  0.00    +0.000 A 
ATOM     25  C   UNL     1       6.181   4.466  16.922  0.00  0.00    +0.000 A 
BRANCH  23  26
ATOM     26  O   UNL     1       2.668   3.541  17.102  0.00  0.00    +0.000 OA
ATOM     27  H   UNL     1       2.700   2.596  17.322  0.00  0.00    +0.000 HD
ENDBRANCH  23  26
ENDBRANCH  19  20
ENDBRANCH  16  19
ENDBRANCH   1  17
TORSDOF 7
ENDMDL
