MODEL 1
REMARK VINA RESULT:      -9.0      0.000      0.000
REMARK  Name = 
REMARK  8 active torsions:
REMARK  status: ('A' for Active; 'I' for Inactive)
REMARK    1  A    between atoms: C_1  and  O_2
REMARK    2  A    between atoms: O_2  and  C_3
REMARK    3  A    between atoms: C_7  and  C_8
REMARK    4  A    between atoms: C_10  and  S_11
REMARK    5  A    between atoms: S_11  and  C_12
REMARK    6  A    between atoms: C_12  and  C_13
REMARK    7  A    between atoms: C_19  and  C_20
REMARK    8  A    between atoms: C_23  and  C_24
REMARK                            x       y       z     vdW  Elec       q    Type
REMARK                         _______ _______ _______ _____ _____    ______ ____
ROOT
ATOM      1  C   UNL     1       1.382   8.507  20.729  0.00  0.00    +0.000 C 
ATOM      2  O   UNL     1       1.796   8.899  19.636  0.00  0.00    +0.000 OA
ATOM      3  N   UNL     1       1.329   7.193  21.142  0.00  0.00    +0.000 N 
ATOM      4  C   UNL     1       1.894   6.160  20.439  0.00  0.00    +0.000 A 
ATOM      5  N   UNL     1       1.586   4.897  20.735  0.00  0.00    +0.000 NA
ATOM      6  S   UNL     1       2.380   3.945  19.613  0.00  0.00    +0.000 S 
ATOM      7  C   UNL     1       3.179   5.282  18.882  0.00  0.00    +0.000 A 
ATOM      8  N   UNL     1       2.809   6.411  19.442  0.00  0.00    +0.000 NA
ATOM      9  H   UNL     1       0.766   6.914  21.931  0.00  0.00    +0.000 HD
ENDROOT
BRANCH   7  10
ATOM     10  C   UNL     1       4.099   5.165  17.748  0.00  0.00    +0.000 A 
ATOM     11  C   UNL     1       4.506   6.329  17.075  0.00  0.00    +0.000 A 
ATOM     12  C   UNL     1       5.366   6.261  15.972  0.00  0.00    +0.000 A 
ATOM     13  C   UNL     1       5.845   5.025  15.529  0.00  0.00    +0.000 A 
ATOM     14  C   UNL     1       6.739   4.924  14.329  0.00  0.00    +0.000 C 
ATOM     15  C   UNL     1       5.468   3.865  16.214  0.00  0.00    +0.000 A 
ATOM     16  C   UNL     1       4.606   3.933  17.312  0.00  0.00    +0.000 A 
ENDBRANCH   7  10
BRANCH   1  17
ATOM     17  C   UNL     1       0.750   9.481  21.702  0.00  0.00    +0.000 C 
BRANCH  17  18
ATOM     18  S   UNL     1       0.892  11.205  21.124  0.00  0.00    +0.000 S 
BRANCH  18  26
ATOM     19  C   UNL     1      -3.222  10.222  16.414  0.00  0.00    +0.000 A 
ATOM     20  C   UNL     1      -4.268  11.030  16.826  0.00  0.00    +0.000 A 
ATOM     21  C   UNL     1      -4.163  11.747  18.020  0.00  0.00    +0.000 A 
ATOM     22  C   UNL     1      -3.005  11.667  18.827  0.00  0.00    +0.000 A 
ATOM     23  C   UNL     1      -2.832  12.375  20.041  0.00  0.00    +0.000 A 
ATOM     24  C   UNL     1      -3.858  13.303  20.634  0.00  0.00    +0.000 C 
ATOM     25  C   UNL     1      -1.628  12.219  20.741  0.00  0.00    +0.000 A 
ATOM     26  C   UNL     1      -0.645  11.384  20.233  0.00  0.00    +0.000 A 
ATOM     27  N   UNL     1      -0.807  10.677  19.103  0.00  0.00    +0.000 NA
ATOM     28  C   UNL     1      -1.947  10.826  18.406  0.00  0.00    +0.000 A 
ATOM     29  C   UNL     1      -2.083  10.116  17.218  0.00  0.00    +0.000 A 
BRANCH  19  31
ATOM     30  C   UNL     1      -3.358  10.196  14.058  0.00  0.00    +0.000 C 
ATOM     31  O   UNL     1      -3.219   9.466  15.272  0.00  0.00    +0.000 OA
ENDBRANCH  19  31
ENDBRANCH  18  26
ENDBRANCH  17  18
ENDBRANCH   1  17
TORSDOF 5
ENDMDL
MODEL 2
REMARK VINA RESULT:      -8.8      1.660      2.781
REMARK  Name = 
REMARK  8 active torsions:
REMARK  status: ('A' for Active; 'I' for Inactive)
REMARK    1  A    between atoms: C_1  and  O_2
REMARK    2  A    between atoms: O_2  and  C_3
REMARK    3  A    between atoms: C_7  and  C_8
REMARK    4  A    between atoms: C_10  and  S_11
REMARK    5  A    between atoms: S_11  and  C_12
REMARK    6  A    between atoms: C_12  and  C_13
REMARK    7  A    between atoms: C_19  and  C_20
REMARK    8  A    between atoms: C_23  and  C_24
REMARK                            x       y       z     vdW  Elec       q    Type
REMARK                         _______ _______ _______ _____ _____    ______ ____
ROOT
ATOM      1  C   UNL     1       1.368   8.538  20.202  0.00  0.00    +0.000 C 
ATOM      2  O   UNL     1       1.636   8.780  19.023  0.00  0.00    +0.000 OA
ATOM      3  N   UNL     1       1.527   7.320  20.828  0.00  0.00    +0.000 N 
ATOM      4  C   UNL     1       2.169   6.256  20.250  0.00  0.00    +0.000 A 
ATOM      5  N   UNL     1       2.060   5.037  20.778  0.00  0.00    +0.000 NA
ATOM      6  S   UNL     1       2.885   4.005  19.752  0.00  0.00    +0.000 S 
ATOM      7  C   UNL     1       3.434   5.280  18.735  0.00  0.00    +0.000 A 
ATOM      8  N   UNL     1       2.960   6.437  19.137  0.00  0.00    +0.000 NA
ATOM      9  H   UNL     1       1.071   7.118  21.705  0.00  0.00    +0.000 HD
ENDROOT
BRANCH   7  10
ATOM     10  C   UNL     1       4.268   5.077  17.548  0.00  0.00    +0.000 A 
ATOM     11  C   UNL     1       4.621   6.187  16.763  0.00  0.00    +0.000 A 
ATOM     12  C   UNL     1       5.398   6.036  15.608  0.00  0.00    +0.000 A 
ATOM     13  C   UNL     1       5.847   4.770  15.223  0.00  0.00    +0.000 A 
ATOM     14  C   UNL     1       6.650   4.578  13.971  0.00  0.00    +0.000 C 
ATOM     15  C   UNL     1       5.525   3.664  16.018  0.00  0.00    +0.000 A 
ATOM     16  C   UNL     1       4.746   3.815  17.168  0.00  0.00    +0.000 A 
ENDBRANCH   7  10
BRANCH   1  17
ATOM     17  C   UNL     1       0.689   9.585  21.062  0.00  0.00    +0.000 C 
BRANCH  17  18
ATOM     18  S   UNL     1       0.765  11.240  20.302  0.00  0.00    +0.000 S 
BRANCH  18  26
ATOM     19  C   UNL     1      -5.320  12.873  19.677  0.00  0.00    +0.000 A 
ATOM     20  C   UNL     1      -5.620  12.255  18.474  0.00  0.00    +0.000 A 
ATOM     21  C   UNL     1      -4.632  11.537  17.797  0.00  0.00    +0.000 A 
ATOM     22  C   UNL     1      -3.319  11.426  18.311  0.00  0.00    +0.000 A 
ATOM     23  C   UNL     1      -2.277  10.706  17.680  0.00  0.00    +0.000 A 
ATOM     24  C   UNL     1      -2.425   9.967  16.377  0.00  0.00    +0.000 C 
ATOM     25  C   UNL     1      -1.021  10.661  18.302  0.00  0.00    +0.000 A 
ATOM     26  C   UNL     1      -0.833  11.316  19.509  0.00  0.00    +0.000 A 
ATOM     27  N   UNL     1      -1.801  12.034  20.103  0.00  0.00    +0.000 NA
ATOM     28  C   UNL     1      -3.017  12.075  19.533  0.00  0.00    +0.000 A 
ATOM     29  C   UNL     1      -4.018  12.791  20.180  0.00  0.00    +0.000 A 
BRANCH  19  31
ATOM     30  C   UNL     1      -7.326  12.895  20.918  0.00  0.00    +0.000 C 
ATOM     31  O   UNL     1      -6.202  13.611  20.419  0.00  0.00    +0.000 OA
ENDBRANCH  19  31
ENDBRANCH  18  26
ENDBRANCH  17  18
ENDBRANCH   1  17
TORSDOF 5
ENDMDL
MODEL 3
REMARK VINA RESULT:      -8.6      3.403      9.339
REMARK  Name = 
REMARK  8 active torsions:
REMARK  status: ('A' for Active; 'I' for Inactive)
REMARK    1  A    between atoms: C_1  and  O_2
REMARK    2  A    between atoms: O_2  and  C_3
REMARK    3  A    between atoms: C_7  and  C_8
REMARK    4  A    between atoms: C_10  and  S_11
REMARK    5  A    between atoms: S_11  and  C_12
REMARK    6  A    between atoms: C_12  and  C_13
REMARK    7  A    between atoms: C_19  and  C_20
REMARK    8  A    between atoms: C_23  and  C_24
REMARK                            x       y       z     vdW  Elec       q    Type
REMARK                         _______ _______ _______ _____ _____    ______ ____
ROOT
ATOM      1  C   UNL     1       1.879   4.587  19.714  0.00  0.00    +0.000 C 
ATOM      2  O   UNL     1       0.929   4.831  20.459  0.00  0.00    +0.000 OA
ATOM      3  N   UNL     1       2.497   5.494  18.878  0.00  0.00    +0.000 N 
ATOM      4  C   UNL     1       2.231   6.838  18.901  0.00  0.00    +0.000 A 
ATOM      5  N   UNL     1       2.647   7.623  17.906  0.00  0.00    +0.000 NA
ATOM      6  S   UNL     1       2.053   9.152  18.235  0.00  0.00    +0.000 S 
ATOM      7  C   UNL     1       1.382   8.685  19.749  0.00  0.00    +0.000 A 
ATOM      8  N   UNL     1       1.561   7.401  19.964  0.00  0.00    +0.000 NA
ATOM      9  H   UNL     1       3.095   5.190  18.126  0.00  0.00    +0.000 HD
ENDROOT
BRANCH   7  10
ATOM     10  C   UNL     1       0.658   9.596  20.638  0.00  0.00    +0.000 A 
ATOM     11  C   UNL     1       0.372  10.898  20.197  0.00  0.00    +0.000 A 
ATOM     12  C   UNL     1      -0.299  11.809  21.022  0.00  0.00    +0.000 A 
ATOM     13  C   UNL     1      -0.707  11.428  22.304  0.00  0.00    +0.000 A 
ATOM     14  C   UNL     1      -1.395  12.396  23.219  0.00  0.00    +0.000 C 
ATOM     15  C   UNL     1      -0.453  10.122  22.737  0.00  0.00    +0.000 A 
ATOM     16  C   UNL     1       0.220   9.215  21.914  0.00  0.00    +0.000 A 
ENDBRANCH   7  10
BRANCH   1  17
ATOM     17  C   UNL     1       2.384   3.167  19.556  0.00  0.00    +0.000 C 
BRANCH  17  18
ATOM     18  S   UNL     1       4.081   2.977  20.196  0.00  0.00    +0.000 S 
BRANCH  18  26
ATOM     19  C   UNL     1       5.870   4.183  14.244  0.00  0.00    +0.000 A 
ATOM     20  C   UNL     1       6.860   5.125  14.469  0.00  0.00    +0.000 A 
ATOM     21  C   UNL     1       7.159   5.520  15.775  0.00  0.00    +0.000 A 
ATOM     22  C   UNL     1       6.469   4.979  16.884  0.00  0.00    +0.000 A 
ATOM     23  C   UNL     1       6.731   5.328  18.231  0.00  0.00    +0.000 A 
ATOM     24  C   UNL     1       7.774   6.325  18.660  0.00  0.00    +0.000 C 
ATOM     25  C   UNL     1       5.983   4.708  19.241  0.00  0.00    +0.000 A 
ATOM     26  C   UNL     1       5.017   3.775  18.901  0.00  0.00    +0.000 A 
ATOM     27  N   UNL     1       4.730   3.458  17.627  0.00  0.00    +0.000 NA
ATOM     28  C   UNL     1       5.448   4.028  16.643  0.00  0.00    +0.000 A 
ATOM     29  C   UNL     1       5.164   3.661  15.332  0.00  0.00    +0.000 A 
BRANCH  19  31
ATOM     30  C   UNL     1       6.548   3.374  12.134  0.00  0.00    +0.000 C 
ATOM     31  O   UNL     1       5.485   3.731  13.011  0.00  0.00    +0.000 OA
ENDBRANCH  19  31
ENDBRANCH  18  26
ENDBRANCH  17  18
ENDBRANCH   1  17
TORSDOF 5
ENDMDL
MODEL 4
REMARK VINA RESULT:      -8.3      3.287      9.630
REMARK  Name = 
REMARK  8 active torsions:
REMARK  status: ('A' for Active; 'I' for Inactive)
REMARK    1  A    between atoms: C_1  and  O_2
REMARK    2  A    between atoms: O_2  and  C_3
REMARK    3  A    between atoms: C_7  and  C_8
REMARK    4  A    between atoms: C_10  and  S_11
REMARK    5  A    between atoms: S_11  and  C_12
REMARK    6  A    between atoms: C_12  and  C_13
REMARK    7  A    between atoms: C_19  and  C_20
REMARK    8  A    between atoms: C_23  and  C_24
REMARK                            x       y       z     vdW  Elec       q    Type
REMARK                         _______ _______ _______ _____ _____    ______ ____
ROOT
ATOM      1  C   UNL     1       2.498   4.968  20.423  0.00  0.00    +0.000 C 
ATOM      2  O   UNL     1       1.535   5.106  21.178  0.00  0.00    +0.000 OA
ATOM      3  N   UNL     1       2.907   5.876  19.468  0.00  0.00    +0.000 N 
ATOM      4  C   UNL     1       2.380   7.136  19.356  0.00  0.00    +0.000 A 
ATOM      5  N   UNL     1       2.611   7.867  18.265  0.00  0.00    +0.000 NA
ATOM      6  S   UNL     1       1.733   9.278  18.451  0.00  0.00    +0.000 S 
ATOM      7  C   UNL     1       1.199   8.867  20.034  0.00  0.00    +0.000 A 
ATOM      8  N   UNL     1       1.634   7.676  20.379  0.00  0.00    +0.000 NA
ATOM      9  H   UNL     1       3.537   5.609  18.728  0.00  0.00    +0.000 HD
ENDROOT
BRANCH   7  10
ATOM     10  C   UNL     1       0.328   9.716  20.850  0.00  0.00    +0.000 A 
ATOM     11  C   UNL     1       0.032   9.327  22.166  0.00  0.00    +0.000 A 
ATOM     12  C   UNL     1      -0.814  10.097  22.974  0.00  0.00    +0.000 A 
ATOM     13  C   UNL     1      -1.372  11.280  22.480  0.00  0.00    +0.000 A 
ATOM     14  C   UNL     1      -2.309  12.102  23.313  0.00  0.00    +0.000 C 
ATOM     15  C   UNL     1      -1.056  11.689  21.180  0.00  0.00    +0.000 A 
ATOM     16  C   UNL     1      -0.215  10.917  20.374  0.00  0.00    +0.000 A 
ENDBRANCH   7  10
BRANCH   1  17
ATOM     17  C   UNL     1       3.272   3.665  20.399  0.00  0.00    +0.000 C 
BRANCH  17  18
ATOM     18  S   UNL     1       3.093   2.801  18.803  0.00  0.00    +0.000 S 
BRANCH  18  26
ATOM     19  C   UNL     1       6.450   4.276  13.642  0.00  0.00    +0.000 A 
ATOM     20  C   UNL     1       7.518   4.938  14.223  0.00  0.00    +0.000 A 
ATOM     21  C   UNL     1       7.567   5.097  15.609  0.00  0.00    +0.000 A 
ATOM     22  C   UNL     1       6.541   4.596  16.444  0.00  0.00    +0.000 A 
ATOM     23  C   UNL     1       6.535   4.715  17.854  0.00  0.00    +0.000 A 
ATOM     24  C   UNL     1       7.616   5.394  18.652  0.00  0.00    +0.000 C 
ATOM     25  C   UNL     1       5.463   4.162  18.569  0.00  0.00    +0.000 A 
ATOM     26  C   UNL     1       4.446   3.517  17.883  0.00  0.00    +0.000 A 
ATOM     27  N   UNL     1       4.417   3.427  16.543  0.00  0.00    +0.000 NA
ATOM     28  C   UNL     1       5.444   3.935  15.840  0.00  0.00    +0.000 A 
ATOM     29  C   UNL     1       5.418   3.800  14.456  0.00  0.00    +0.000 A 
BRANCH  19  31
ATOM     30  C   UNL     1       5.768   2.801  11.931  0.00  0.00    +0.000 C 
ATOM     31  O   UNL     1       6.291   4.073  12.297  0.00  0.00    +0.000 OA
ENDBRANCH  19  31
ENDBRANCH  18  26
ENDBRANCH  17  18
ENDBRANCH   1  17
TORSDOF 5
ENDMDL
MODEL 5
REMARK VINA RESULT:      -8.3      2.170      3.329
REMARK  Name = 
REMARK  8 active torsions:
REMARK  status: ('A' for Active; 'I' for Inactive)
REMARK    1  A    between atoms: C_1  and  O_2
REMARK    2  A    between atoms: O_2  and  C_3
REMARK    3  A    between atoms: C_7  and  C_8
REMARK    4  A    between atoms: C_10  and  S_11
REMARK    5  A    between atoms: S_11  and  C_12
REMARK    6  A    between atoms: C_12  and  C_13
REMARK    7  A    between atoms: C_19  and  C_20
REMARK    8  A    between atoms: C_23  and  C_24
REMARK                            x       y       z     vdW  Elec       q    Type
REMARK                         _______ _______ _______ _____ _____    ______ ____
ROOT
ATOM      1  C   UNL     1       1.397  10.334  18.649  0.00  0.00    +0.000 C 
ATOM      2  O   UNL     1       1.696  10.134  17.470  0.00  0.00    +0.000 OA
ATOM      3  N   UNL     1       1.413   9.389  19.653  0.00  0.00    +0.000 N 
ATOM      4  C   UNL     1       1.932   8.130  19.491  0.00  0.00    +0.000 A 
ATOM      5  N   UNL     1       1.683   7.179  20.392  0.00  0.00    +0.000 NA
ATOM      6  S   UNL     1       2.388   5.781  19.806  0.00  0.00    +0.000 S 
ATOM      7  C   UNL     1       3.083   6.571  18.445  0.00  0.00    +0.000 A 
ATOM      8  N   UNL     1       2.742   7.840  18.417  0.00  0.00    +0.000 NA
ATOM      9  H   UNL     1       0.934   9.544  20.527  0.00  0.00    +0.000 HD
ENDROOT
BRANCH   7  10
ATOM     10  C   UNL     1       3.892   5.893  17.430  0.00  0.00    +0.000 A 
ATOM     11  C   UNL     1       3.856   4.491  17.352  0.00  0.00    +0.000 A 
ATOM     12  C   UNL     1       4.630   3.800  16.412  0.00  0.00    +0.000 A 
ATOM     13  C   UNL     1       5.449   4.503  15.523  0.00  0.00    +0.000 A 
ATOM     14  C   UNL     1       6.314   3.784  14.531  0.00  0.00    +0.000 C 
ATOM     15  C   UNL     1       5.465   5.901  15.575  0.00  0.00    +0.000 A 
ATOM     16  C   UNL     1       4.695   6.589  16.517  0.00  0.00    +0.000 A 
ENDBRANCH   7  10
BRANCH   1  17
ATOM     17  C   UNL     1       0.839  11.675  19.080  0.00  0.00    +0.000 C 
BRANCH  17  18
ATOM     18  S   UNL     1      -0.456  11.492  20.351  0.00  0.00    +0.000 S 
BRANCH  18  26
ATOM     19  C   UNL     1      -6.467  12.850  18.903  0.00  0.00    +0.000 A 
ATOM     20  C   UNL     1      -6.557  12.270  17.648  0.00  0.00    +0.000 A 
ATOM     21  C   UNL     1      -5.444  11.632  17.097  0.00  0.00    +0.000 A 
ATOM     22  C   UNL     1      -4.215  11.563  17.793  0.00  0.00    +0.000 A 
ATOM     23  C   UNL     1      -3.054  10.923  17.296  0.00  0.00    +0.000 A 
ATOM     24  C   UNL     1      -2.973  10.235  15.959  0.00  0.00    +0.000 C 
ATOM     25  C   UNL     1      -1.901  10.914  18.093  0.00  0.00    +0.000 A 
ATOM     26  C   UNL     1      -1.925  11.524  19.337  0.00  0.00    +0.000 A 
ATOM     27  N   UNL     1      -3.006  12.167  19.808  0.00  0.00    +0.000 NA
ATOM     28  C   UNL     1      -4.128  12.172  19.068  0.00  0.00    +0.000 A 
ATOM     29  C   UNL     1      -5.250  12.810  19.588  0.00  0.00    +0.000 A 
BRANCH  19  31
ATOM     30  C   UNL     1      -7.762  13.078  20.862  0.00  0.00    +0.000 C 
ATOM     31  O   UNL     1      -7.487  13.511  19.534  0.00  0.00    +0.000 OA
ENDBRANCH  19  31
ENDBRANCH  18  26
ENDBRANCH  17  18
ENDBRANCH   1  17
TORSDOF 5
ENDMDL
MODEL 6
REMARK VINA RESULT:      -8.3      1.008      1.344
REMARK  Name = 
REMARK  8 active torsions:
REMARK  status: ('A' for Active; 'I' for Inactive)
REMARK    1  A    between atoms: C_1  and  O_2
REMARK    2  A    between atoms: O_2  and  C_3
REMARK    3  A    between atoms: C_7  and  C_8
REMARK    4  A    between atoms: C_10  and  S_11
REMARK    5  A    between atoms: S_11  and  C_12
REMARK    6  A    between atoms: C_12  and  C_13
REMARK    7  A    between atoms: C_19  and  C_20
REMARK    8  A    between atoms: C_23  and  C_24
REMARK                            x       y       z     vdW  Elec       q    Type
REMARK                         _______ _______ _______ _____ _____    ______ ____
ROOT
ATOM      1  C   UNL     1       1.780   8.148  19.611  0.00  0.00    +0.000 C 
ATOM      2  O   UNL     1       2.020   8.443  18.438  0.00  0.00    +0.000 OA
ATOM      3  N   UNL     1       2.095   6.950  20.218  0.00  0.00    +0.000 N 
ATOM      4  C   UNL     1       2.875   5.990  19.626  0.00  0.00    +0.000 A 
ATOM      5  N   UNL     1       2.925   4.758  20.133  0.00  0.00    +0.000 NA
ATOM      6  S   UNL     1       3.883   3.862  19.096  0.00  0.00    +0.000 S 
ATOM      7  C   UNL     1       4.265   5.216  18.105  0.00  0.00    +0.000 A 
ATOM      8  N   UNL     1       3.640   6.293  18.523  0.00  0.00    +0.000 NA
ATOM      9  H   UNL     1       1.665   6.675  21.087  0.00  0.00    +0.000 HD
ENDROOT
BRANCH   7  10
ATOM     10  C   UNL     1       5.125   5.145  16.921  0.00  0.00    +0.000 A 
ATOM     11  C   UNL     1       4.729   4.347  15.835  0.00  0.00    +0.000 A 
ATOM     12  C   UNL     1       5.531   4.234  14.693  0.00  0.00    +0.000 A 
ATOM     13  C   UNL     1       6.741   4.928  14.611  0.00  0.00    +0.000 A 
ATOM     14  C   UNL     1       7.633   4.795  13.414  0.00  0.00    +0.000 C 
ATOM     15  C   UNL     1       7.126   5.750  15.677  0.00  0.00    +0.000 A 
ATOM     16  C   UNL     1       6.327   5.859  16.818  0.00  0.00    +0.000 A 
ENDBRANCH   7  10
BRANCH   1  17
ATOM     17  C   UNL     1       0.964   9.080  20.483  0.00  0.00    +0.000 C 
BRANCH  17  18
ATOM     18  S   UNL     1       1.104  10.814  19.937  0.00  0.00    +0.000 S 
BRANCH  18  26
ATOM     19  C   UNL     1      -3.852  10.658  16.001  0.00  0.00    +0.000 A 
ATOM     20  C   UNL     1      -4.784  11.359  16.749  0.00  0.00    +0.000 A 
ATOM     21  C   UNL     1      -4.439  11.844  18.012  0.00  0.00    +0.000 A 
ATOM     22  C   UNL     1      -3.149  11.634  18.554  0.00  0.00    +0.000 A 
ATOM     23  C   UNL     1      -2.733  12.107  19.821  0.00  0.00    +0.000 A 
ATOM     24  C   UNL     1      -3.608  12.892  20.762  0.00  0.00    +0.000 C 
ATOM     25  C   UNL     1      -1.421  11.842  20.238  0.00  0.00    +0.000 A 
ATOM     26  C   UNL     1      -0.571  11.132  19.405  0.00  0.00    +0.000 A 
ATOM     27  N   UNL     1      -0.960  10.644  18.216  0.00  0.00    +0.000 NA
ATOM     28  C   UNL     1      -2.208  10.902  17.789  0.00  0.00    +0.000 A 
ATOM     29  C   UNL     1      -2.583  10.422  16.539  0.00  0.00    +0.000 A 
BRANCH  19  31
ATOM     30  C   UNL     1      -2.927   9.953  13.948  0.00  0.00    +0.000 C 
ATOM     31  O   UNL     1      -4.083  10.127  14.761  0.00  0.00    +0.000 OA
ENDBRANCH  19  31
ENDBRANCH  18  26
ENDBRANCH  17  18
ENDBRANCH   1  17
TORSDOF 5
ENDMDL
MODEL 7
REMARK VINA RESULT:      -8.2      2.911      9.770
REMARK  Name = 
REMARK  8 active torsions:
REMARK  status: ('A' for Active; 'I' for Inactive)
REMARK    1  A    between atoms: C_1  and  O_2
REMARK    2  A    between atoms: O_2  and  C_3
REMARK    3  A    between atoms: C_7  and  C_8
REMARK    4  A    between atoms: C_10  and  S_11
REMARK    5  A    between atoms: S_11  and  C_12
REMARK    6  A    between atoms: C_12  and  C_13
REMARK    7  A    between atoms: C_19  and  C_20
REMARK    8  A    between atoms: C_23  and  C_24
REMARK                            x       y       z     vdW  Elec       q    Type
REMARK                         _______ _______ _______ _____ _____    ______ ____
ROOT
ATOM      1  C   UNL     1       2.250   6.558  20.092  0.00  0.00    +0.000 C 
ATOM      2  O   UNL     1       1.354   6.501  20.936  0.00  0.00    +0.000 OA
ATOM      3  N   UNL     1       2.415   7.562  19.162  0.00  0.00    +0.000 N 
ATOM      4  C   UNL     1       1.687   8.724  19.174  0.00  0.00    +0.000 A 
ATOM      5  N   UNL     1       1.692   9.533  18.114  0.00  0.00    +0.000 NA
ATOM      6  S   UNL     1       0.624  10.771  18.463  0.00  0.00    +0.000 S 
ATOM      7  C   UNL     1       0.319  10.206  20.059  0.00  0.00    +0.000 A 
ATOM      8  N   UNL     1       0.968   9.087  20.291  0.00  0.00    +0.000 NA
ATOM      9  H   UNL     1       3.004   7.437  18.354  0.00  0.00    +0.000 HD
ENDROOT
BRANCH   7  10
ATOM     10  C   UNL     1      -0.593  10.862  20.999  0.00  0.00    +0.000 A 
ATOM     11  C   UNL     1      -1.476  11.845  20.522  0.00  0.00    +0.000 A 
ATOM     12  C   UNL     1      -2.349  12.513  21.389  0.00  0.00    +0.000 A 
ATOM     13  C   UNL     1      -2.362  12.201  22.751  0.00  0.00    +0.000 A 
ATOM     14  C   UNL     1      -3.262  12.928  23.704  0.00  0.00    +0.000 C 
ATOM     15  C   UNL     1      -1.507  11.201  23.227  0.00  0.00    +0.000 A 
ATOM     16  C   UNL     1      -0.633  10.538  22.362  0.00  0.00    +0.000 A 
ENDBRANCH   7  10
BRANCH   1  17
ATOM     17  C   UNL     1       3.213   5.401  19.919  0.00  0.00    +0.000 C 
BRANCH  17  18
ATOM     18  S   UNL     1       2.808   4.395  18.453  0.00  0.00    +0.000 S 
BRANCH  18  26
ATOM     19  C   UNL     1       6.431   3.975  13.278  0.00  0.00    +0.000 A 
ATOM     20  C   UNL     1       7.475   4.809  13.639  0.00  0.00    +0.000 A 
ATOM     21  C   UNL     1       7.457   5.450  14.880  0.00  0.00    +0.000 A 
ATOM     22  C   UNL     1       6.386   5.268  15.786  0.00  0.00    +0.000 A 
ATOM     23  C   UNL     1       6.311   5.879  17.060  0.00  0.00    +0.000 A 
ATOM     24  C   UNL     1       7.357   6.806  17.619  0.00  0.00    +0.000 C 
ATOM     25  C   UNL     1       5.200   5.606  17.870  0.00  0.00    +0.000 A 
ATOM     26  C   UNL     1       4.212   4.750  17.408  0.00  0.00    +0.000 A 
ATOM     27  N   UNL     1       4.249   4.192  16.187  0.00  0.00    +0.000 NA
ATOM     28  C   UNL     1       5.314   4.426  15.402  0.00  0.00    +0.000 A 
ATOM     29  C   UNL     1       5.355   3.809  14.156  0.00  0.00    +0.000 A 
BRANCH  19  31
ATOM     30  C   UNL     1       5.014   3.003  11.661  0.00  0.00    +0.000 C 
ATOM     31  O   UNL     1       6.338   3.307  12.087  0.00  0.00    +0.000 OA
ENDBRANCH  19  31
ENDBRANCH  18  26
ENDBRANCH  17  18
ENDBRANCH   1  17
TORSDOF 5
ENDMDL
MODEL 8
REMARK VINA RESULT:      -8.2      1.823      3.039
REMARK  Name = 
REMARK  8 active torsions:
REMARK  status: ('A' for Active; 'I' for Inactive)
REMARK    1  A    between atoms: C_1  and  O_2
REMARK    2  A    between atoms: O_2  and  C_3
REMARK    3  A    between atoms: C_7  and  C_8
REMARK    4  A    between atoms: C_10  and  S_11
REMARK    5  A    between atoms: S_11  and  C_12
REMARK    6  A    between atoms: C_12  and  C_13
REMARK    7  A    between atoms: C_19  and  C_20
REMARK    8  A    between atoms: C_23  and  C_24
REMARK                            x       y       z     vdW  Elec       q    Type
REMARK                         _______ _______ _______ _____ _____    ______ ____
ROOT
ATOM      1  C   UNL     1       1.819   8.150  19.443  0.00  0.00    +0.000 C 
ATOM      2  O   UNL     1       2.005   8.362  18.243  0.00  0.00    +0.000 OA
ATOM      3  N   UNL     1       2.198   7.013  20.125  0.00  0.00    +0.000 N 
ATOM      4  C   UNL     1       2.988   6.036  19.577  0.00  0.00    +0.000 A 
ATOM      5  N   UNL     1       3.100   4.848  20.173  0.00  0.00    +0.000 NA
ATOM      6  S   UNL     1       4.051   3.908  19.169  0.00  0.00    +0.000 S 
ATOM      7  C   UNL     1       4.348   5.193  18.064  0.00  0.00    +0.000 A 
ATOM      8  N   UNL     1       3.701   6.278  18.425  0.00  0.00    +0.000 NA
ATOM      9  H   UNL     1       1.810   6.791  21.029  0.00  0.00    +0.000 HD
ENDROOT
BRANCH   7  10
ATOM     10  C   UNL     1       5.165   5.060  16.855  0.00  0.00    +0.000 A 
ATOM     11  C   UNL     1       6.393   5.737  16.783  0.00  0.00    +0.000 A 
ATOM     12  C   UNL     1       7.196   5.656  15.638  0.00  0.00    +0.000 A 
ATOM     13  C   UNL     1       6.787   4.884  14.547  0.00  0.00    +0.000 A 
ATOM     14  C   UNL     1       7.612   4.811  13.297  0.00  0.00    +0.000 C 
ATOM     15  C   UNL     1       5.579   4.182  14.625  0.00  0.00    +0.000 A 
ATOM     16  C   UNL     1       4.778   4.267  15.766  0.00  0.00    +0.000 A 
ENDBRANCH   7  10
BRANCH   1  17
ATOM     17  C   UNL     1       1.004   9.119  20.274  0.00  0.00    +0.000 C 
BRANCH  17  18
ATOM     18  S   UNL     1       1.056  10.809  19.590  0.00  0.00    +0.000 S 
BRANCH  18  26
ATOM     19  C   UNL     1      -4.935  12.842  19.816  0.00  0.00    +0.000 A 
ATOM     20  C   UNL     1      -5.441  12.249  18.671  0.00  0.00    +0.000 A 
ATOM     21  C   UNL     1      -4.608  11.470  17.866  0.00  0.00    +0.000 A 
ATOM     22  C   UNL     1      -3.246  11.271  18.192  0.00  0.00    +0.000 A 
ATOM     23  C   UNL     1      -2.352  10.485  17.425  0.00  0.00    +0.000 A 
ATOM     24  C   UNL     1      -2.731   9.763  16.160  0.00  0.00    +0.000 C 
ATOM     25  C   UNL     1      -1.027  10.356  17.864  0.00  0.00    +0.000 A 
ATOM     26  C   UNL     1      -0.629  10.993  19.029  0.00  0.00    +0.000 A 
ATOM     27  N   UNL     1      -1.454  11.771  19.749  0.00  0.00    +0.000 NA
ATOM     28  C   UNL     1      -2.733  11.894  19.355  0.00  0.00    +0.000 A 
ATOM     29  C   UNL     1      -3.584  12.673  20.133  0.00  0.00    +0.000 A 
BRANCH  19  31
ATOM     30  C   UNL     1      -6.336  12.945  21.712  0.00  0.00    +0.000 C 
ATOM     31  O   UNL     1      -5.653  13.635  20.670  0.00  0.00    +0.000 OA
ENDBRANCH  19  31
ENDBRANCH  18  26
ENDBRANCH  17  18
ENDBRANCH   1  17
TORSDOF 5
ENDMDL
MODEL 9
REMARK VINA RESULT:      -8.2      3.754      4.897
REMARK  Name = 
REMARK  8 active torsions:
REMARK  status: ('A' for Active; 'I' for Inactive)
REMARK    1  A    between atoms: C_1  and  O_2
REMARK    2  A    between atoms: O_2  and  C_3
REMARK    3  A    between atoms: C_7  and  C_8
REMARK    4  A    between atoms: C_10  and  S_11
REMARK    5  A    between atoms: S_11  and  C_12
REMARK    6  A    between atoms: C_12  and  C_13
REMARK    7  A    between atoms: C_19  and  C_20
REMARK    8  A    between atoms: C_23  and  C_24
REMARK                            x       y       z     vdW  Elec       q    Type
REMARK                         _______ _______ _______ _____ _____    ______ ____
ROOT
ATOM      1  C   UNL     1       1.097   9.564  19.685  0.00  0.00    +0.000 C 
ATOM      2  O   UNL     1       1.368   9.589  18.482  0.00  0.00    +0.000 OA
ATOM      3  N   UNL     1       1.223   8.470  20.513  0.00  0.00    +0.000 N 
ATOM      4  C   UNL     1       1.833   7.304  20.130  0.00  0.00    +0.000 A 
ATOM      5  N   UNL     1       1.692   6.198  20.862  0.00  0.00    +0.000 NA
ATOM      6  S   UNL     1       2.484   4.981  20.032  0.00  0.00    +0.000 S 
ATOM      7  C   UNL     1       3.066   6.043  18.810  0.00  0.00    +0.000 A 
ATOM      8  N   UNL     1       2.625   7.265  19.005  0.00  0.00    +0.000 NA
ATOM      9  H   UNL     1       0.765   8.437  21.411  0.00  0.00    +0.000 HD
ENDROOT
BRANCH   7  10
ATOM     10  C   UNL     1       3.889   5.614  17.678  0.00  0.00    +0.000 A 
ATOM     11  C   UNL     1       4.536   6.585  16.896  0.00  0.00    +0.000 A 
ATOM     12  C   UNL     1       5.316   6.219  15.791  0.00  0.00    +0.000 A 
ATOM     13  C   UNL     1       5.472   4.872  15.455  0.00  0.00    +0.000 A 
ATOM     14  C   UNL     1       6.272   4.459  14.257  0.00  0.00    +0.000 C 
ATOM     15  C   UNL     1       4.855   3.898  16.249  0.00  0.00    +0.000 A 
ATOM     16  C   UNL     1       4.074   4.264  17.349  0.00  0.00    +0.000 A 
ENDBRANCH   7  10
BRANCH   1  17
ATOM     17  C   UNL     1       0.450  10.763  20.348  0.00  0.00    +0.000 C 
BRANCH  17  18
ATOM     18  S   UNL     1      -0.692  11.628  19.220  0.00  0.00    +0.000 S 
BRANCH  18  26
ATOM     19  C   UNL     1       4.375  15.223  18.005  0.00  0.00    +0.000 A 
ATOM     20  C   UNL     1       3.801  16.483  18.051  0.00  0.00    +0.000 A 
ATOM     21  C   UNL     1       2.435  16.615  18.309  0.00  0.00    +0.000 A 
ATOM     22  C   UNL     1       1.614  15.484  18.523  0.00  0.00    +0.000 A 
ATOM     23  C   UNL     1       0.226  15.550  18.799  0.00  0.00    +0.000 A 
ATOM     24  C   UNL     1      -0.558  16.831  18.895  0.00  0.00    +0.000 C 
ATOM     25  C   UNL     1      -0.473  14.353  19.006  0.00  0.00    +0.000 A 
ATOM     26  C   UNL     1       0.204  13.146  18.938  0.00  0.00    +0.000 A 
ATOM     27  N   UNL     1       1.511  13.063  18.642  0.00  0.00    +0.000 NA
ATOM     28  C   UNL     1       2.205  14.200  18.458  0.00  0.00    +0.000 A 
ATOM     29  C   UNL     1       3.566  14.098  18.189  0.00  0.00    +0.000 A 
BRANCH  19  31
ATOM     30  C   UNL     1       6.550  14.985  18.887  0.00  0.00    +0.000 C 
ATOM     31  O   UNL     1       5.696  14.973  17.749  0.00  0.00    +0.000 OA
ENDBRANCH  19  31
ENDBRANCH  18  26
ENDBRANCH  17  18
ENDBRANCH   1  17
TORSDOF 5
ENDMDL
