MODEL 1
REMARK VINA RESULT:      -9.0      0.000      0.000
REMARK  Name = 
REMARK  8 active torsions:
REMARK  status: ('A' for Active; 'I' for Inactive)
REMARK    1  A    between atoms: C_2  and  C_3
REMARK    2  A    between atoms: C_3  and  C_4
REMARK    3  A    between atoms: C_4  and  N_5
REMARK    4  A    between atoms: C_4  and  C_14
REMARK    5  A    between atoms: C_6  and  C_8
REMARK    6  A    between atoms: N_20  and  C_21
REMARK    7  A    between atoms: C_21  and  C_22
REMARK    8  A    between atoms: N_24  and  C_25
REMARK                            x       y       z     vdW  Elec       q    Type
REMARK                         _______ _______ _______ _____ _____    ______ ____
ROOT
ATOM      1  O   UNL     1       8.170   4.742  18.650  0.00  0.00    +0.000 OA
ATOM      2  C   UNL     1       7.497   5.750  18.436  0.00  0.00    +0.000 C 
ATOM      3  N   UNL     1       8.097   6.775  17.751  0.00  0.00    +0.000 N 
ATOM      4  H   UNL     1       9.023   6.500  17.439  0.00  0.00    +0.000 HD
ENDROOT
BRANCH   2   5
ATOM      5  C   UNL     1       6.069   5.890  18.943  0.00  0.00    +0.000 C 
BRANCH   5   6
ATOM      6  C   UNL     1       4.952   5.645  17.872  0.00  0.00    +0.000 C 
BRANCH   6   7
ATOM      7  C   UNL     1       3.822   4.727  18.339  0.00  0.00    +0.000 A 
ATOM      8  C   UNL     1       4.058   3.717  19.290  0.00  0.00    +0.000 A 
ATOM      9  C   UNL     1       3.041   2.833  19.665  0.00  0.00    +0.000 A 
ATOM     10  C   UNL     1       1.768   2.960  19.113  0.00  0.00    +0.000 A 
ATOM     11  C   UNL     1       1.502   3.993  18.218  0.00  0.00    +0.000 A 
ATOM     12  C   UNL     1       2.518   4.876  17.841  0.00  0.00    +0.000 A 
ENDBRANCH   6   7
BRANCH   6  13
ATOM     13  N   UNL     1       5.505   5.059  16.630  0.00  0.00    +0.000 N 
ATOM     14  C   UNL     1       5.528   5.728  15.425  0.00  0.00    +0.000 C 
ATOM     15  O   UNL     1       5.154   6.890  15.298  0.00  0.00    +0.000 OA
ATOM     16  H   UNL     1       5.572   4.048  16.608  0.00  0.00    +0.000 HD
BRANCH  14  17
ATOM     17  C   UNL     1       6.020   4.964  14.233  0.00  0.00    +0.000 A 
ATOM     18  C   UNL     1       5.153   4.047  13.623  0.00  0.00    +0.000 A 
ATOM     19  C   UNL     1       5.574   3.312  12.512  0.00  0.00    +0.000 A 
ATOM     20  C   UNL     1       6.849   3.490  11.994  0.00  0.00    +0.000 A 
ATOM     21  C   UNL     1       7.715   4.426  12.583  0.00  0.00    +0.000 A 
ATOM     22  C   UNL     1       7.298   5.158  13.691  0.00  0.00    +0.000 A 
ENDBRANCH  14  17
ENDBRANCH   6  13
ENDBRANCH   5   6
ENDBRANCH   2   5
BRANCH   3  23
ATOM     23  C   UNL     1       7.746   8.198  17.495  0.00  0.00    +0.000 C 
BRANCH  23  24
ATOM     24  C   UNL     1       8.395   9.306  18.432  0.00  0.00    +0.000 C 
ATOM     25  O   UNL     1       8.992   9.010  19.481  0.00  0.00    +0.000 OA
ATOM     26  N   UNL     1       8.260  10.631  18.013  0.00  0.00    +0.000 N 
ATOM     27  H   UNL     1       7.942  10.650  17.064  0.00  0.00    +0.000 HD
BRANCH  26  28
ATOM     28  C   UNL     1       9.225  11.768  18.295  0.00  0.00    +0.000 C 
ATOM     29  C   UNL     1      10.583  11.233  17.738  0.00  0.00    +0.000 C 
ATOM     30  C   UNL     1      11.707  12.251  17.682  0.00  0.00    +0.000 C 
ATOM     31  C   UNL     1      11.278  13.309  16.695  0.00  0.00    +0.000 C 
ATOM     32  C   UNL     1      10.151  14.021  17.384  0.00  0.00    +0.000 A 
ATOM     33  C   UNL     1      10.367  15.391  17.643  0.00  0.00    +0.000 A 
ATOM     34  C   UNL     1       9.453  16.109  18.381  0.00  0.00    +0.000 A 
ATOM     35  C   UNL     1       8.266  15.478  18.757  0.00  0.00    +0.000 A 
ATOM     36  C   UNL     1       8.050  14.093  18.526  0.00  0.00    +0.000 A 
ATOM     37  C   UNL     1       9.036  13.293  17.923  0.00  0.00    +0.000 A 
ENDBRANCH  26  28
ENDBRANCH  23  24
ENDBRANCH   3  23
TORSDOF 8
ENDMDL
MODEL 2
REMARK VINA RESULT:      -8.8      1.261      2.033
REMARK  Name = 
REMARK  8 active torsions:
REMARK  status: ('A' for Active; 'I' for Inactive)
REMARK    1  A    between atoms: C_2  and  C_3
REMARK    2  A    between atoms: C_3  and  C_4
REMARK    3  A    between atoms: C_4  and  N_5
REMARK    4  A    between atoms: C_4  and  C_14
REMARK    5  A    between atoms: C_6  and  C_8
REMARK    6  A    between atoms: N_20  and  C_21
REMARK    7  A    between atoms: C_21  and  C_22
REMARK    8  A    between atoms: N_24  and  C_25
REMARK                            x       y       z     vdW  Elec       q    Type
REMARK                         _______ _______ _______ _____ _____    ______ ____
ROOT
ATOM      1  O   UNL     1       7.990   4.161  17.742  0.00  0.00    +0.000 OA
ATOM      2  C   UNL     1       7.518   5.147  18.307  0.00  0.00    +0.000 C 
ATOM      3  N   UNL     1       8.334   6.238  18.459  0.00  0.00    +0.000 N 
ATOM      4  H   UNL     1       9.220   6.087  17.987  0.00  0.00    +0.000 HD
ENDROOT
BRANCH   2   5
ATOM      5  C   UNL     1       6.101   5.157  18.863  0.00  0.00    +0.000 C 
BRANCH   5   6
ATOM      6  C   UNL     1       4.961   5.119  17.789  0.00  0.00    +0.000 C 
BRANCH   6   7
ATOM      7  C   UNL     1       3.767   4.242  18.169  0.00  0.00    +0.000 A 
ATOM      8  C   UNL     1       3.945   3.066  18.922  0.00  0.00    +0.000 A 
ATOM      9  C   UNL     1       2.862   2.229  19.209  0.00  0.00    +0.000 A 
ATOM     10  C   UNL     1       1.584   2.565  18.769  0.00  0.00    +0.000 A 
ATOM     11  C   UNL     1       1.382   3.756  18.077  0.00  0.00    +0.000 A 
ATOM     12  C   UNL     1       2.463   4.593  17.787  0.00  0.00    +0.000 A 
ENDBRANCH   6   7
BRANCH   6  13
ATOM     13  N   UNL     1       5.458   4.635  16.482  0.00  0.00    +0.000 N 
ATOM     14  C   UNL     1       5.630   5.458  15.389  0.00  0.00    +0.000 C 
ATOM     15  O   UNL     1       5.448   6.670  15.429  0.00  0.00    +0.000 OA
ATOM     16  H   UNL     1       5.367   3.640  16.312  0.00  0.00    +0.000 HD
BRANCH  14  17
ATOM     17  C   UNL     1       6.037   4.803  14.103  0.00  0.00    +0.000 A 
ATOM     18  C   UNL     1       7.252   5.183  13.516  0.00  0.00    +0.000 A 
ATOM     19  C   UNL     1       7.667   4.600  12.316  0.00  0.00    +0.000 A 
ATOM     20  C   UNL     1       6.887   3.632  11.698  0.00  0.00    +0.000 A 
ATOM     21  C   UNL     1       5.680   3.227  12.294  0.00  0.00    +0.000 A 
ATOM     22  C   UNL     1       5.266   3.809  13.489  0.00  0.00    +0.000 A 
ENDBRANCH  14  17
ENDBRANCH   6  13
ENDBRANCH   5   6
ENDBRANCH   2   5
BRANCH   3  23
ATOM     23  C   UNL     1       8.253   7.492  19.255  0.00  0.00    +0.000 C 
BRANCH  23  24
ATOM     24  C   UNL     1       8.623   8.859  18.531  0.00  0.00    +0.000 C 
ATOM     25  O   UNL     1       8.217   9.128  17.389  0.00  0.00    +0.000 OA
ATOM     26  N   UNL     1       9.431   9.744  19.249  0.00  0.00    +0.000 N 
ATOM     27  H   UNL     1       9.479   9.449  20.205  0.00  0.00    +0.000 HD
BRANCH  26  28
ATOM     28  C   UNL     1       9.432  11.257  19.137  0.00  0.00    +0.000 C 
ATOM     29  C   UNL     1       9.027  11.724  20.571  0.00  0.00    +0.000 C 
ATOM     30  C   UNL     1       9.156  13.215  20.828  0.00  0.00    +0.000 C 
ATOM     31  C   UNL     1      10.625  13.542  20.718  0.00  0.00    +0.000 C 
ATOM     32  C   UNL     1      10.932  13.378  19.259  0.00  0.00    +0.000 A 
ATOM     33  C   UNL     1      11.372  14.543  18.596  0.00  0.00    +0.000 A 
ATOM     34  C   UNL     1      11.560  14.536  17.232  0.00  0.00    +0.000 A 
ATOM     35  C   UNL     1      11.420  13.325  16.553  0.00  0.00    +0.000 A 
ATOM     36  C   UNL     1      10.951  12.152  17.204  0.00  0.00    +0.000 A 
ATOM     37  C   UNL     1      10.589  12.169  18.563  0.00  0.00    +0.000 A 
ENDBRANCH  26  28
ENDBRANCH  23  24
ENDBRANCH   3  23
TORSDOF 8
ENDMDL
MODEL 3
REMARK VINA RESULT:      -8.7      6.168     11.061
REMARK  Name = 
REMARK  8 active torsions:
REMARK  status: ('A' for Active; 'I' for Inactive)
REMARK    1  A    between atoms: C_2  and  C_3
REMARK    2  A    between atoms: C_3  and  C_4
REMARK    3  A    between atoms: C_4  and  N_5
REMARK    4  A    between atoms: C_4  and  C_14
REMARK    5  A    between atoms: C_6  and  C_8
REMARK    6  A    between atoms: N_20  and  C_21
REMARK    7  A    between atoms: C_21  and  C_22
REMARK    8  A    between atoms: N_24  and  C_25
REMARK                            x       y       z     vdW  Elec       q    Type
REMARK                         _______ _______ _______ _____ _____    ______ ____
ROOT
ATOM      1  O   UNL     1      -1.127  10.356  17.719  0.00  0.00    +0.000 OA
ATOM      2  C   UNL     1      -0.106  10.158  18.377  0.00  0.00    +0.000 C 
ATOM      3  N   UNL     1       1.077  10.057  17.690  0.00  0.00    +0.000 N 
ATOM      4  H   UNL     1       0.933  10.252  16.704  0.00  0.00    +0.000 HD
ENDROOT
BRANCH   2   5
ATOM      5  C   UNL     1      -0.140   9.983  19.888  0.00  0.00    +0.000 C 
BRANCH   5   6
ATOM      6  C   UNL     1       0.037  11.300  20.717  0.00  0.00    +0.000 C 
BRANCH   6   7
ATOM      7  C   UNL     1      -1.250  11.818  21.361  0.00  0.00    +0.000 A 
ATOM      8  C   UNL     1      -1.476  11.670  22.742  0.00  0.00    +0.000 A 
ATOM      9  C   UNL     1      -2.683  12.081  23.318  0.00  0.00    +0.000 A 
ATOM     10  C   UNL     1      -3.671  12.664  22.528  0.00  0.00    +0.000 A 
ATOM     11  C   UNL     1      -3.437  12.874  21.171  0.00  0.00    +0.000 A 
ATOM     12  C   UNL     1      -2.232  12.462  20.593  0.00  0.00    +0.000 A 
ENDBRANCH   6   7
BRANCH   6  13
ATOM     13  N   UNL     1       0.582  12.399  19.888  0.00  0.00    +0.000 N 
ATOM     14  C   UNL     1       1.667  13.162  20.265  0.00  0.00    +0.000 C 
ATOM     15  O   UNL     1       2.311  12.951  21.288  0.00  0.00    +0.000 OA
ATOM     16  H   UNL     1      -0.047  12.786  19.194  0.00  0.00    +0.000 HD
BRANCH  14  17
ATOM     17  C   UNL     1       2.035  14.308  19.372  0.00  0.00    +0.000 A 
ATOM     18  C   UNL     1       3.165  14.180  18.552  0.00  0.00    +0.000 A 
ATOM     19  C   UNL     1       3.544  15.226  17.707  0.00  0.00    +0.000 A 
ATOM     20  C   UNL     1       2.801  16.398  17.662  0.00  0.00    +0.000 A 
ATOM     21  C   UNL     1       1.652  16.524  18.461  0.00  0.00    +0.000 A 
ATOM     22  C   UNL     1       1.274  15.483  19.304  0.00  0.00    +0.000 A 
ENDBRANCH  14  17
ENDBRANCH   6  13
ENDBRANCH   5   6
ENDBRANCH   2   5
BRANCH   3  23
ATOM     23  C   UNL     1       2.449   9.606  18.047  0.00  0.00    +0.000 C 
BRANCH  23  24
ATOM     24  C   UNL     1       2.786   8.059  17.905  0.00  0.00    +0.000 C 
ATOM     25  O   UNL     1       3.664   7.647  17.129  0.00  0.00    +0.000 OA
ATOM     26  N   UNL     1       2.041   7.185  18.700  0.00  0.00    +0.000 N 
ATOM     27  H   UNL     1       1.543   7.708  19.394  0.00  0.00    +0.000 HD
BRANCH  26  28
ATOM     28  C   UNL     1       2.503   5.846  19.245  0.00  0.00    +0.000 C 
ATOM     29  C   UNL     1       1.744   5.731  20.605  0.00  0.00    +0.000 C 
ATOM     30  C   UNL     1       1.840   4.379  21.289  0.00  0.00    +0.000 C 
ATOM     31  C   UNL     1       1.152   3.391  20.380  0.00  0.00    +0.000 C 
ATOM     32  C   UNL     1       2.062   3.283  19.192  0.00  0.00    +0.000 A 
ATOM     33  C   UNL     1       2.608   2.004  18.959  0.00  0.00    +0.000 A 
ATOM     34  C   UNL     1       3.553   1.822  17.974  0.00  0.00    +0.000 A 
ATOM     35  C   UNL     1       3.859   2.903  17.147  0.00  0.00    +0.000 A 
ATOM     36  C   UNL     1       3.337   4.202  17.388  0.00  0.00    +0.000 A 
ATOM     37  C   UNL     1       2.500   4.458  18.489  0.00  0.00    +0.000 A 
ENDBRANCH  26  28
ENDBRANCH  23  24
ENDBRANCH   3  23
TORSDOF 8
ENDMDL
MODEL 4
REMARK VINA RESULT:      -8.5      1.953      4.913
REMARK  Name = 
REMARK  8 active torsions:
REMARK  status: ('A' for Active; 'I' for Inactive)
REMARK    1  A    between atoms: C_2  and  C_3
REMARK    2  A    between atoms: C_3  and  C_4
REMARK    3  A    between atoms: C_4  and  N_5
REMARK    4  A    between atoms: C_4  and  C_14
REMARK    5  A    between atoms: C_6  and  C_8
REMARK    6  A    between atoms: N_20  and  C_21
REMARK    7  A    between atoms: C_21  and  C_22
REMARK    8  A    between atoms: N_24  and  C_25
REMARK                            x       y       z     vdW  Elec       q    Type
REMARK                         _______ _______ _______ _____ _____    ______ ____
ROOT
ATOM      1  O   UNL     1       5.693   7.149  16.161  0.00  0.00    +0.000 OA
ATOM      2  C   UNL     1       6.699   7.044  16.862  0.00  0.00    +0.000 C 
ATOM      3  N   UNL     1       7.150   8.177  17.489  0.00  0.00    +0.000 N 
ATOM      4  H   UNL     1       6.508   8.948  17.337  0.00  0.00    +0.000 HD
ENDROOT
BRANCH   2   5
ATOM      5  C   UNL     1       7.451   5.729  17.004  0.00  0.00    +0.000 C 
BRANCH   5   6
ATOM      6  C   UNL     1       6.676   4.460  16.513  0.00  0.00    +0.000 C 
BRANCH   6   7
ATOM      7  C   UNL     1       6.536   4.355  14.994  0.00  0.00    +0.000 A 
ATOM      8  C   UNL     1       5.402   3.756  14.413  0.00  0.00    +0.000 A 
ATOM      9  C   UNL     1       5.307   3.599  13.026  0.00  0.00    +0.000 A 
ATOM     10  C   UNL     1       6.331   4.055  12.200  0.00  0.00    +0.000 A 
ATOM     11  C   UNL     1       7.430   4.705  12.756  0.00  0.00    +0.000 A 
ATOM     12  C   UNL     1       7.528   4.862  14.141  0.00  0.00    +0.000 A 
ENDBRANCH   6   7
BRANCH   6  13
ATOM     13  N   UNL     1       5.310   4.400  17.082  0.00  0.00    +0.000 N 
ATOM     14  C   UNL     1       5.058   4.150  18.414  0.00  0.00    +0.000 C 
ATOM     15  O   UNL     1       5.946   4.022  19.250  0.00  0.00    +0.000 OA
ATOM     16  H   UNL     1       4.561   4.230  16.421  0.00  0.00    +0.000 HD
BRANCH  14  17
ATOM     17  C   UNL     1       3.621   4.012  18.820  0.00  0.00    +0.000 A 
ATOM     18  C   UNL     1       2.716   3.467  17.898  0.00  0.00    +0.000 A 
ATOM     19  C   UNL     1       1.368   3.326  18.235  0.00  0.00    +0.000 A 
ATOM     20  C   UNL     1       0.912   3.712  19.488  0.00  0.00    +0.000 A 
ATOM     21  C   UNL     1       1.818   4.235  20.427  0.00  0.00    +0.000 A 
ATOM     22  C   UNL     1       3.161   4.378  20.091  0.00  0.00    +0.000 A 
ENDBRANCH  14  17
ENDBRANCH   6  13
ENDBRANCH   5   6
ENDBRANCH   2   5
BRANCH   3  23
ATOM     23  C   UNL     1       8.404   8.538  18.204  0.00  0.00    +0.000 C 
BRANCH  23  24
ATOM     24  C   UNL     1       8.801  10.076  18.284  0.00  0.00    +0.000 C 
ATOM     25  O   UNL     1       8.055  10.969  17.850  0.00  0.00    +0.000 OA
ATOM     26  N   UNL     1      10.034  10.370  18.870  0.00  0.00    +0.000 N 
ATOM     27  H   UNL     1      10.384   9.556  19.336  0.00  0.00    +0.000 HD
BRANCH  26  28
ATOM     28  C   UNL     1      10.394  11.637  19.625  0.00  0.00    +0.000 C 
ATOM     29  C   UNL     1      11.066  12.527  18.531  0.00  0.00    +0.000 C 
ATOM     30  C   UNL     1      11.341  13.962  18.943  0.00  0.00    +0.000 C 
ATOM     31  C   UNL     1       9.997  14.602  19.186  0.00  0.00    +0.000 C 
ATOM     32  C   UNL     1       9.491  13.938  20.433  0.00  0.00    +0.000 A 
ATOM     33  C   UNL     1       9.279  14.794  21.534  0.00  0.00    +0.000 A 
ATOM     34  C   UNL     1       8.938  14.272  22.761  0.00  0.00    +0.000 A 
ATOM     35  C   UNL     1       8.694  12.901  22.851  0.00  0.00    +0.000 A 
ATOM     36  C   UNL     1       8.930  12.026  21.757  0.00  0.00    +0.000 A 
ATOM     37  C   UNL     1       9.440  12.506  20.538  0.00  0.00    +0.000 A 
ENDBRANCH  26  28
ENDBRANCH  23  24
ENDBRANCH   3  23
TORSDOF 8
ENDMDL
MODEL 5
REMARK VINA RESULT:      -8.5      1.362      4.445
REMARK  Name = 
REMARK  8 active torsions:
REMARK  status: ('A' for Active; 'I' for Inactive)
REMARK    1  A    between atoms: C_2  and  C_3
REMARK    2  A    between atoms: C_3  and  C_4
REMARK    3  A    between atoms: C_4  and  N_5
REMARK    4  A    between atoms: C_4  and  C_14
REMARK    5  A    between atoms: C_6  and  C_8
REMARK    6  A    between atoms: N_20  and  C_21
REMARK    7  A    between atoms: C_21  and  C_22
REMARK    8  A    between atoms: N_24  and  C_25
REMARK                            x       y       z     vdW  Elec       q    Type
REMARK                         _______ _______ _______ _____ _____    ______ ____
ROOT
ATOM      1  O   UNL     1       8.094   5.733  19.019  0.00  0.00    +0.000 OA
ATOM      2  C   UNL     1       7.890   6.628  18.201  0.00  0.00    +0.000 C 
ATOM      3  N   UNL     1       8.324   7.888  18.524  0.00  0.00    +0.000 N 
ATOM      4  H   UNL     1       8.845   7.872  19.395  0.00  0.00    +0.000 HD
ENDROOT
BRANCH   2   5
ATOM      5  C   UNL     1       7.147   6.376  16.897  0.00  0.00    +0.000 C 
BRANCH   5   6
ATOM      6  C   UNL     1       7.052   4.874  16.461  0.00  0.00    +0.000 C 
BRANCH   6   7
ATOM      7  C   UNL     1       6.952   4.662  14.950  0.00  0.00    +0.000 A 
ATOM      8  C   UNL     1       6.070   3.707  14.411  0.00  0.00    +0.000 A 
ATOM      9  C   UNL     1       6.030   3.465  13.034  0.00  0.00    +0.000 A 
ATOM     10  C   UNL     1       6.854   4.188  12.174  0.00  0.00    +0.000 A 
ATOM     11  C   UNL     1       7.687   5.179  12.686  0.00  0.00    +0.000 A 
ATOM     12  C   UNL     1       7.730   5.422  14.062  0.00  0.00    +0.000 A 
ENDBRANCH   6   7
BRANCH   6  13
ATOM     13  N   UNL     1       5.884   4.201  17.073  0.00  0.00    +0.000 N 
ATOM     14  C   UNL     1       4.655   4.807  17.219  0.00  0.00    +0.000 C 
ATOM     15  O   UNL     1       4.408   5.930  16.794  0.00  0.00    +0.000 OA
ATOM     16  H   UNL     1       6.091   3.407  17.668  0.00  0.00    +0.000 HD
BRANCH  14  17
ATOM     17  C   UNL     1       3.601   4.036  17.956  0.00  0.00    +0.000 A 
ATOM     18  C   UNL     1       3.992   3.234  19.037  0.00  0.00    +0.000 A 
ATOM     19  C   UNL     1       3.041   2.497  19.747  0.00  0.00    +0.000 A 
ATOM     20  C   UNL     1       1.699   2.559  19.398  0.00  0.00    +0.000 A 
ATOM     21  C   UNL     1       1.295   3.381  18.332  0.00  0.00    +0.000 A 
ATOM     22  C   UNL     1       2.242   4.114  17.623  0.00  0.00    +0.000 A 
ENDBRANCH  14  17
ENDBRANCH   6  13
ENDBRANCH   5   6
ENDBRANCH   2   5
BRANCH   3  23
ATOM     23  C   UNL     1       8.086   9.244  17.960  0.00  0.00    +0.000 C 
BRANCH  23  24
ATOM     24  C   UNL     1       9.125  10.393  18.318  0.00  0.00    +0.000 C 
ATOM     25  O   UNL     1      10.131  10.608  17.621  0.00  0.00    +0.000 OA
ATOM     26  N   UNL     1       8.848  11.150  19.459  0.00  0.00    +0.000 N 
ATOM     27  H   UNL     1       7.909  10.969  19.758  0.00  0.00    +0.000 HD
BRANCH  26  28
ATOM     28  C   UNL     1       9.234  12.598  19.696  0.00  0.00    +0.000 C 
ATOM     29  C   UNL     1      10.723  12.500  20.160  0.00  0.00    +0.000 C 
ATOM     30  C   UNL     1      11.457  13.825  20.266  0.00  0.00    +0.000 C 
ATOM     31  C   UNL     1      11.527  14.387  18.868  0.00  0.00    +0.000 C 
ATOM     32  C   UNL     1      10.109  14.761  18.548  0.00  0.00    +0.000 A 
ATOM     33  C   UNL     1       9.883  16.132  18.302  0.00  0.00    +0.000 A 
ATOM     34  C   UNL     1       8.601  16.602  18.124  0.00  0.00    +0.000 A 
ATOM     35  C   UNL     1       7.559  15.675  18.077  0.00  0.00    +0.000 A 
ATOM     36  C   UNL     1       7.770  14.297  18.350  0.00  0.00    +0.000 A 
ATOM     37  C   UNL     1       9.042  13.811  18.702  0.00  0.00    +0.000 A 
ENDBRANCH  26  28
ENDBRANCH  23  24
ENDBRANCH   3  23
TORSDOF 8
ENDMDL
MODEL 6
REMARK VINA RESULT:      -8.5      6.155     10.332
REMARK  Name = 
REMARK  8 active torsions:
REMARK  status: ('A' for Active; 'I' for Inactive)
REMARK    1  A    between atoms: C_2  and  C_3
REMARK    2  A    between atoms: C_3  and  C_4
REMARK    3  A    between atoms: C_4  and  N_5
REMARK    4  A    between atoms: C_4  and  C_14
REMARK    5  A    between atoms: C_6  and  C_8
REMARK    6  A    between atoms: N_20  and  C_21
REMARK    7  A    between atoms: C_21  and  C_22
REMARK    8  A    between atoms: N_24  and  C_25
REMARK                            x       y       z     vdW  Elec       q    Type
REMARK                         _______ _______ _______ _____ _____    ______ ____
ROOT
ATOM      1  O   UNL     1       0.700  11.338  21.799  0.00  0.00    +0.000 OA
ATOM      2  C   UNL     1       0.335  10.233  21.400  0.00  0.00    +0.000 C 
ATOM      3  N   UNL     1       1.016   9.138  21.865  0.00  0.00    +0.000 N 
ATOM      4  H   UNL     1       1.698   9.414  22.565  0.00  0.00    +0.000 HD
ENDROOT
BRANCH   2   5
ATOM      5  C   UNL     1      -0.796  10.072  20.394  0.00  0.00    +0.000 C 
BRANCH   5   6
ATOM      6  C   UNL     1      -1.271  11.396  19.705  0.00  0.00    +0.000 C 
BRANCH   6   7
ATOM      7  C   UNL     1      -2.125  11.183  18.454  0.00  0.00    +0.000 A 
ATOM      8  C   UNL     1      -3.394  11.780  18.336  0.00  0.00    +0.000 A 
ATOM      9  C   UNL     1      -4.203  11.528  17.223  0.00  0.00    +0.000 A 
ATOM     10  C   UNL     1      -3.748  10.696  16.203  0.00  0.00    +0.000 A 
ATOM     11  C   UNL     1      -2.469  10.149  16.276  0.00  0.00    +0.000 A 
ATOM     12  C   UNL     1      -1.660  10.397  17.388  0.00  0.00    +0.000 A 
ENDBRANCH   6   7
BRANCH   6  13
ATOM     13  N   UNL     1      -0.127  12.249  19.312  0.00  0.00    +0.000 N 
ATOM     14  C   UNL     1      -0.166  13.627  19.350  0.00  0.00    +0.000 C 
ATOM     15  O   UNL     1      -1.128  14.258  19.776  0.00  0.00    +0.000 OA
ATOM     16  H   UNL     1       0.567  11.814  18.717  0.00  0.00    +0.000 HD
BRANCH  14  17
ATOM     17  C   UNL     1       1.032  14.355  18.819  0.00  0.00    +0.000 A 
ATOM     18  C   UNL     1       2.120  13.602  18.356  0.00  0.00    +0.000 A 
ATOM     19  C   UNL     1       3.257  14.242  17.856  0.00  0.00    +0.000 A 
ATOM     20  C   UNL     1       3.318  15.628  17.803  0.00  0.00    +0.000 A 
ATOM     21  C   UNL     1       2.221  16.389  18.241  0.00  0.00    +0.000 A 
ATOM     22  C   UNL     1       1.088  15.752  18.741  0.00  0.00    +0.000 A 
ENDBRANCH  14  17
ENDBRANCH   6  13
ENDBRANCH   5   6
ENDBRANCH   2   5
BRANCH   3  23
ATOM     23  C   UNL     1       1.061   7.702  21.478  0.00  0.00    +0.000 C 
BRANCH  23  24
ATOM     24  C   UNL     1       1.898   7.305  20.186  0.00  0.00    +0.000 C 
ATOM     25  O   UNL     1       2.289   8.156  19.370  0.00  0.00    +0.000 OA
ATOM     26  N   UNL     1       2.171   5.946  20.015  0.00  0.00    +0.000 N 
ATOM     27  H   UNL     1       1.961   5.455  20.863  0.00  0.00    +0.000 HD
BRANCH  26  28
ATOM     28  C   UNL     1       3.379   5.349  19.317  0.00  0.00    +0.000 C 
ATOM     29  C   UNL     1       3.371   3.862  19.794  0.00  0.00    +0.000 C 
ATOM     30  C   UNL     1       4.351   2.947  19.081  0.00  0.00    +0.000 C 
ATOM     31  C   UNL     1       3.911   2.890  17.640  0.00  0.00    +0.000 C 
ATOM     32  C   UNL     1       4.211   4.260  17.107  0.00  0.00    +0.000 A 
ATOM     33  C   UNL     1       5.150   4.311  16.055  0.00  0.00    +0.000 A 
ATOM     34  C   UNL     1       5.592   5.524  15.578  0.00  0.00    +0.000 A 
ATOM     35  C   UNL     1       5.000   6.685  16.079  0.00  0.00    +0.000 A 
ATOM     36  C   UNL     1       4.074   6.648  17.156  0.00  0.00    +0.000 A 
ATOM     37  C   UNL     1       3.729   5.436  17.778  0.00  0.00    +0.000 A 
ENDBRANCH  26  28
ENDBRANCH  23  24
ENDBRANCH   3  23
TORSDOF 8
ENDMDL
MODEL 7
REMARK VINA RESULT:      -8.5      0.671      1.158
REMARK  Name = 
REMARK  8 active torsions:
REMARK  status: ('A' for Active; 'I' for Inactive)
REMARK    1  A    between atoms: C_2  and  C_3
REMARK    2  A    between atoms: C_3  and  C_4
REMARK    3  A    between atoms: C_4  and  N_5
REMARK    4  A    between atoms: C_4  and  C_14
REMARK    5  A    between atoms: C_6  and  C_8
REMARK    6  A    between atoms: N_20  and  C_21
REMARK    7  A    between atoms: C_21  and  C_22
REMARK    8  A    between atoms: N_24  and  C_25
REMARK                            x       y       z     vdW  Elec       q    Type
REMARK                         _______ _______ _______ _____ _____    ______ ____
ROOT
ATOM      1  O   UNL     1       6.853   4.945  18.957  0.00  0.00    +0.000 OA
ATOM      2  C   UNL     1       6.583   6.005  18.394  0.00  0.00    +0.000 C 
ATOM      3  N   UNL     1       7.632   6.750  17.918  0.00  0.00    +0.000 N 
ATOM      4  H   UNL     1       8.506   6.249  18.038  0.00  0.00    +0.000 HD
ENDROOT
BRANCH   2   5
ATOM      5  C   UNL     1       5.153   6.508  18.261  0.00  0.00    +0.000 C 
BRANCH   5   6
ATOM      6  C   UNL     1       4.188   5.574  17.455  0.00  0.00    +0.000 C 
BRANCH   6   7
ATOM      7  C   UNL     1       3.578   4.438  18.277  0.00  0.00    +0.000 A 
ATOM      8  C   UNL     1       2.977   4.692  19.525  0.00  0.00    +0.000 A 
ATOM      9  C   UNL     1       2.482   3.644  20.308  0.00  0.00    +0.000 A 
ATOM     10  C   UNL     1       2.559   2.332  19.847  0.00  0.00    +0.000 A 
ATOM     11  C   UNL     1       3.095   2.071  18.588  0.00  0.00    +0.000 A 
ATOM     12  C   UNL     1       3.592   3.117  17.805  0.00  0.00    +0.000 A 
ENDBRANCH   6   7
BRANCH   6  13
ATOM     13  N   UNL     1       4.869   4.955  16.295  0.00  0.00    +0.000 N 
ATOM     14  C   UNL     1       5.266   5.669  15.185  0.00  0.00    +0.000 C 
ATOM     15  O   UNL     1       5.148   6.887  15.095  0.00  0.00    +0.000 OA
ATOM     16  H   UNL     1       4.752   3.954  16.194  0.00  0.00    +0.000 HD
BRANCH  14  17
ATOM     17  C   UNL     1       5.846   4.886  14.045  0.00  0.00    +0.000 A 
ATOM     18  C   UNL     1       7.167   5.150  13.657  0.00  0.00    +0.000 A 
ATOM     19  C   UNL     1       7.743   4.445  12.597  0.00  0.00    +0.000 A 
ATOM     20  C   UNL     1       7.019   3.469  11.926  0.00  0.00    +0.000 A 
ATOM     21  C   UNL     1       5.703   3.181  12.326  0.00  0.00    +0.000 A 
ATOM     22  C   UNL     1       5.128   3.884  13.381  0.00  0.00    +0.000 A 
ENDBRANCH  14  17
ENDBRANCH   6  13
ENDBRANCH   5   6
ENDBRANCH   2   5
BRANCH   3  23
ATOM     23  C   UNL     1       7.770   8.141  17.409  0.00  0.00    +0.000 C 
BRANCH  23  24
ATOM     24  C   UNL     1       8.419   9.227  18.372  0.00  0.00    +0.000 C 
ATOM     25  O   UNL     1       9.041   8.906  19.398  0.00  0.00    +0.000 OA
ATOM     26  N   UNL     1       8.253  10.564  18.003  0.00  0.00    +0.000 N 
ATOM     27  H   UNL     1       7.916  10.610  17.061  0.00  0.00    +0.000 HD
BRANCH  26  28
ATOM     28  C   UNL     1       9.204  11.707  18.306  0.00  0.00    +0.000 C 
ATOM     29  C   UNL     1      10.574  11.186  17.765  0.00  0.00    +0.000 C 
ATOM     30  C   UNL     1      11.691  12.215  17.732  0.00  0.00    +0.000 C 
ATOM     31  C   UNL     1      11.266  13.275  16.746  0.00  0.00    +0.000 C 
ATOM     32  C   UNL     1      10.124  13.974  17.423  0.00  0.00    +0.000 A 
ATOM     33  C   UNL     1      10.325  15.343  17.694  0.00  0.00    +0.000 A 
ATOM     34  C   UNL     1       9.394  16.049  18.424  0.00  0.00    +0.000 A 
ATOM     35  C   UNL     1       8.208  15.406  18.778  0.00  0.00    +0.000 A 
ATOM     36  C   UNL     1       8.006  14.021  18.535  0.00  0.00    +0.000 A 
ATOM     37  C   UNL     1       9.008  13.232  17.942  0.00  0.00    +0.000 A 
ENDBRANCH  26  28
ENDBRANCH  23  24
ENDBRANCH   3  23
TORSDOF 8
ENDMDL
MODEL 8
REMARK VINA RESULT:      -8.3      4.534      7.810
REMARK  Name = 
REMARK  8 active torsions:
REMARK  status: ('A' for Active; 'I' for Inactive)
REMARK    1  A    between atoms: C_2  and  C_3
REMARK    2  A    between atoms: C_3  and  C_4
REMARK    3  A    between atoms: C_4  and  N_5
REMARK    4  A    between atoms: C_4  and  C_14
REMARK    5  A    between atoms: C_6  and  C_8
REMARK    6  A    between atoms: N_20  and  C_21
REMARK    7  A    between atoms: C_21  and  C_22
REMARK    8  A    between atoms: N_24  and  C_25
REMARK                            x       y       z     vdW  Elec       q    Type
REMARK                         _______ _______ _______ _____ _____    ______ ____
ROOT
ATOM      1  O   UNL     1       7.367   7.776  16.847  0.00  0.00    +0.000 OA
ATOM      2  C   UNL     1       6.496   7.056  17.331  0.00  0.00    +0.000 C 
ATOM      3  N   UNL     1       5.194   7.462  17.194  0.00  0.00    +0.000 N 
ATOM      4  H   UNL     1       5.141   8.294  16.615  0.00  0.00    +0.000 HD
ENDROOT
BRANCH   2   5
ATOM      5  C   UNL     1       6.832   5.783  18.096  0.00  0.00    +0.000 C 
BRANCH   5   6
ATOM      6  C   UNL     1       6.296   4.458  17.455  0.00  0.00    +0.000 C 
BRANCH   6   7
ATOM      7  C   UNL     1       6.360   4.426  15.928  0.00  0.00    +0.000 A 
ATOM      8  C   UNL     1       5.279   3.936  15.171  0.00  0.00    +0.000 A 
ATOM      9  C   UNL     1       5.365   3.842  13.777  0.00  0.00    +0.000 A 
ATOM     10  C   UNL     1       6.521   4.256  13.120  0.00  0.00    +0.000 A 
ATOM     11  C   UNL     1       7.574   4.801  13.850  0.00  0.00    +0.000 A 
ATOM     12  C   UNL     1       7.491   4.894  15.242  0.00  0.00    +0.000 A 
ENDBRANCH   6   7
BRANCH   6  13
ATOM     13  N   UNL     1       4.891   4.195  17.839  0.00  0.00    +0.000 N 
ATOM     14  C   UNL     1       4.533   3.600  19.030  0.00  0.00    +0.000 C 
ATOM     15  O   UNL     1       5.345   3.300  19.899  0.00  0.00    +0.000 OA
ATOM     16  H   UNL     1       4.221   4.168  17.080  0.00  0.00    +0.000 HD
BRANCH  14  17
ATOM     17  C   UNL     1       3.078   3.301  19.230  0.00  0.00    +0.000 A 
ATOM     18  C   UNL     1       2.479   2.324  18.422  0.00  0.00    +0.000 A 
ATOM     19  C   UNL     1       1.125   2.018  18.573  0.00  0.00    +0.000 A 
ATOM     20  C   UNL     1       0.360   2.669  19.531  0.00  0.00    +0.000 A 
ATOM     21  C   UNL     1       0.958   3.631  20.363  0.00  0.00    +0.000 A 
ATOM     22  C   UNL     1       2.308   3.937  20.212  0.00  0.00    +0.000 A 
ENDBRANCH  14  17
ENDBRANCH   6  13
ENDBRANCH   5   6
ENDBRANCH   2   5
BRANCH   3  23
ATOM     23  C   UNL     1       3.904   7.038  17.802  0.00  0.00    +0.000 C 
BRANCH  23  24
ATOM     24  C   UNL     1       2.800   8.153  18.061  0.00  0.00    +0.000 C 
ATOM     25  O   UNL     1       2.315   8.824  17.134  0.00  0.00    +0.000 OA
ATOM     26  N   UNL     1       2.401   8.338  19.386  0.00  0.00    +0.000 N 
ATOM     27  H   UNL     1       2.741   7.579  19.945  0.00  0.00    +0.000 HD
BRANCH  26  28
ATOM     28  C   UNL     1       1.039   8.807  19.862  0.00  0.00    +0.000 C 
ATOM     29  C   UNL     1       0.900   8.139  21.267  0.00  0.00    +0.000 C 
ATOM     30  C   UNL     1      -0.286   8.605  22.092  0.00  0.00    +0.000 C 
ATOM     31  C   UNL     1      -0.056  10.067  22.383  0.00  0.00    +0.000 C 
ATOM     32  C   UNL     1      -0.227  10.741  21.053  0.00  0.00    +0.000 A 
ATOM     33  C   UNL     1      -1.282  11.675  20.976  0.00  0.00    +0.000 A 
ATOM     34  C   UNL     1      -1.608  12.255  19.771  0.00  0.00    +0.000 A 
ATOM     35  C   UNL     1      -0.796  11.986  18.669  0.00  0.00    +0.000 A 
ATOM     36  C   UNL     1       0.251  11.027  18.726  0.00  0.00    +0.000 A 
ATOM     37  C   UNL     1       0.502  10.292  19.899  0.00  0.00    +0.000 A 
ENDBRANCH  26  28
ENDBRANCH  23  24
ENDBRANCH   3  23
TORSDOF 8
ENDMDL
MODEL 9
REMARK VINA RESULT:      -8.2      6.686     11.110
REMARK  Name = 
REMARK  8 active torsions:
REMARK  status: ('A' for Active; 'I' for Inactive)
REMARK    1  A    between atoms: C_2  and  C_3
REMARK    2  A    between atoms: C_3  and  C_4
REMARK    3  A    between atoms: C_4  and  N_5
REMARK    4  A    between atoms: C_4  and  C_14
REMARK    5  A    between atoms: C_6  and  C_8
REMARK    6  A    between atoms: N_20  and  C_21
REMARK    7  A    between atoms: C_21  and  C_22
REMARK    8  A    between atoms: N_24  and  C_25
REMARK                            x       y       z     vdW  Elec       q    Type
REMARK                         _______ _______ _______ _____ _____    ______ ____
ROOT
ATOM      1  O   UNL     1       1.222  12.389  20.691  0.00  0.00    +0.000 OA
ATOM      2  C   UNL     1       0.725  11.386  20.180  0.00  0.00    +0.000 C 
ATOM      3  N   UNL     1       1.566  10.541  19.503  0.00  0.00    +0.000 N 
ATOM      4  H   UNL     1       2.530  10.845  19.600  0.00  0.00    +0.000 HD
ENDROOT
BRANCH   2   5
ATOM      5  C   UNL     1      -0.768  11.102  20.247  0.00  0.00    +0.000 C 
BRANCH   5   6
ATOM      6  C   UNL     1      -1.679  12.136  19.502  0.00  0.00    +0.000 C 
BRANCH   6   7
ATOM      7  C   UNL     1      -2.433  11.561  18.302  0.00  0.00    +0.000 A 
ATOM      8  C   UNL     1      -1.796  10.688  17.400  0.00  0.00    +0.000 A 
ATOM      9  C   UNL     1      -2.465  10.218  16.265  0.00  0.00    +0.000 A 
ATOM     10  C   UNL     1      -3.785  10.594  16.026  0.00  0.00    +0.000 A 
ATOM     11  C   UNL     1      -4.448  11.407  16.942  0.00  0.00    +0.000 A 
ATOM     12  C   UNL     1      -3.781  11.879  18.076  0.00  0.00    +0.000 A 
ENDBRANCH   6   7
BRANCH   6  13
ATOM     13  N   UNL     1      -0.902  13.297  19.013  0.00  0.00    +0.000 N 
ATOM     14  C   UNL     1      -0.939  14.537  19.614  0.00  0.00    +0.000 C 
ATOM     15  O   UNL     1      -1.568  14.763  20.642  0.00  0.00    +0.000 OA
ATOM     16  H   UNL     1      -0.593  13.250  18.049  0.00  0.00    +0.000 HD
BRANCH  14  17
ATOM     17  C   UNL     1      -0.182  15.641  18.940  0.00  0.00    +0.000 A 
ATOM     18  C   UNL     1      -0.894  16.761  18.489  0.00  0.00    +0.000 A 
ATOM     19  C   UNL     1      -0.228  17.811  17.852  0.00  0.00    +0.000 A 
ATOM     20  C   UNL     1       1.148  17.761  17.670  0.00  0.00    +0.000 A 
ATOM     21  C   UNL     1       1.873  16.654  18.142  0.00  0.00    +0.000 A 
ATOM     22  C   UNL     1       1.208  15.607  18.775  0.00  0.00    +0.000 A 
ENDBRANCH  14  17
ENDBRANCH   6  13
ENDBRANCH   5   6
ENDBRANCH   2   5
BRANCH   3  23
ATOM     23  C   UNL     1       1.361   9.396  18.576  0.00  0.00    +0.000 C 
BRANCH  23  24
ATOM     24  C   UNL     1       2.201   8.070  18.832  0.00  0.00    +0.000 C 
ATOM     25  O   UNL     1       2.069   7.400  19.870  0.00  0.00    +0.000 OA
ATOM     26  N   UNL     1       3.096   7.698  17.827  0.00  0.00    +0.000 N 
ATOM     27  H   UNL     1       2.911   8.232  17.001  0.00  0.00    +0.000 HD
BRANCH  26  28
ATOM     28  C   UNL     1       3.531   6.284  17.485  0.00  0.00    +0.000 C 
ATOM     29  C   UNL     1       5.089   6.386  17.454  0.00  0.00    +0.000 C 
ATOM     30  C   UNL     1       5.823   5.061  17.349  0.00  0.00    +0.000 C 
ATOM     31  C   UNL     1       5.513   4.299  18.613  0.00  0.00    +0.000 C 
ATOM     32  C   UNL     1       4.061   3.942  18.483  0.00  0.00    +0.000 A 
ATOM     33  C   UNL     1       3.775   2.561  18.450  0.00  0.00    +0.000 A 
ATOM     34  C   UNL     1       2.492   2.125  18.207  0.00  0.00    +0.000 A 
ATOM     35  C   UNL     1       1.477   3.078  18.115  0.00  0.00    +0.000 A 
ATOM     36  C   UNL     1       1.756   4.471  18.119  0.00  0.00    +0.000 A 
ATOM     37  C   UNL     1       3.076   4.949  18.197  0.00  0.00    +0.000 A 
ENDBRANCH  26  28
ENDBRANCH  23  24
ENDBRANCH   3  23
TORSDOF 8
ENDMDL
