MODEL 1
REMARK VINA RESULT:      -5.8      0.000      0.000
REMARK  Name = 
REMARK  2 active torsions:
REMARK  status: ('A' for Active; 'I' for Inactive)
REMARK    1  A    between atoms: C_6  and  N_7
REMARK    2  A    between atoms: C_9  and  N_10
REMARK                            x       y       z     vdW  Elec       q    Type
REMARK                         _______ _______ _______ _____ _____    ______ ____
ROOT
ATOM      1  N   UNL     1       8.364   5.518  20.095  0.00  0.00    +0.000 N 
ATOM      2  C   UNL     1       7.293   5.585  19.222  0.00  0.00    +0.000 A 
ATOM      3  N   UNL     1       7.408   6.488  18.244  0.00  0.00    +0.000 NA
ATOM      4  C   UNL     1       6.441   6.479  17.327  0.00  0.00    +0.000 A 
ATOM      5  C   UNL     1       5.385   5.607  17.360  0.00  0.00    +0.000 A 
ATOM      6  C   UNL     1       5.311   4.743  18.433  0.00  0.00    +0.000 A 
ATOM      7  N   UNL     1       6.292   4.707  19.358  0.00  0.00    +0.000 NA
ATOM      8  H   UNL     1       9.157   5.961  19.653  0.00  0.00    +0.000 HD
ATOM      9  H   UNL     1       8.488   4.556  20.382  0.00  0.00    +0.000 HD
ENDROOT
BRANCH   6  10
ATOM     10  N   UNL     1       4.198   3.884  18.530  0.00  0.00    +0.000 N 
ATOM     11  C   UNL     1       3.884   2.974  19.592  0.00  0.00    +0.000 C 
ATOM     12  C   UNL     1       3.318   1.997  18.557  0.00  0.00    +0.000 C 
ATOM     13  C   UNL     1       3.632   3.067  17.496  0.00  0.00    +0.000 C 
BRANCH  12  14
ATOM     14  N   UNL     1       4.230   0.848  18.428  0.00  0.00    +0.000 NA
ATOM     15  H   UNL     1       4.811   0.693  19.256  0.00  0.00    +0.000 HD
ATOM     16  H   UNL     1       4.883   0.926  17.650  0.00  0.00    +0.000 HD
ENDBRANCH  12  14
ENDBRANCH   6  10
TORSDOF 2
ENDMDL
MODEL 2
REMARK VINA RESULT:      -5.6      1.368      1.710
REMARK  Name = 
REMARK  2 active torsions:
REMARK  status: ('A' for Active; 'I' for Inactive)
REMARK    1  A    between atoms: C_6  and  N_7
REMARK    2  A    between atoms: C_9  and  N_10
REMARK                            x       y       z     vdW  Elec       q    Type
REMARK                         _______ _______ _______ _____ _____    ______ ____
ROOT
ATOM      1  N   UNL     1       7.700   7.196  17.754  0.00  0.00    +0.000 N 
ATOM      2  C   UNL     1       6.973   6.169  17.180  0.00  0.00    +0.000 A 
ATOM      3  N   UNL     1       7.375   5.796  15.961  0.00  0.00    +0.000 NA
ATOM      4  C   UNL     1       6.764   4.729  15.448  0.00  0.00    +0.000 A 
ATOM      5  C   UNL     1       5.784   4.036  16.109  0.00  0.00    +0.000 A 
ATOM      6  C   UNL     1       5.389   4.518  17.340  0.00  0.00    +0.000 A 
ATOM      7  N   UNL     1       6.012   5.577  17.898  0.00  0.00    +0.000 NA
ATOM      8  H   UNL     1       8.579   7.271  17.263  0.00  0.00    +0.000 HD
ATOM      9  H   UNL     1       7.752   7.038  18.752  0.00  0.00    +0.000 HD
ENDROOT
BRANCH   6  10
ATOM     10  N   UNL     1       4.334   3.867  18.010  0.00  0.00    +0.000 N 
ATOM     11  C   UNL     1       4.402   3.119  19.230  0.00  0.00    +0.000 C 
ATOM     12  C   UNL     1       3.343   2.161  18.676  0.00  0.00    +0.000 C 
ATOM     13  C   UNL     1       3.294   3.067  17.432  0.00  0.00    +0.000 C 
BRANCH  12  14
ATOM     14  N   UNL     1       3.978   0.870  18.359  0.00  0.00    +0.000 NA
ATOM     15  H   UNL     1       4.916   0.769  18.754  0.00  0.00    +0.000 HD
ATOM     16  H   UNL     1       4.083   0.698  17.360  0.00  0.00    +0.000 HD
ENDBRANCH  12  14
ENDBRANCH   6  10
TORSDOF 2
ENDMDL
MODEL 3
REMARK VINA RESULT:      -5.6      1.244      1.248
REMARK  Name = 
REMARK  2 active torsions:
REMARK  status: ('A' for Active; 'I' for Inactive)
REMARK    1  A    between atoms: C_6  and  N_7
REMARK    2  A    between atoms: C_9  and  N_10
REMARK                            x       y       z     vdW  Elec       q    Type
REMARK                         _______ _______ _______ _____ _____    ______ ____
ROOT
ATOM      1  N   UNL     1       8.220   5.459  19.718  0.00  0.00    +0.000 N 
ATOM      2  C   UNL     1       7.290   5.125  18.750  0.00  0.00    +0.000 A 
ATOM      3  N   UNL     1       7.773   5.003  17.510  0.00  0.00    +0.000 NA
ATOM      4  C   UNL     1       6.915   4.564  16.591  0.00  0.00    +0.000 A 
ATOM      5  C   UNL     1       5.612   4.246  16.873  0.00  0.00    +0.000 A 
ATOM      6  C   UNL     1       5.177   4.451  18.166  0.00  0.00    +0.000 A 
ATOM      7  N   UNL     1       6.032   4.864  19.124  0.00  0.00    +0.000 NA
ATOM      8  H   UNL     1       9.140   5.260  19.350  0.00  0.00    +0.000 HD
ATOM      9  H   UNL     1       7.969   4.996  20.581  0.00  0.00    +0.000 HD
ENDROOT
BRANCH   6  10
ATOM     10  N   UNL     1       3.823   4.201  18.468  0.00  0.00    +0.000 N 
ATOM     11  C   UNL     1       3.297   3.418  19.547  0.00  0.00    +0.000 C 
ATOM     12  C   UNL     1       2.168   2.948  18.626  0.00  0.00    +0.000 C 
ATOM     13  C   UNL     1       2.770   3.871  17.552  0.00  0.00    +0.000 C 
BRANCH  12  14
ATOM     14  N   UNL     1       2.383   1.532  18.281  0.00  0.00    +0.000 NA
ATOM     15  H   UNL     1       2.081   1.292  17.333  0.00  0.00    +0.000 HD
ATOM     16  H   UNL     1       1.895   0.880  18.894  0.00  0.00    +0.000 HD
ENDBRANCH  12  14
ENDBRANCH   6  10
TORSDOF 2
ENDMDL
MODEL 4
REMARK VINA RESULT:      -5.5      2.088      2.715
REMARK  Name = 
REMARK  2 active torsions:
REMARK  status: ('A' for Active; 'I' for Inactive)
REMARK    1  A    between atoms: C_6  and  N_7
REMARK    2  A    between atoms: C_9  and  N_10
REMARK                            x       y       z     vdW  Elec       q    Type
REMARK                         _______ _______ _______ _____ _____    ______ ____
ROOT
ATOM      1  N   UNL     1       7.704   4.680  18.174  0.00  0.00    +0.000 N 
ATOM      2  C   UNL     1       6.342   4.468  18.055  0.00  0.00    +0.000 A 
ATOM      3  N   UNL     1       5.897   4.296  16.807  0.00  0.00    +0.000 NA
ATOM      4  C   UNL     1       4.610   3.970  16.688  0.00  0.00    +0.000 A 
ATOM      5  C   UNL     1       3.775   3.812  17.762  0.00  0.00    +0.000 A 
ATOM      6  C   UNL     1       4.299   4.060  19.014  0.00  0.00    +0.000 A 
ATOM      7  N   UNL     1       5.605   4.360  19.167  0.00  0.00    +0.000 NA
ATOM      8  H   UNL     1       8.145   4.373  17.318  0.00  0.00    +0.000 HD
ATOM      9  H   UNL     1       8.026   4.245  19.029  0.00  0.00    +0.000 HD
ENDROOT
BRANCH   6  10
ATOM     10  N   UNL     1       3.443   3.975  20.130  0.00  0.00    +0.000 N 
ATOM     11  C   UNL     1       2.865   2.794  20.701  0.00  0.00    +0.000 C 
ATOM     12  C   UNL     1       1.599   3.594  21.018  0.00  0.00    +0.000 C 
ATOM     13  C   UNL     1       2.330   4.821  20.445  0.00  0.00    +0.000 C 
BRANCH  12  14
ATOM     14  N   UNL     1       0.516   3.162  20.118  0.00  0.00    +0.000 NA
ATOM     15  H   UNL     1      -0.329   3.735  20.191  0.00  0.00    +0.000 HD
ATOM     16  H   UNL     1       0.207   2.204  20.276  0.00  0.00    +0.000 HD
ENDBRANCH  12  14
ENDBRANCH   6  10
TORSDOF 2
ENDMDL
MODEL 5
REMARK VINA RESULT:      -5.5      1.603      1.920
REMARK  Name = 
REMARK  2 active torsions:
REMARK  status: ('A' for Active; 'I' for Inactive)
REMARK    1  A    between atoms: C_6  and  N_7
REMARK    2  A    between atoms: C_9  and  N_10
REMARK                            x       y       z     vdW  Elec       q    Type
REMARK                         _______ _______ _______ _____ _____    ______ ____
ROOT
ATOM      1  N   UNL     1       8.306   5.590  19.687  0.00  0.00    +0.000 N 
ATOM      2  C   UNL     1       7.276   5.206  18.846  0.00  0.00    +0.000 A 
ATOM      3  N   UNL     1       7.607   5.078  17.558  0.00  0.00    +0.000 NA
ATOM      4  C   UNL     1       6.658   4.592  16.759  0.00  0.00    +0.000 A 
ATOM      5  C   UNL     1       5.413   4.234  17.205  0.00  0.00    +0.000 A 
ATOM      6  C   UNL     1       5.134   4.448  18.540  0.00  0.00    +0.000 A 
ATOM      7  N   UNL     1       6.085   4.908  19.378  0.00  0.00    +0.000 NA
ATOM      8  H   UNL     1       9.180   5.417  19.211  0.00  0.00    +0.000 HD
ATOM      9  H   UNL     1       8.181   5.135  20.581  0.00  0.00    +0.000 HD
ENDROOT
BRANCH   6  10
ATOM     10  N   UNL     1       3.838   4.155  19.010  0.00  0.00    +0.000 N 
ATOM     11  C   UNL     1       3.040   3.001  18.718  0.00  0.00    +0.000 C 
ATOM     12  C   UNL     1       1.791   3.887  18.738  0.00  0.00    +0.000 C 
ATOM     13  C   UNL     1       2.723   5.051  19.116  0.00  0.00    +0.000 C 
BRANCH  12  14
ATOM     14  N   UNL     1       1.288   4.043  17.362  0.00  0.00    +0.000 NA
ATOM     15  H   UNL     1       0.267   4.069  17.301  0.00  0.00    +0.000 HD
ATOM     16  H   UNL     1       1.578   3.298  16.731  0.00  0.00    +0.000 HD
ENDBRANCH  12  14
ENDBRANCH   6  10
TORSDOF 2
ENDMDL
MODEL 6
REMARK VINA RESULT:      -5.5      2.332      2.786
REMARK  Name = 
REMARK  2 active torsions:
REMARK  status: ('A' for Active; 'I' for Inactive)
REMARK    1  A    between atoms: C_6  and  N_7
REMARK    2  A    between atoms: C_9  and  N_10
REMARK                            x       y       z     vdW  Elec       q    Type
REMARK                         _______ _______ _______ _____ _____    ______ ____
ROOT
ATOM      1  N   UNL     1       6.717   4.219  18.288  0.00  0.00    +0.000 N 
ATOM      2  C   UNL     1       5.453   4.783  18.305  0.00  0.00    +0.000 A 
ATOM      3  N   UNL     1       5.343   5.959  17.681  0.00  0.00    +0.000 NA
ATOM      4  C   UNL     1       4.110   6.454  17.584  0.00  0.00    +0.000 A 
ATOM      5  C   UNL     1       3.005   5.814  18.081  0.00  0.00    +0.000 A 
ATOM      6  C   UNL     1       3.211   4.630  18.759  0.00  0.00    +0.000 A 
ATOM      7  N   UNL     1       4.444   4.090  18.844  0.00  0.00    +0.000 NA
ATOM      8  H   UNL     1       7.249   4.666  17.555  0.00  0.00    +0.000 HD
ATOM      9  H   UNL     1       6.622   3.214  18.229  0.00  0.00    +0.000 HD
ENDROOT
BRANCH   6  10
ATOM     10  N   UNL     1       2.100   3.988  19.343  0.00  0.00    +0.000 N 
ATOM     11  C   UNL     1       1.323   4.429  20.463  0.00  0.00    +0.000 C 
ATOM     12  C   UNL     1       1.163   2.970  20.899  0.00  0.00    +0.000 C 
ATOM     13  C   UNL     1       1.951   2.591  19.632  0.00  0.00    +0.000 C 
BRANCH  12  14
ATOM     14  N   UNL     1       1.972   2.736  22.108  0.00  0.00    +0.000 NA
ATOM     15  H   UNL     1       1.426   2.399  22.905  0.00  0.00    +0.000 HD
ATOM     16  H   UNL     1       2.458   3.565  22.445  0.00  0.00    +0.000 HD
ENDBRANCH  12  14
ENDBRANCH   6  10
TORSDOF 2
ENDMDL
MODEL 7
REMARK VINA RESULT:      -5.5      1.782      4.824
REMARK  Name = 
REMARK  2 active torsions:
REMARK  status: ('A' for Active; 'I' for Inactive)
REMARK    1  A    between atoms: C_6  and  N_7
REMARK    2  A    between atoms: C_9  and  N_10
REMARK                            x       y       z     vdW  Elec       q    Type
REMARK                         _______ _______ _______ _____ _____    ______ ____
ROOT
ATOM      1  N   UNL     1       3.834   0.982  18.177  0.00  0.00    +0.000 N 
ATOM      2  C   UNL     1       3.409   2.282  17.970  0.00  0.00    +0.000 A 
ATOM      3  N   UNL     1       2.087   2.441  17.859  0.00  0.00    +0.000 NA
ATOM      4  C   UNL     1       1.656   3.699  17.781  0.00  0.00    +0.000 A 
ATOM      5  C   UNL     1       2.494   4.782  17.815  0.00  0.00    +0.000 A 
ATOM      6  C   UNL     1       3.850   4.530  17.877  0.00  0.00    +0.000 A 
ATOM      7  N   UNL     1       4.312   3.269  17.989  0.00  0.00    +0.000 NA
ATOM      8  H   UNL     1       3.043   0.441  18.497  0.00  0.00    +0.000 HD
ATOM      9  H   UNL     1       4.644   0.999  18.783  0.00  0.00    +0.000 HD
ENDROOT
BRANCH   6  10
ATOM     10  N   UNL     1       4.739   5.624  17.840  0.00  0.00    +0.000 N 
ATOM     11  C   UNL     1       4.969   6.528  16.752  0.00  0.00    +0.000 C 
ATOM     12  C   UNL     1       6.447   6.592  17.148  0.00  0.00    +0.000 C 
ATOM     13  C   UNL     1       6.087   5.671  18.327  0.00  0.00    +0.000 C 
BRANCH  12  14
ATOM     14  N   UNL     1       7.248   5.870  16.144  0.00  0.00    +0.000 NA
ATOM     15  H   UNL     1       8.053   6.403  15.804  0.00  0.00    +0.000 HD
ATOM     16  H   UNL     1       6.724   5.609  15.310  0.00  0.00    +0.000 HD
ENDBRANCH  12  14
ENDBRANCH   6  10
TORSDOF 2
ENDMDL
MODEL 8
REMARK VINA RESULT:      -5.5      2.133      2.718
REMARK  Name = 
REMARK  2 active torsions:
REMARK  status: ('A' for Active; 'I' for Inactive)
REMARK    1  A    between atoms: C_6  and  N_7
REMARK    2  A    between atoms: C_9  and  N_10
REMARK                            x       y       z     vdW  Elec       q    Type
REMARK                         _______ _______ _______ _____ _____    ______ ____
ROOT
ATOM      1  N   UNL     1       6.783   4.406  13.934  0.00  0.00    +0.000 N 
ATOM      2  C   UNL     1       6.610   4.768  15.258  0.00  0.00    +0.000 A 
ATOM      3  N   UNL     1       7.388   5.767  15.684  0.00  0.00    +0.000 NA
ATOM      4  C   UNL     1       7.148   6.206  16.919  0.00  0.00    +0.000 A 
ATOM      5  C   UNL     1       6.167   5.686  17.721  0.00  0.00    +0.000 A 
ATOM      6  C   UNL     1       5.443   4.620  17.227  0.00  0.00    +0.000 A 
ATOM      7  N   UNL     1       5.643   4.176  15.969  0.00  0.00    +0.000 NA
ATOM      8  H   UNL     1       7.258   5.162  13.462  0.00  0.00    +0.000 HD
ATOM      9  H   UNL     1       5.887   4.129  13.554  0.00  0.00    +0.000 HD
ENDROOT
BRANCH   6  10
ATOM     10  N   UNL     1       4.477   4.020  18.058  0.00  0.00    +0.000 N 
ATOM     11  C   UNL     1       4.388   4.088  19.487  0.00  0.00    +0.000 C 
ATOM     12  C   UNL     1       3.883   2.642  19.503  0.00  0.00    +0.000 C 
ATOM     13  C   UNL     1       3.949   2.690  17.966  0.00  0.00    +0.000 C 
BRANCH  12  14
ATOM     14  N   UNL     1       4.937   1.768  20.046  0.00  0.00    +0.000 NA
ATOM     15  H   UNL     1       5.876   2.013  19.723  0.00  0.00    +0.000 HD
ATOM     16  H   UNL     1       4.817   0.784  19.811  0.00  0.00    +0.000 HD
ENDBRANCH  12  14
ENDBRANCH   6  10
TORSDOF 2
ENDMDL
MODEL 9
REMARK VINA RESULT:      -5.5      1.887      2.491
REMARK  Name = 
REMARK  2 active torsions:
REMARK  status: ('A' for Active; 'I' for Inactive)
REMARK    1  A    between atoms: C_6  and  N_7
REMARK    2  A    between atoms: C_9  and  N_10
REMARK                            x       y       z     vdW  Elec       q    Type
REMARK                         _______ _______ _______ _____ _____    ______ ____
ROOT
ATOM      1  N   UNL     1       7.554   4.862  18.666  0.00  0.00    +0.000 N 
ATOM      2  C   UNL     1       6.246   4.634  18.278  0.00  0.00    +0.000 A 
ATOM      3  N   UNL     1       5.892   5.179  17.111  0.00  0.00    +0.000 NA
ATOM      4  C   UNL     1       4.675   4.867  16.667  0.00  0.00    +0.000 A 
ATOM      5  C   UNL     1       3.821   4.037  17.343  0.00  0.00    +0.000 A 
ATOM      6  C   UNL     1       4.241   3.559  18.567  0.00  0.00    +0.000 A 
ATOM      7  N   UNL     1       5.479   3.832  19.026  0.00  0.00    +0.000 NA
ATOM      8  H   UNL     1       8.076   5.152  17.852  0.00  0.00    +0.000 HD
ATOM      9  H   UNL     1       7.894   4.043  19.153  0.00  0.00    +0.000 HD
ENDROOT
BRANCH   6  10
ATOM     10  N   UNL     1       3.353   2.762  19.318  0.00  0.00    +0.000 N 
ATOM     11  C   UNL     1       2.094   2.222  18.898  0.00  0.00    +0.000 C 
ATOM     12  C   UNL     1       1.554   2.438  20.315  0.00  0.00    +0.000 C 
ATOM     13  C   UNL     1       2.961   2.940  20.686  0.00  0.00    +0.000 C 
BRANCH  12  14
ATOM     14  N   UNL     1       0.588   3.550  20.299  0.00  0.00    +0.000 NA
ATOM     15  H   UNL     1      -0.309   3.318  20.734  0.00  0.00    +0.000 HD
ATOM     16  H   UNL     1       0.358   3.882  19.364  0.00  0.00    +0.000 HD
ENDBRANCH  12  14
ENDBRANCH   6  10
TORSDOF 2
ENDMDL
