MODEL 1
REMARK VINA RESULT:      -5.8      0.000      0.000
REMARK  Name = 
REMARK  5 active torsions:
REMARK  status: ('A' for Active; 'I' for Inactive)
REMARK    1  A    between atoms: C_1  and  C_2
REMARK    2  A    between atoms: C_2  and  C_3
REMARK    3  A    between atoms: C_2  and  C_4
REMARK    4  A    between atoms: C_4  and  N_5
REMARK    5  A    between atoms: C_6  and  C_7
REMARK                            x       y       z     vdW  Elec       q    Type
REMARK                         _______ _______ _______ _____ _____    ______ ____
ROOT
ATOM      1  N   UNL     1      -3.819  12.305  19.643  0.00  0.00    +0.000 N 
ATOM      2  C   UNL     1      -2.834  12.477  20.628  0.00  0.00    +0.000 A 
ATOM      3  N   UNL     1      -1.602  12.081  20.487  0.00  0.00    +0.000 NA
ATOM      4  C   UNL     1      -1.179  11.409  19.373  0.00  0.00    +0.000 A 
ATOM      5  S   UNL     1       0.449  10.936  19.278  0.00  0.00    +0.000 S 
ATOM      6  C   UNL     1      -2.210  11.110  18.312  0.00  0.00    +0.000 A 
ATOM      7  C   UNL     1      -3.473  11.566  18.494  0.00  0.00    +0.000 A 
ATOM      8  C   UNL     1      -4.535  11.260  17.444  0.00  0.00    +0.000 C 
ATOM      9  C   UNL     1      -3.970  10.918  16.072  0.00  0.00    +0.000 C 
ATOM     10  C   UNL     1      -2.943   9.819  16.228  0.00  0.00    +0.000 C 
ATOM     11  C   UNL     1      -1.787  10.309  17.097  0.00  0.00    +0.000 C 
ENDROOT
BRANCH   2  12
ATOM     12  C   UNL     1      -3.108  13.151  21.937  0.00  0.00    +0.000 A 
ATOM     13  C   UNL     1      -3.417  12.400  23.082  0.00  0.00    +0.000 A 
ATOM     14  C   UNL     1      -3.765  12.990  24.277  0.00  0.00    +0.000 A 
ATOM     15  C   UNL     1      -3.727  14.350  24.350  0.00  0.00    +0.000 A 
ATOM     16  C   UNL     1      -3.350  15.139  23.273  0.00  0.00    +0.000 A 
ATOM     17  C   UNL     1      -3.043  14.535  22.056  0.00  0.00    +0.000 A 
ENDBRANCH   2  12
BRANCH   1  18
ATOM     18  C   UNL     1      -5.164  12.944  19.750  0.00  0.00    +0.000 C 
BRANCH  18  20
ATOM     19  C   UNL     1      -6.771  13.114  21.636  0.00  0.00    +0.000 C 
ATOM     20  C   UNL     1      -6.158  12.162  20.627  0.00  0.00    +0.000 C 
ATOM     21  C   UNL     1      -7.223  11.447  19.793  0.00  0.00    +0.000 C 
ENDBRANCH  18  20
ENDBRANCH   1  18
TORSDOF 3
ENDMDL
MODEL 2
REMARK VINA RESULT:      -5.7      0.079      1.052
REMARK  Name = 
REMARK  5 active torsions:
REMARK  status: ('A' for Active; 'I' for Inactive)
REMARK    1  A    between atoms: C_1  and  C_2
REMARK    2  A    between atoms: C_2  and  C_3
REMARK    3  A    between atoms: C_2  and  C_4
REMARK    4  A    between atoms: C_4  and  N_5
REMARK    5  A    between atoms: C_6  and  C_7
REMARK                            x       y       z     vdW  Elec       q    Type
REMARK                         _______ _______ _______ _____ _____    ______ ____
ROOT
ATOM      1  N   UNL     1      -3.796  12.314  19.649  0.00  0.00    +0.000 N 
ATOM      2  C   UNL     1      -2.825  12.485  20.647  0.00  0.00    +0.000 A 
ATOM      3  N   UNL     1      -1.592  12.086  20.526  0.00  0.00    +0.000 NA
ATOM      4  C   UNL     1      -1.154  11.409  19.420  0.00  0.00    +0.000 A 
ATOM      5  S   UNL     1       0.473  10.932  19.351  0.00  0.00    +0.000 S 
ATOM      6  C   UNL     1      -2.171  11.110  18.345  0.00  0.00    +0.000 A 
ATOM      7  C   UNL     1      -3.435  11.570  18.507  0.00  0.00    +0.000 A 
ATOM      8  C   UNL     1      -4.482  11.264  17.442  0.00  0.00    +0.000 C 
ATOM      9  C   UNL     1      -3.898  10.916  16.080  0.00  0.00    +0.000 C 
ATOM     10  C   UNL     1      -2.876   9.814  16.255  0.00  0.00    +0.000 C 
ATOM     11  C   UNL     1      -1.731  10.304  17.139  0.00  0.00    +0.000 C 
ENDROOT
BRANCH   2  12
ATOM     12  C   UNL     1      -3.116  13.165  21.950  0.00  0.00    +0.000 A 
ATOM     13  C   UNL     1      -3.063  14.563  22.059  0.00  0.00    +0.000 A 
ATOM     14  C   UNL     1      -3.233  15.215  23.260  0.00  0.00    +0.000 A 
ATOM     15  C   UNL     1      -3.537  14.462  24.355  0.00  0.00    +0.000 A 
ATOM     16  C   UNL     1      -3.681  13.084  24.289  0.00  0.00    +0.000 A 
ATOM     17  C   UNL     1      -3.463  12.430  23.079  0.00  0.00    +0.000 A 
ENDBRANCH   2  12
BRANCH   1  18
ATOM     18  C   UNL     1      -5.140  12.957  19.733  0.00  0.00    +0.000 C 
BRANCH  18  20
ATOM     19  C   UNL     1      -6.785  13.136  21.586  0.00  0.00    +0.000 C 
ATOM     20  C   UNL     1      -6.150  12.179  20.596  0.00  0.00    +0.000 C 
ATOM     21  C   UNL     1      -7.197  11.456  19.746  0.00  0.00    +0.000 C 
ENDBRANCH  18  20
ENDBRANCH   1  18
TORSDOF 3
ENDMDL
MODEL 3
REMARK VINA RESULT:      -5.6      2.011      3.591
REMARK  Name = 
REMARK  5 active torsions:
REMARK  status: ('A' for Active; 'I' for Inactive)
REMARK    1  A    between atoms: C_1  and  C_2
REMARK    2  A    between atoms: C_2  and  C_3
REMARK    3  A    between atoms: C_2  and  C_4
REMARK    4  A    between atoms: C_4  and  N_5
REMARK    5  A    between atoms: C_6  and  C_7
REMARK                            x       y       z     vdW  Elec       q    Type
REMARK                         _______ _______ _______ _____ _____    ______ ____
ROOT
ATOM      1  N   UNL     1      -2.485  12.131  19.911  0.00  0.00    +0.000 N 
ATOM      2  C   UNL     1      -3.550  12.696  20.628  0.00  0.00    +0.000 A 
ATOM      3  N   UNL     1      -4.783  12.686  20.210  0.00  0.00    +0.000 NA
ATOM      4  C   UNL     1      -5.132  12.163  18.994  0.00  0.00    +0.000 A 
ATOM      5  S   UNL     1      -6.766  12.191  18.537  0.00  0.00    +0.000 S 
ATOM      6  C   UNL     1      -4.020  11.621  18.130  0.00  0.00    +0.000 A 
ATOM      7  C   UNL     1      -2.757  11.631  18.622  0.00  0.00    +0.000 A 
ATOM      8  C   UNL     1      -1.616  11.105  17.758  0.00  0.00    +0.000 C 
ATOM      9  C   UNL     1      -2.062  10.164  16.648  0.00  0.00    +0.000 C 
ATOM     10  C   UNL     1      -3.160  10.835  15.852  0.00  0.00    +0.000 C 
ATOM     11  C   UNL     1      -4.367  11.097  16.750  0.00  0.00    +0.000 C 
ENDROOT
BRANCH   2  12
ATOM     12  C   UNL     1      -3.369  13.354  21.961  0.00  0.00    +0.000 A 
ATOM     13  C   UNL     1      -3.780  12.713  23.141  0.00  0.00    +0.000 A 
ATOM     14  C   UNL     1      -3.714  13.326  24.373  0.00  0.00    +0.000 A 
ATOM     15  C   UNL     1      -3.157  14.569  24.437  0.00  0.00    +0.000 A 
ATOM     16  C   UNL     1      -2.662  15.215  23.314  0.00  0.00    +0.000 A 
ATOM     17  C   UNL     1      -2.773  14.606  22.067  0.00  0.00    +0.000 A 
ENDBRANCH   2  12
BRANCH   1  18
ATOM     18  C   UNL     1      -1.124  11.981  20.504  0.00  0.00    +0.000 C 
BRANCH  18  20
ATOM     19  C   UNL     1       0.229   9.902  20.634  0.00  0.00    +0.000 C 
ATOM     20  C   UNL     1      -0.920  10.660  21.269  0.00  0.00    +0.000 C 
ATOM     21  C   UNL     1      -0.697  10.890  22.765  0.00  0.00    +0.000 C 
ENDBRANCH  18  20
ENDBRANCH   1  18
TORSDOF 3
ENDMDL
MODEL 4
REMARK VINA RESULT:      -5.6      2.019      3.732
REMARK  Name = 
REMARK  5 active torsions:
REMARK  status: ('A' for Active; 'I' for Inactive)
REMARK    1  A    between atoms: C_1  and  C_2
REMARK    2  A    between atoms: C_2  and  C_3
REMARK    3  A    between atoms: C_2  and  C_4
REMARK    4  A    between atoms: C_4  and  N_5
REMARK    5  A    between atoms: C_6  and  C_7
REMARK                            x       y       z     vdW  Elec       q    Type
REMARK                         _______ _______ _______ _____ _____    ______ ____
ROOT
ATOM      1  N   UNL     1      -2.477  12.130  19.912  0.00  0.00    +0.000 N 
ATOM      2  C   UNL     1      -3.554  12.691  20.615  0.00  0.00    +0.000 A 
ATOM      3  N   UNL     1      -4.782  12.670  20.183  0.00  0.00    +0.000 NA
ATOM      4  C   UNL     1      -5.114  12.138  18.967  0.00  0.00    +0.000 A 
ATOM      5  S   UNL     1      -6.744  12.152  18.492  0.00  0.00    +0.000 S 
ATOM      6  C   UNL     1      -3.989  11.598  18.118  0.00  0.00    +0.000 A 
ATOM      7  C   UNL     1      -2.732  11.620  18.624  0.00  0.00    +0.000 A 
ATOM      8  C   UNL     1      -1.578  11.096  17.776  0.00  0.00    +0.000 C 
ATOM      9  C   UNL     1      -2.006  10.145  16.666  0.00  0.00    +0.000 C 
ATOM     10  C   UNL     1      -3.100  10.804  15.854  0.00  0.00    +0.000 C 
ATOM     11  C   UNL     1      -4.318  11.063  16.738  0.00  0.00    +0.000 C 
ENDROOT
BRANCH   2  12
ATOM     12  C   UNL     1      -3.392  13.358  21.946  0.00  0.00    +0.000 A 
ATOM     13  C   UNL     1      -2.787  14.621  22.048  0.00  0.00    +0.000 A 
ATOM     14  C   UNL     1      -2.537  15.221  23.263  0.00  0.00    +0.000 A 
ATOM     15  C   UNL     1      -2.970  14.586  24.388  0.00  0.00    +0.000 A 
ATOM     16  C   UNL     1      -3.646  13.375  24.340  0.00  0.00    +0.000 A 
ATOM     17  C   UNL     1      -3.853  12.754  23.111  0.00  0.00    +0.000 A 
ENDBRANCH   2  12
BRANCH   1  18
ATOM     18  C   UNL     1      -1.122  11.992  20.521  0.00  0.00    +0.000 C 
BRANCH  18  20
ATOM     19  C   UNL     1       0.262   9.937  20.703  0.00  0.00    +0.000 C 
ATOM     20  C   UNL     1      -0.918  10.679  21.299  0.00  0.00    +0.000 C 
ATOM     21  C   UNL     1      -0.745  10.920  22.800  0.00  0.00    +0.000 C 
ENDBRANCH  18  20
ENDBRANCH   1  18
TORSDOF 3
ENDMDL
MODEL 5
REMARK VINA RESULT:      -5.6      6.275      9.298
REMARK  Name = 
REMARK  5 active torsions:
REMARK  status: ('A' for Active; 'I' for Inactive)
REMARK    1  A    between atoms: C_1  and  C_2
REMARK    2  A    between atoms: C_2  and  C_3
REMARK    3  A    between atoms: C_2  and  C_4
REMARK    4  A    between atoms: C_4  and  N_5
REMARK    5  A    between atoms: C_6  and  C_7
REMARK                            x       y       z     vdW  Elec       q    Type
REMARK                         _______ _______ _______ _____ _____    ______ ____
ROOT
ATOM      1  N   UNL     1       1.885   7.198  19.187  0.00  0.00    +0.000 N 
ATOM      2  C   UNL     1       1.418   6.536  20.332  0.00  0.00    +0.000 A 
ATOM      3  N   UNL     1       0.785   7.135  21.300  0.00  0.00    +0.000 NA
ATOM      4  C   UNL     1       0.570   8.486  21.298  0.00  0.00    +0.000 A 
ATOM      5  S   UNL     1      -0.270   9.176  22.602  0.00  0.00    +0.000 S 
ATOM      6  C   UNL     1       1.126   9.274  20.137  0.00  0.00    +0.000 A 
ATOM      7  C   UNL     1       1.755   8.600  19.144  0.00  0.00    +0.000 A 
ATOM      8  C   UNL     1       2.340   9.378  17.970  0.00  0.00    +0.000 C 
ATOM      9  C   UNL     1       1.729  10.759  17.775  0.00  0.00    +0.000 C 
ATOM     10  C   UNL     1       1.791  11.510  19.087  0.00  0.00    +0.000 C 
ATOM     11  C   UNL     1       0.962  10.781  20.142  0.00  0.00    +0.000 C 
ENDROOT
BRANCH   2  12
ATOM     12  C   UNL     1       1.592   5.064  20.543  0.00  0.00    +0.000 A 
ATOM     13  C   UNL     1       0.813   4.138  19.831  0.00  0.00    +0.000 A 
ATOM     14  C   UNL     1       0.881   2.783  20.068  0.00  0.00    +0.000 A 
ATOM     15  C   UNL     1       1.798   2.340  20.974  0.00  0.00    +0.000 A 
ATOM     16  C   UNL     1       2.650   3.203  21.647  0.00  0.00    +0.000 A 
ATOM     17  C   UNL     1       2.543   4.575  21.434  0.00  0.00    +0.000 A 
ENDBRANCH   2  12
BRANCH   1  18
ATOM     18  C   UNL     1       2.425   6.456  18.010  0.00  0.00    +0.000 C 
BRANCH  18  20
ATOM     19  C   UNL     1       4.034   4.564  17.963  0.00  0.00    +0.000 C 
ATOM     20  C   UNL     1       3.907   6.063  18.147  0.00  0.00    +0.000 C 
ATOM     21  C   UNL     1       4.801   6.837  17.175  0.00  0.00    +0.000 C 
ENDBRANCH  18  20
ENDBRANCH   1  18
TORSDOF 3
ENDMDL
MODEL 6
REMARK VINA RESULT:      -5.5      6.278      9.304
REMARK  Name = 
REMARK  5 active torsions:
REMARK  status: ('A' for Active; 'I' for Inactive)
REMARK    1  A    between atoms: C_1  and  C_2
REMARK    2  A    between atoms: C_2  and  C_3
REMARK    3  A    between atoms: C_2  and  C_4
REMARK    4  A    between atoms: C_4  and  N_5
REMARK    5  A    between atoms: C_6  and  C_7
REMARK                            x       y       z     vdW  Elec       q    Type
REMARK                         _______ _______ _______ _____ _____    ______ ____
ROOT
ATOM      1  N   UNL     1       1.868   7.193  19.193  0.00  0.00    +0.000 N 
ATOM      2  C   UNL     1       1.401   6.537  20.342  0.00  0.00    +0.000 A 
ATOM      3  N   UNL     1       0.781   7.143  21.313  0.00  0.00    +0.000 NA
ATOM      4  C   UNL     1       0.582   8.497  21.312  0.00  0.00    +0.000 A 
ATOM      5  S   UNL     1      -0.241   9.198  22.621  0.00  0.00    +0.000 S 
ATOM      6  C   UNL     1       1.140   9.278  20.148  0.00  0.00    +0.000 A 
ATOM      7  C   UNL     1       1.754   8.597  19.150  0.00  0.00    +0.000 A 
ATOM      8  C   UNL     1       2.342   9.367  17.973  0.00  0.00    +0.000 C 
ATOM      9  C   UNL     1       1.746  10.755  17.781  0.00  0.00    +0.000 C 
ATOM     10  C   UNL     1       1.825  11.506  19.092  0.00  0.00    +0.000 C 
ATOM     11  C   UNL     1       0.994  10.787  20.153  0.00  0.00    +0.000 C 
ENDROOT
BRANCH   2  12
ATOM     12  C   UNL     1       1.559   5.063  20.552  0.00  0.00    +0.000 A 
ATOM     13  C   UNL     1       2.547   4.561  21.413  0.00  0.00    +0.000 A 
ATOM     14  C   UNL     1       2.781   3.211  21.558  0.00  0.00    +0.000 A 
ATOM     15  C   UNL     1       1.963   2.348  20.892  0.00  0.00    +0.000 A 
ATOM     16  C   UNL     1       0.919   2.788  20.091  0.00  0.00    +0.000 A 
ATOM     17  C   UNL     1       0.719   4.154  19.916  0.00  0.00    +0.000 A 
ENDBRANCH   2  12
BRANCH   1  18
ATOM     18  C   UNL     1       2.392   6.445  18.013  0.00  0.00    +0.000 C 
BRANCH  18  20
ATOM     19  C   UNL     1       3.947   4.512  17.895  0.00  0.00    +0.000 C 
ATOM     20  C   UNL     1       3.860   6.002  18.156  0.00  0.00    +0.000 C 
ATOM     21  C   UNL     1       4.793   6.800  17.244  0.00  0.00    +0.000 C 
ENDBRANCH  18  20
ENDBRANCH   1  18
TORSDOF 3
ENDMDL
MODEL 7
REMARK VINA RESULT:      -5.4      2.285      4.922
REMARK  Name = 
REMARK  5 active torsions:
REMARK  status: ('A' for Active; 'I' for Inactive)
REMARK    1  A    between atoms: C_1  and  C_2
REMARK    2  A    between atoms: C_2  and  C_3
REMARK    3  A    between atoms: C_2  and  C_4
REMARK    4  A    between atoms: C_4  and  N_5
REMARK    5  A    between atoms: C_6  and  C_7
REMARK                            x       y       z     vdW  Elec       q    Type
REMARK                         _______ _______ _______ _____ _____    ______ ____
ROOT
ATOM      1  N   UNL     1      -3.139  12.163  18.984  0.00  0.00    +0.000 N 
ATOM      2  C   UNL     1      -2.397  12.632  20.079  0.00  0.00    +0.000 A 
ATOM      3  N   UNL     1      -2.920  12.887  21.244  0.00  0.00    +0.000 NA
ATOM      4  C   UNL     1      -4.262  12.766  21.479  0.00  0.00    +0.000 A 
ATOM      5  S   UNL     1      -4.850  13.116  23.032  0.00  0.00    +0.000 S 
ATOM      6  C   UNL     1      -5.133  12.353  20.317  0.00  0.00    +0.000 A 
ATOM      7  C   UNL     1      -4.537  12.074  19.132  0.00  0.00    +0.000 A 
ATOM      8  C   UNL     1      -5.400  11.673  17.941  0.00  0.00    +0.000 C 
ATOM      9  C   UNL     1      -6.772  11.136  18.322  0.00  0.00    +0.000 C 
ATOM     10  C   UNL     1      -7.445  12.128  19.245  0.00  0.00    +0.000 C 
ATOM     11  C   UNL     1      -6.632  12.276  20.529  0.00  0.00    +0.000 C 
ENDROOT
BRANCH   2  12
ATOM     12  C   UNL     1      -0.920  12.870  20.013  0.00  0.00    +0.000 A 
ATOM     13  C   UNL     1      -0.395  13.930  19.257  0.00  0.00    +0.000 A 
ATOM     14  C   UNL     1       0.960  14.121  19.098  0.00  0.00    +0.000 A 
ATOM     15  C   UNL     1       1.803  13.287  19.770  0.00  0.00    +0.000 A 
ATOM     16  C   UNL     1       1.339  12.273  20.596  0.00  0.00    +0.000 A 
ATOM     17  C   UNL     1      -0.032  12.060  20.714  0.00  0.00    +0.000 A 
ENDBRANCH   2  12
BRANCH   1  18
ATOM     18  C   UNL     1      -2.484  11.691  17.729  0.00  0.00    +0.000 C 
BRANCH  18  20
ATOM     19  C   UNL     1      -2.747   9.574  16.458  0.00  0.00    +0.000 C 
ATOM     20  C   UNL     1      -2.169  10.184  17.719  0.00  0.00    +0.000 C 
ATOM     21  C   UNL     1      -0.670   9.909  17.853  0.00  0.00    +0.000 C 
ENDBRANCH  18  20
ENDBRANCH   1  18
TORSDOF 3
ENDMDL
MODEL 8
REMARK VINA RESULT:      -5.4      2.061      3.763
REMARK  Name = 
REMARK  5 active torsions:
REMARK  status: ('A' for Active; 'I' for Inactive)
REMARK    1  A    between atoms: C_1  and  C_2
REMARK    2  A    between atoms: C_2  and  C_3
REMARK    3  A    between atoms: C_2  and  C_4
REMARK    4  A    between atoms: C_4  and  N_5
REMARK    5  A    between atoms: C_6  and  C_7
REMARK                            x       y       z     vdW  Elec       q    Type
REMARK                         _______ _______ _______ _____ _____    ______ ____
ROOT
ATOM      1  N   UNL     1      -2.769  12.103  19.801  0.00  0.00    +0.000 N 
ATOM      2  C   UNL     1      -3.870  12.716  20.419  0.00  0.00    +0.000 A 
ATOM      3  N   UNL     1      -5.063  12.742  19.898  0.00  0.00    +0.000 NA
ATOM      4  C   UNL     1      -5.327  12.213  18.664  0.00  0.00    +0.000 A 
ATOM      5  S   UNL     1      -6.915  12.291  18.069  0.00  0.00    +0.000 S 
ATOM      6  C   UNL     1      -4.166  11.619  17.903  0.00  0.00    +0.000 A 
ATOM      7  C   UNL     1      -2.950  11.592  18.501  0.00  0.00    +0.000 A 
ATOM      8  C   UNL     1      -1.760  11.013  17.743  0.00  0.00    +0.000 C 
ATOM      9  C   UNL     1      -2.145  10.071  16.611  0.00  0.00    +0.000 C 
ATOM     10  C   UNL     1      -3.147  10.768  15.716  0.00  0.00    +0.000 C 
ATOM     11  C   UNL     1      -4.415  11.086  16.506  0.00  0.00    +0.000 C 
ENDROOT
BRANCH   2  12
ATOM     12  C   UNL     1      -3.778  13.387  21.754  0.00  0.00    +0.000 A 
ATOM     13  C   UNL     1      -3.625  14.779  21.850  0.00  0.00    +0.000 A 
ATOM     14  C   UNL     1      -3.444  15.419  23.057  0.00  0.00    +0.000 A 
ATOM     15  C   UNL     1      -3.494  14.664  24.191  0.00  0.00    +0.000 A 
ATOM     16  C   UNL     1      -3.723  13.296  24.160  0.00  0.00    +0.000 A 
ATOM     17  C   UNL     1      -3.861  12.653  22.933  0.00  0.00    +0.000 A 
ENDBRANCH   2  12
BRANCH   1  18
ATOM     18  C   UNL     1      -1.469  11.914  20.509  0.00  0.00    +0.000 C 
BRANCH  18  20
ATOM     19  C   UNL     1      -0.123  13.446  21.927  0.00  0.00    +0.000 C 
ATOM     20  C   UNL     1      -0.570  13.163  20.507  0.00  0.00    +0.000 C 
ATOM     21  C   UNL     1       0.616  13.017  19.551  0.00  0.00    +0.000 C 
ENDBRANCH  18  20
ENDBRANCH   1  18
TORSDOF 3
ENDMDL
MODEL 9
REMARK VINA RESULT:      -5.4      2.274      4.812
REMARK  Name = 
REMARK  5 active torsions:
REMARK  status: ('A' for Active; 'I' for Inactive)
REMARK    1  A    between atoms: C_1  and  C_2
REMARK    2  A    between atoms: C_2  and  C_3
REMARK    3  A    between atoms: C_2  and  C_4
REMARK    4  A    between atoms: C_4  and  N_5
REMARK    5  A    between atoms: C_6  and  C_7
REMARK                            x       y       z     vdW  Elec       q    Type
REMARK                         _______ _______ _______ _____ _____    ______ ____
ROOT
ATOM      1  N   UNL     1      -3.145  12.144  18.928  0.00  0.00    +0.000 N 
ATOM      2  C   UNL     1      -2.394  12.615  20.015  0.00  0.00    +0.000 A 
ATOM      3  N   UNL     1      -2.908  12.880  21.182  0.00  0.00    +0.000 NA
ATOM      4  C   UNL     1      -4.250  12.767  21.425  0.00  0.00    +0.000 A 
ATOM      5  S   UNL     1      -4.827  13.130  22.980  0.00  0.00    +0.000 S 
ATOM      6  C   UNL     1      -5.130  12.353  20.271  0.00  0.00    +0.000 A 
ATOM      7  C   UNL     1      -4.544  12.064  19.084  0.00  0.00    +0.000 A 
ATOM      8  C   UNL     1      -5.415  11.661  17.900  0.00  0.00    +0.000 C 
ATOM      9  C   UNL     1      -6.789  11.134  18.293  0.00  0.00    +0.000 C 
ATOM     10  C   UNL     1      -7.450  12.135  19.214  0.00  0.00    +0.000 C 
ATOM     11  C   UNL     1      -6.628  12.286  20.492  0.00  0.00    +0.000 C 
ENDROOT
BRANCH   2  12
ATOM     12  C   UNL     1      -0.917  12.844  19.939  0.00  0.00    +0.000 A 
ATOM     13  C   UNL     1      -0.021  11.981  20.590  0.00  0.00    +0.000 A 
ATOM     14  C   UNL     1       1.336  12.214  20.619  0.00  0.00    +0.000 A 
ATOM     15  C   UNL     1       1.814  13.283  19.921  0.00  0.00    +0.000 A 
ATOM     16  C   UNL     1       0.983  14.122  19.193  0.00  0.00    +0.000 A 
ATOM     17  C   UNL     1      -0.392  13.904  19.207  0.00  0.00    +0.000 A 
ENDBRANCH   2  12
BRANCH   1  18
ATOM     18  C   UNL     1      -2.501  11.661  17.671  0.00  0.00    +0.000 C 
BRANCH  18  20
ATOM     19  C   UNL     1      -2.792   9.538  16.416  0.00  0.00    +0.000 C 
ATOM     20  C   UNL     1      -2.196  10.152  17.667  0.00  0.00    +0.000 C 
ATOM     21  C   UNL     1      -0.698   9.867  17.787  0.00  0.00    +0.000 C 
ENDBRANCH  18  20
ENDBRANCH   1  18
TORSDOF 3
ENDMDL
