MODEL 1
REMARK VINA RESULT:      -7.3      0.000      0.000
REMARK  Name = 
REMARK  11 active torsions:
REMARK  status: ('A' for Active; 'I' for Inactive)
REMARK    1  A    between atoms: C_1  and  O_2
REMARK    2  A    between atoms: O_2  and  C_3
REMARK    3  A    between atoms: C_3  and  C_4
REMARK    4  A    between atoms: C_4  and  C_5
REMARK    5  A    between atoms: C_5  and  C_6
REMARK    6  A    between atoms: C_5  and  C_25
REMARK    7  A    between atoms: C_6  and  C_7
REMARK    8  A    between atoms: C_7  and  C_8
REMARK    9  A    between atoms: N_10  and  C_11
REMARK   10  A    between atoms: C_13  and  C_14
REMARK   11  A    between atoms: C_25  and  O_27
REMARK                            x       y       z     vdW  Elec       q    Type
REMARK                         _______ _______ _______ _____ _____    ______ ____
ROOT
ATOM      1  C   UNL     1       4.907   4.899  17.285  0.00  0.00    +0.000 C 
ATOM      2  C   UNL     1       6.421   4.705  17.621  0.00  0.00    +0.000 C 
ATOM      3  C   UNL     1       7.190   4.567  16.317  0.00  0.00    +0.000 C 
ATOM      4  C   UNL     1       6.175   4.491  15.197  0.00  0.00    +0.000 C 
ATOM      5  C   UNL     1       4.807   4.378  15.844  0.00  0.00    +0.000 C 
ENDROOT
BRANCH   1   6
ATOM      6  C   UNL     1       4.549   6.401  17.496  0.00  0.00    +0.000 C 
ATOM      7  O   UNL     1       5.430   7.263  17.474  0.00  0.00    +0.000 OA
ATOM      8  N   UNL     1       3.246   6.703  17.846  0.00  0.00    +0.000 N 
ATOM      9  H   UNL     1       2.641   5.952  18.154  0.00  0.00    +0.000 HD
BRANCH   8  10
ATOM     10  C   UNL     1       2.885   8.004  18.360  0.00  0.00    +0.000 C 
ATOM     11  C   UNL     1       2.484   9.154  17.488  0.00  0.00    +0.000 C 
ATOM     12  C   UNL     1       1.432   8.470  18.323  0.00  0.00    +0.000 C 
BRANCH  12  13
ATOM     13  C   UNL     1       0.844   9.147  19.545  0.00  0.00    +0.000 A 
ATOM     14  C   UNL     1       0.962   8.601  20.836  0.00  0.00    +0.000 A 
ATOM     15  C   UNL     1       0.388   9.228  21.950  0.00  0.00    +0.000 A 
ATOM     16  C   UNL     1      -0.307  10.422  21.791  0.00  0.00    +0.000 A 
ATOM     17 CL   UNL     1      -1.051  11.174  23.148  0.00  0.00    +0.000 Cl
ATOM     18  C   UNL     1      -0.410  11.006  20.535  0.00  0.00    +0.000 A 
ATOM     19  C   UNL     1       0.167  10.374  19.428  0.00  0.00    +0.000 A 
ENDBRANCH  12  13
ENDBRANCH   8  10
ENDBRANCH   1   6
BRANCH   1  20
ATOM     20  C   UNL     1       4.124   3.996  18.299  0.00  0.00    +0.000 C 
BRANCH  20  21
ATOM     21  C   UNL     1       2.800   3.293  17.942  0.00  0.00    +0.000 C 
BRANCH  21  22
ATOM     22  C   UNL     1       2.774   1.821  18.326  0.00  0.00    +0.000 C 
ATOM     23  O   UNL     1       3.761   1.090  18.287  0.00  0.00    +0.000 OA
BRANCH  22  24
ATOM     24  O   UNL     1       1.580   1.353  18.733  0.00  0.00    +0.000 OA
ATOM     25  H   UNL     1       1.364   1.481  19.677  0.00  0.00    +0.000 HD
ENDBRANCH  22  24
ENDBRANCH  21  22
BRANCH  21  26
ATOM     26  C   UNL     1       1.509   3.978  18.450  0.00  0.00    +0.000 C 
BRANCH  26  27
ATOM     27  C   UNL     1       1.525   4.500  19.886  0.00  0.00    +0.000 C 
BRANCH  27  29
ATOM     28  C   UNL     1       2.056   3.197  21.766  0.00  0.00    +0.000 C 
ATOM     29  O   UNL     1       1.061   3.506  20.792  0.00  0.00    +0.000 OA
ENDBRANCH  27  29
ENDBRANCH  26  27
ENDBRANCH  21  26
ENDBRANCH  20  21
ENDBRANCH   1  20
TORSDOF 10
ENDMDL
MODEL 2
REMARK VINA RESULT:      -7.3      2.739      4.853
REMARK  Name = 
REMARK  11 active torsions:
REMARK  status: ('A' for Active; 'I' for Inactive)
REMARK    1  A    between atoms: C_1  and  O_2
REMARK    2  A    between atoms: O_2  and  C_3
REMARK    3  A    between atoms: C_3  and  C_4
REMARK    4  A    between atoms: C_4  and  C_5
REMARK    5  A    between atoms: C_5  and  C_6
REMARK    6  A    between atoms: C_5  and  C_25
REMARK    7  A    between atoms: C_6  and  C_7
REMARK    8  A    between atoms: C_7  and  C_8
REMARK    9  A    between atoms: N_10  and  C_11
REMARK   10  A    between atoms: C_13  and  C_14
REMARK   11  A    between atoms: C_25  and  O_27
REMARK                            x       y       z     vdW  Elec       q    Type
REMARK                         _______ _______ _______ _____ _____    ______ ____
ROOT
ATOM      1  C   UNL     1       2.991   5.813  18.804  0.00  0.00    +0.000 C 
ATOM      2  C   UNL     1       1.971   5.074  17.879  0.00  0.00    +0.000 C 
ATOM      3  C   UNL     1       1.481   3.828  18.601  0.00  0.00    +0.000 C 
ATOM      4  C   UNL     1       2.300   3.684  19.864  0.00  0.00    +0.000 C 
ATOM      5  C   UNL     1       3.409   4.718  19.796  0.00  0.00    +0.000 C 
ENDROOT
BRANCH   1   6
ATOM      6  C   UNL     1       2.280   7.056  19.418  0.00  0.00    +0.000 C 
ATOM      7  O   UNL     1       1.788   7.002  20.547  0.00  0.00    +0.000 OA
ATOM      8  N   UNL     1       2.100   8.156  18.600  0.00  0.00    +0.000 N 
ATOM      9  H   UNL     1       2.237   8.045  17.602  0.00  0.00    +0.000 HD
BRANCH   8  10
ATOM     10  C   UNL     1       1.196   9.225  18.959  0.00  0.00    +0.000 C 
ATOM     11  C   UNL     1       1.556  10.676  18.866  0.00  0.00    +0.000 C 
ATOM     12  C   UNL     1       0.573  10.102  17.877  0.00  0.00    +0.000 C 
BRANCH  12  13
ATOM     13  C   UNL     1      -0.903  10.438  17.959  0.00  0.00    +0.000 A 
ATOM     14  C   UNL     1      -1.869   9.765  17.189  0.00  0.00    +0.000 A 
ATOM     15  C   UNL     1      -3.227  10.109  17.258  0.00  0.00    +0.000 A 
ATOM     16  C   UNL     1      -3.641  11.125  18.111  0.00  0.00    +0.000 A 
ATOM     17 CL   UNL     1      -5.300  11.580  18.169  0.00  0.00    +0.000 Cl
ATOM     18  C   UNL     1      -2.716  11.784  18.911  0.00  0.00    +0.000 A 
ATOM     19  C   UNL     1      -1.363  11.435  18.837  0.00  0.00    +0.000 A 
ENDBRANCH  12  13
ENDBRANCH   8  10
ENDBRANCH   1   6
BRANCH   1  20
ATOM     20  C   UNL     1       4.171   6.254  17.873  0.00  0.00    +0.000 C 
BRANCH  20  21
ATOM     21  C   UNL     1       4.769   5.335  16.789  0.00  0.00    +0.000 C 
BRANCH  21  22
ATOM     22  C   UNL     1       5.317   6.092  15.589  0.00  0.00    +0.000 C 
ATOM     23  O   UNL     1       4.865   7.165  15.198  0.00  0.00    +0.000 OA
BRANCH  22  24
ATOM     24  O   UNL     1       6.360   5.511  14.969  0.00  0.00    +0.000 OA
ATOM     25  H   UNL     1       6.378   4.535  14.975  0.00  0.00    +0.000 HD
ENDBRANCH  22  24
ENDBRANCH  21  22
BRANCH  21  26
ATOM     26  C   UNL     1       5.821   4.310  17.273  0.00  0.00    +0.000 C 
BRANCH  26  27
ATOM     27  C   UNL     1       6.839   4.801  18.302  0.00  0.00    +0.000 C 
BRANCH  27  29
ATOM     28  C   UNL     1       7.836   6.924  18.202  0.00  0.00    +0.000 C 
ATOM     29  O   UNL     1       7.843   5.596  17.683  0.00  0.00    +0.000 OA
ENDBRANCH  27  29
ENDBRANCH  26  27
ENDBRANCH  21  26
ENDBRANCH  20  21
ENDBRANCH   1  20
TORSDOF 10
ENDMDL
MODEL 3
REMARK VINA RESULT:      -7.3      2.355      4.642
REMARK  Name = 
REMARK  11 active torsions:
REMARK  status: ('A' for Active; 'I' for Inactive)
REMARK    1  A    between atoms: C_1  and  O_2
REMARK    2  A    between atoms: O_2  and  C_3
REMARK    3  A    between atoms: C_3  and  C_4
REMARK    4  A    between atoms: C_4  and  C_5
REMARK    5  A    between atoms: C_5  and  C_6
REMARK    6  A    between atoms: C_5  and  C_25
REMARK    7  A    between atoms: C_6  and  C_7
REMARK    8  A    between atoms: C_7  and  C_8
REMARK    9  A    between atoms: N_10  and  C_11
REMARK   10  A    between atoms: C_13  and  C_14
REMARK   11  A    between atoms: C_25  and  O_27
REMARK                            x       y       z     vdW  Elec       q    Type
REMARK                         _______ _______ _______ _____ _____    ______ ____
ROOT
ATOM      1  C   UNL     1       3.307   4.230  18.225  0.00  0.00    +0.000 C 
ATOM      2  C   UNL     1       1.954   3.905  17.513  0.00  0.00    +0.000 C 
ATOM      3  C   UNL     1       1.085   3.107  18.471  0.00  0.00    +0.000 C 
ATOM      4  C   UNL     1       1.929   2.780  19.684  0.00  0.00    +0.000 C 
ATOM      5  C   UNL     1       3.351   3.200  19.363  0.00  0.00    +0.000 C 
ENDROOT
BRANCH   1   6
ATOM      6  C   UNL     1       3.282   5.727  18.657  0.00  0.00    +0.000 C 
ATOM      7  O   UNL     1       3.911   6.103  19.648  0.00  0.00    +0.000 OA
ATOM      8  N   UNL     1       2.425   6.573  17.978  0.00  0.00    +0.000 N 
ATOM      9  H   UNL     1       1.709   6.165  17.388  0.00  0.00    +0.000 HD
BRANCH   8  10
ATOM     10  C   UNL     1       2.096   7.884  18.488  0.00  0.00    +0.000 C 
ATOM     11  C   UNL     1       2.873   9.119  18.148  0.00  0.00    +0.000 C 
ATOM     12  C   UNL     1       1.494   8.940  17.565  0.00  0.00    +0.000 C 
BRANCH  12  13
ATOM     13  C   UNL     1       0.325   9.769  18.058  0.00  0.00    +0.000 A 
ATOM     14  C   UNL     1       0.470  10.759  19.046  0.00  0.00    +0.000 A 
ATOM     15  C   UNL     1      -0.628  11.497  19.509  0.00  0.00    +0.000 A 
ATOM     16  C   UNL     1      -1.892  11.263  18.979  0.00  0.00    +0.000 A 
ATOM     17 CL   UNL     1      -3.251  12.135  19.573  0.00  0.00    +0.000 Cl
ATOM     18  C   UNL     1      -2.063  10.317  17.976  0.00  0.00    +0.000 A 
ATOM     19  C   UNL     1      -0.961   9.586  17.519  0.00  0.00    +0.000 A 
ENDBRANCH  12  13
ENDBRANCH   8  10
ENDBRANCH   1   6
BRANCH   1  20
ATOM     20  C   UNL     1       4.425   3.981  17.154  0.00  0.00    +0.000 C 
BRANCH  20  21
ATOM     21  C   UNL     1       5.599   4.955  16.931  0.00  0.00    +0.000 C 
BRANCH  21  22
ATOM     22  C   UNL     1       6.853   4.577  17.705  0.00  0.00    +0.000 C 
ATOM     23  O   UNL     1       6.938   4.631  18.930  0.00  0.00    +0.000 OA
BRANCH  22  24
ATOM     24  O   UNL     1       7.888   4.159  16.955  0.00  0.00    +0.000 OA
ATOM     25  H   UNL     1       7.665   3.632  16.164  0.00  0.00    +0.000 HD
ENDBRANCH  22  24
ENDBRANCH  21  22
BRANCH  21  26
ATOM     26  C   UNL     1       5.973   5.241  15.458  0.00  0.00    +0.000 C 
BRANCH  26  27
ATOM     27  C   UNL     1       5.446   4.261  14.410  0.00  0.00    +0.000 C 
BRANCH  27  29
ATOM     28  C   UNL     1       5.977   3.297  12.336  0.00  0.00    +0.000 C 
ATOM     29  O   UNL     1       6.496   3.817  13.558  0.00  0.00    +0.000 OA
ENDBRANCH  27  29
ENDBRANCH  26  27
ENDBRANCH  21  26
ENDBRANCH  20  21
ENDBRANCH   1  20
TORSDOF 10
ENDMDL
MODEL 4
REMARK VINA RESULT:      -7.3      1.849      4.338
REMARK  Name = 
REMARK  11 active torsions:
REMARK  status: ('A' for Active; 'I' for Inactive)
REMARK    1  A    between atoms: C_1  and  O_2
REMARK    2  A    between atoms: O_2  and  C_3
REMARK    3  A    between atoms: C_3  and  C_4
REMARK    4  A    between atoms: C_4  and  C_5
REMARK    5  A    between atoms: C_5  and  C_6
REMARK    6  A    between atoms: C_5  and  C_25
REMARK    7  A    between atoms: C_6  and  C_7
REMARK    8  A    between atoms: C_7  and  C_8
REMARK    9  A    between atoms: N_10  and  C_11
REMARK   10  A    between atoms: C_13  and  C_14
REMARK   11  A    between atoms: C_25  and  O_27
REMARK                            x       y       z     vdW  Elec       q    Type
REMARK                         _______ _______ _______ _____ _____    ______ ____
ROOT
ATOM      1  C   UNL     1       3.394   4.045  18.110  0.00  0.00    +0.000 C 
ATOM      2  C   UNL     1       2.004   3.866  17.418  0.00  0.00    +0.000 C 
ATOM      3  C   UNL     1       1.135   2.988  18.304  0.00  0.00    +0.000 C 
ATOM      4  C   UNL     1       2.005   2.477  19.431  0.00  0.00    +0.000 C 
ATOM      5  C   UNL     1       3.433   2.878  19.107  0.00  0.00    +0.000 C 
ENDROOT
BRANCH   1   6
ATOM      6  C   UNL     1       3.451   5.475  18.727  0.00  0.00    +0.000 C 
ATOM      7  O   UNL     1       3.803   5.638  19.897  0.00  0.00    +0.000 OA
ATOM      8  N   UNL     1       2.959   6.519  17.964  0.00  0.00    +0.000 N 
ATOM      9  H   UNL     1       2.401   6.300  17.147  0.00  0.00    +0.000 HD
BRANCH   8  10
ATOM     10  C   UNL     1       2.680   7.812  18.544  0.00  0.00    +0.000 C 
ATOM     11  C   UNL     1       2.401   9.038  17.730  0.00  0.00    +0.000 C 
ATOM     12  C   UNL     1       1.270   8.392  18.490  0.00  0.00    +0.000 C 
BRANCH  12  13
ATOM     13  C   UNL     1       0.691   9.042  19.731  0.00  0.00    +0.000 A 
ATOM     14  C   UNL     1       0.648   8.382  20.972  0.00  0.00    +0.000 A 
ATOM     15  C   UNL     1       0.084   8.989  22.103  0.00  0.00    +0.000 A 
ATOM     16  C   UNL     1      -0.436  10.275  22.012  0.00  0.00    +0.000 A 
ATOM     17 CL   UNL     1      -1.169  11.009  23.385  0.00  0.00    +0.000 Cl
ATOM     18  C   UNL     1      -0.377  10.967  20.808  0.00  0.00    +0.000 A 
ATOM     19  C   UNL     1       0.189  10.355  19.685  0.00  0.00    +0.000 A 
ENDBRANCH  12  13
ENDBRANCH   8  10
ENDBRANCH   1   6
BRANCH   1  20
ATOM     20  C   UNL     1       4.461   3.891  16.972  0.00  0.00    +0.000 C 
BRANCH  20  21
ATOM     21  C   UNL     1       5.625   4.882  16.779  0.00  0.00    +0.000 C 
BRANCH  21  22
ATOM     22  C   UNL     1       6.839   4.565  17.640  0.00  0.00    +0.000 C 
ATOM     23  O   UNL     1       7.991   4.551  17.212  0.00  0.00    +0.000 OA
BRANCH  22  24
ATOM     24  O   UNL     1       6.576   4.306  18.933  0.00  0.00    +0.000 OA
ATOM     25  H   UNL     1       6.305   5.067  19.481  0.00  0.00    +0.000 HD
ENDBRANCH  22  24
ENDBRANCH  21  22
BRANCH  21  26
ATOM     26  C   UNL     1       6.080   5.119  15.320  0.00  0.00    +0.000 C 
BRANCH  26  27
ATOM     27  C   UNL     1       6.295   3.878  14.454  0.00  0.00    +0.000 C 
BRANCH  27  29
ATOM     28  C   UNL     1       6.075   3.178  12.224  0.00  0.00    +0.000 C 
ATOM     29  O   UNL     1       5.488   3.931  13.283  0.00  0.00    +0.000 OA
ENDBRANCH  27  29
ENDBRANCH  26  27
ENDBRANCH  21  26
ENDBRANCH  20  21
ENDBRANCH   1  20
TORSDOF 10
ENDMDL
MODEL 5
REMARK VINA RESULT:      -7.1      0.997      1.430
REMARK  Name = 
REMARK  11 active torsions:
REMARK  status: ('A' for Active; 'I' for Inactive)
REMARK    1  A    between atoms: C_1  and  O_2
REMARK    2  A    between atoms: O_2  and  C_3
REMARK    3  A    between atoms: C_3  and  C_4
REMARK    4  A    between atoms: C_4  and  C_5
REMARK    5  A    between atoms: C_5  and  C_6
REMARK    6  A    between atoms: C_5  and  C_25
REMARK    7  A    between atoms: C_6  and  C_7
REMARK    8  A    between atoms: C_7  and  C_8
REMARK    9  A    between atoms: N_10  and  C_11
REMARK   10  A    between atoms: C_13  and  C_14
REMARK   11  A    between atoms: C_25  and  O_27
REMARK                            x       y       z     vdW  Elec       q    Type
REMARK                         _______ _______ _______ _____ _____    ______ ____
ROOT
ATOM      1  C   UNL     1       4.482   5.072  17.830  0.00  0.00    +0.000 C 
ATOM      2  C   UNL     1       5.833   5.010  18.614  0.00  0.00    +0.000 C 
ATOM      3  C   UNL     1       6.958   4.778  17.617  0.00  0.00    +0.000 C 
ATOM      4  C   UNL     1       6.323   4.519  16.269  0.00  0.00    +0.000 C 
ATOM      5  C   UNL     1       4.828   4.392  16.498  0.00  0.00    +0.000 C 
ENDROOT
BRANCH   1   6
ATOM      6  C   UNL     1       4.038   6.563  17.743  0.00  0.00    +0.000 C 
ATOM      7  O   UNL     1       4.780   7.409  17.239  0.00  0.00    +0.000 OA
ATOM      8  N   UNL     1       2.859   6.916  18.375  0.00  0.00    +0.000 N 
ATOM      9  H   UNL     1       2.449   6.264  19.032  0.00  0.00    +0.000 HD
BRANCH   8  10
ATOM     10  C   UNL     1       2.518   8.299  18.619  0.00  0.00    +0.000 C 
ATOM     11  C   UNL     1       2.053   9.235  17.547  0.00  0.00    +0.000 C 
ATOM     12  C   UNL     1       1.061   8.751  18.574  0.00  0.00    +0.000 C 
BRANCH  12  13
ATOM     13  C   UNL     1       0.543   9.677  19.656  0.00  0.00    +0.000 A 
ATOM     14  C   UNL     1       0.513  11.074  19.497  0.00  0.00    +0.000 A 
ATOM     15  C   UNL     1       0.056  11.917  20.520  0.00  0.00    +0.000 A 
ATOM     16  C   UNL     1      -0.392  11.371  21.718  0.00  0.00    +0.000 A 
ATOM     17 CL   UNL     1      -0.914  12.402  22.993  0.00  0.00    +0.000 Cl
ATOM     18  C   UNL     1      -0.408   9.993  21.893  0.00  0.00    +0.000 A 
ATOM     19  C   UNL     1       0.048   9.159  20.867  0.00  0.00    +0.000 A 
ENDBRANCH  12  13
ENDBRANCH   8  10
ENDBRANCH   1   6
BRANCH   1  20
ATOM     20  C   UNL     1       3.459   4.238  18.675  0.00  0.00    +0.000 C 
BRANCH  20  21
ATOM     21  C   UNL     1       3.100   2.776  18.347  0.00  0.00    +0.000 C 
BRANCH  21  22
ATOM     22  C   UNL     1       4.032   1.764  18.997  0.00  0.00    +0.000 C 
ATOM     23  O   UNL     1       4.718   2.009  19.986  0.00  0.00    +0.000 OA
BRANCH  22  24
ATOM     24  O   UNL     1       4.055   0.550  18.419  0.00  0.00    +0.000 OA
ATOM     25  H   UNL     1       3.909   0.526  17.454  0.00  0.00    +0.000 HD
ENDBRANCH  22  24
ENDBRANCH  21  22
BRANCH  21  26
ATOM     26  C   UNL     1       1.633   2.362  18.607  0.00  0.00    +0.000 C 
BRANCH  26  27
ATOM     27  C   UNL     1       0.915   3.056  19.765  0.00  0.00    +0.000 C 
BRANCH  27  29
ATOM     28  C   UNL     1       2.037   3.399  21.799  0.00  0.00    +0.000 C 
ATOM     29  O   UNL     1       1.286   2.478  21.011  0.00  0.00    +0.000 OA
ENDBRANCH  27  29
ENDBRANCH  26  27
ENDBRANCH  21  26
ENDBRANCH  20  21
ENDBRANCH   1  20
TORSDOF 10
ENDMDL
MODEL 6
REMARK VINA RESULT:      -7.1      1.920      4.615
REMARK  Name = 
REMARK  11 active torsions:
REMARK  status: ('A' for Active; 'I' for Inactive)
REMARK    1  A    between atoms: C_1  and  O_2
REMARK    2  A    between atoms: O_2  and  C_3
REMARK    3  A    between atoms: C_3  and  C_4
REMARK    4  A    between atoms: C_4  and  C_5
REMARK    5  A    between atoms: C_5  and  C_6
REMARK    6  A    between atoms: C_5  and  C_25
REMARK    7  A    between atoms: C_6  and  C_7
REMARK    8  A    between atoms: C_7  and  C_8
REMARK    9  A    between atoms: N_10  and  C_11
REMARK   10  A    between atoms: C_13  and  C_14
REMARK   11  A    between atoms: C_25  and  O_27
REMARK                            x       y       z     vdW  Elec       q    Type
REMARK                         _______ _______ _______ _____ _____    ______ ____
ROOT
ATOM      1  C   UNL     1       3.596   4.067  18.096  0.00  0.00    +0.000 C 
ATOM      2  C   UNL     1       2.185   3.872  17.452  0.00  0.00    +0.000 C 
ATOM      3  C   UNL     1       1.315   3.093  18.426  0.00  0.00    +0.000 C 
ATOM      4  C   UNL     1       2.199   2.651  19.571  0.00  0.00    +0.000 C 
ATOM      5  C   UNL     1       3.628   2.985  19.184  0.00  0.00    +0.000 C 
ENDROOT
BRANCH   1   6
ATOM      6  C   UNL     1       3.705   5.540  18.592  0.00  0.00    +0.000 C 
ATOM      7  O   UNL     1       4.431   5.827  19.547  0.00  0.00    +0.000 OA
ATOM      8  N   UNL     1       2.857   6.471  18.020  0.00  0.00    +0.000 N 
ATOM      9  H   UNL     1       2.073   6.138  17.472  0.00  0.00    +0.000 HD
BRANCH   8  10
ATOM     10  C   UNL     1       2.658   7.775  18.610  0.00  0.00    +0.000 C 
ATOM     11  C   UNL     1       2.553   9.035  17.808  0.00  0.00    +0.000 C 
ATOM     12  C   UNL     1       1.315   8.485  18.470  0.00  0.00    +0.000 C 
BRANCH  12  13
ATOM     13  C   UNL     1       0.710   9.165  19.682  0.00  0.00    +0.000 A 
ATOM     14  C   UNL     1       0.616   8.526  20.932  0.00  0.00    +0.000 A 
ATOM     15  C   UNL     1       0.029   9.161  22.035  0.00  0.00    +0.000 A 
ATOM     16  C   UNL     1      -0.464  10.455  21.907  0.00  0.00    +0.000 A 
ATOM     17 CL   UNL     1      -1.225  11.223  23.246  0.00  0.00    +0.000 Cl
ATOM     18  C   UNL     1      -0.354  11.126  20.696  0.00  0.00    +0.000 A 
ATOM     19  C   UNL     1       0.234  10.486  19.600  0.00  0.00    +0.000 A 
ENDBRANCH  12  13
ENDBRANCH   8  10
ENDBRANCH   1   6
BRANCH   1  20
ATOM     20  C   UNL     1       4.631   3.791  16.952  0.00  0.00    +0.000 C 
BRANCH  20  21
ATOM     21  C   UNL     1       5.398   4.916  16.230  0.00  0.00    +0.000 C 
BRANCH  21  22
ATOM     22  C   UNL     1       6.810   5.121  16.760  0.00  0.00    +0.000 C 
ATOM     23  O   UNL     1       7.404   4.296  17.450  0.00  0.00    +0.000 OA
BRANCH  22  24
ATOM     24  O   UNL     1       7.392   6.282  16.411  0.00  0.00    +0.000 OA
ATOM     25  H   UNL     1       7.508   6.439  15.455  0.00  0.00    +0.000 HD
ENDBRANCH  22  24
ENDBRANCH  21  22
BRANCH  21  26
ATOM     26  C   UNL     1       5.437   4.830  14.687  0.00  0.00    +0.000 C 
BRANCH  26  27
ATOM     27  C   UNL     1       6.724   4.294  14.059  0.00  0.00    +0.000 C 
BRANCH  27  29
ATOM     28  C   UNL     1       7.759   5.310  12.212  0.00  0.00    +0.000 C 
ATOM     29  O   UNL     1       7.558   5.362  13.623  0.00  0.00    +0.000 OA
ENDBRANCH  27  29
ENDBRANCH  26  27
ENDBRANCH  21  26
ENDBRANCH  20  21
ENDBRANCH   1  20
TORSDOF 10
ENDMDL
MODEL 7
REMARK VINA RESULT:      -7.1      2.626      4.975
REMARK  Name = 
REMARK  11 active torsions:
REMARK  status: ('A' for Active; 'I' for Inactive)
REMARK    1  A    between atoms: C_1  and  O_2
REMARK    2  A    between atoms: O_2  and  C_3
REMARK    3  A    between atoms: C_3  and  C_4
REMARK    4  A    between atoms: C_4  and  C_5
REMARK    5  A    between atoms: C_5  and  C_6
REMARK    6  A    between atoms: C_5  and  C_25
REMARK    7  A    between atoms: C_6  and  C_7
REMARK    8  A    between atoms: C_7  and  C_8
REMARK    9  A    between atoms: N_10  and  C_11
REMARK   10  A    between atoms: C_13  and  C_14
REMARK   11  A    between atoms: C_25  and  O_27
REMARK                            x       y       z     vdW  Elec       q    Type
REMARK                         _______ _______ _______ _____ _____    ______ ____
ROOT
ATOM      1  C   UNL     1       2.819   5.582  19.360  0.00  0.00    +0.000 C 
ATOM      2  C   UNL     1       2.240   5.189  17.963  0.00  0.00    +0.000 C 
ATOM      3  C   UNL     1       1.205   4.093  18.161  0.00  0.00    +0.000 C 
ATOM      4  C   UNL     1       1.257   3.677  19.614  0.00  0.00    +0.000 C 
ATOM      5  C   UNL     1       2.455   4.372  20.233  0.00  0.00    +0.000 C 
ENDROOT
BRANCH   1   6
ATOM      6  C   UNL     1       2.190   6.944  19.782  0.00  0.00    +0.000 C 
ATOM      7  O   UNL     1       1.592   7.052  20.855  0.00  0.00    +0.000 OA
ATOM      8  N   UNL     1       2.206   7.969  18.854  0.00  0.00    +0.000 N 
ATOM      9  H   UNL     1       2.424   7.745  17.890  0.00  0.00    +0.000 HD
BRANCH   8  10
ATOM     10  C   UNL     1       1.392   9.151  19.020  0.00  0.00    +0.000 C 
ATOM     11  C   UNL     1       1.815  10.514  18.565  0.00  0.00    +0.000 C 
ATOM     12  C   UNL     1       0.722   9.799  17.812  0.00  0.00    +0.000 C 
BRANCH  12  13
ATOM     13  C   UNL     1      -0.722  10.246  17.921  0.00  0.00    +0.000 A 
ATOM     14  C   UNL     1      -1.131  11.252  18.815  0.00  0.00    +0.000 A 
ATOM     15  C   UNL     1      -2.476  11.632  18.922  0.00  0.00    +0.000 A 
ATOM     16  C   UNL     1      -3.435  11.019  18.124  0.00  0.00    +0.000 A 
ATOM     17 CL   UNL     1      -5.093  11.451  18.281  0.00  0.00    +0.000 Cl
ATOM     18  C   UNL     1      -3.058  10.047  17.205  0.00  0.00    +0.000 A 
ATOM     19  C   UNL     1      -1.713   9.673  17.104  0.00  0.00    +0.000 A 
ENDBRANCH  12  13
ENDBRANCH   8  10
ENDBRANCH   1   6
BRANCH   1  20
ATOM     20  C   UNL     1       4.366   5.726  19.158  0.00  0.00    +0.000 C 
BRANCH  20  21
ATOM     21  C   UNL     1       5.039   5.633  17.774  0.00  0.00    +0.000 C 
BRANCH  21  22
ATOM     22  C   UNL     1       6.325   6.441  17.672  0.00  0.00    +0.000 C 
ATOM     23  O   UNL     1       6.535   7.275  16.795  0.00  0.00    +0.000 OA
BRANCH  22  24
ATOM     24  O   UNL     1       7.237   6.194  18.628  0.00  0.00    +0.000 OA
ATOM     25  H   UNL     1       8.087   6.669  18.550  0.00  0.00    +0.000 HD
ENDBRANCH  22  24
ENDBRANCH  21  22
BRANCH  21  26
ATOM     26  C   UNL     1       5.288   4.206  17.234  0.00  0.00    +0.000 C 
BRANCH  26  27
ATOM     27  C   UNL     1       5.280   4.032  15.716  0.00  0.00    +0.000 C 
BRANCH  27  29
ATOM     28  C   UNL     1       6.911   4.824  14.224  0.00  0.00    +0.000 C 
ATOM     29  O   UNL     1       6.601   3.851  15.220  0.00  0.00    +0.000 OA
ENDBRANCH  27  29
ENDBRANCH  26  27
ENDBRANCH  21  26
ENDBRANCH  20  21
ENDBRANCH   1  20
TORSDOF 10
ENDMDL
MODEL 8
REMARK VINA RESULT:      -7.1      2.223      4.381
REMARK  Name = 
REMARK  11 active torsions:
REMARK  status: ('A' for Active; 'I' for Inactive)
REMARK    1  A    between atoms: C_1  and  O_2
REMARK    2  A    between atoms: O_2  and  C_3
REMARK    3  A    between atoms: C_3  and  C_4
REMARK    4  A    between atoms: C_4  and  C_5
REMARK    5  A    between atoms: C_5  and  C_6
REMARK    6  A    between atoms: C_5  and  C_25
REMARK    7  A    between atoms: C_6  and  C_7
REMARK    8  A    between atoms: C_7  and  C_8
REMARK    9  A    between atoms: N_10  and  C_11
REMARK   10  A    between atoms: C_13  and  C_14
REMARK   11  A    between atoms: C_25  and  O_27
REMARK                            x       y       z     vdW  Elec       q    Type
REMARK                         _______ _______ _______ _____ _____    ______ ____
ROOT
ATOM      1  C   UNL     1       3.053   4.280  18.235  0.00  0.00    +0.000 C 
ATOM      2  C   UNL     1       1.622   3.968  17.690  0.00  0.00    +0.000 C 
ATOM      3  C   UNL     1       0.874   3.159  18.738  0.00  0.00    +0.000 C 
ATOM      4  C   UNL     1       1.859   2.812  19.832  0.00  0.00    +0.000 C 
ATOM      5  C   UNL     1       3.233   3.233  19.344  0.00  0.00    +0.000 C 
ENDROOT
BRANCH   1   6
ATOM      6  C   UNL     1       3.088   5.770  18.688  0.00  0.00    +0.000 C 
ATOM      7  O   UNL     1       3.709   6.102  19.700  0.00  0.00    +0.000 OA
ATOM      8  N   UNL     1       2.288   6.665  18.001  0.00  0.00    +0.000 N 
ATOM      9  H   UNL     1       1.569   6.299  17.388  0.00  0.00    +0.000 HD
BRANCH   8  10
ATOM     10  C   UNL     1       2.010   7.984  18.522  0.00  0.00    +0.000 C 
ATOM     11  C   UNL     1       2.776   9.207  18.123  0.00  0.00    +0.000 C 
ATOM     12  C   UNL     1       1.359   9.040  17.634  0.00  0.00    +0.000 C 
BRANCH  12  13
ATOM     13  C   UNL     1       0.234   9.886  18.198  0.00  0.00    +0.000 A 
ATOM     14  C   UNL     1       0.404  10.701  19.331  0.00  0.00    +0.000 A 
ATOM     15  C   UNL     1      -0.655  11.455  19.854  0.00  0.00    +0.000 A 
ATOM     16  C   UNL     1      -1.903  11.415  19.241  0.00  0.00    +0.000 A 
ATOM     17 CL   UNL     1      -3.219  12.304  19.904  0.00  0.00    +0.000 Cl
ATOM     18  C   UNL     1      -2.093  10.647  18.099  0.00  0.00    +0.000 A 
ATOM     19  C   UNL     1      -1.030   9.898  17.582  0.00  0.00    +0.000 A 
ENDBRANCH  12  13
ENDBRANCH   8  10
ENDBRANCH   1   6
BRANCH   1  20
ATOM     20  C   UNL     1       4.029   4.044  17.031  0.00  0.00    +0.000 C 
BRANCH  20  21
ATOM     21  C   UNL     1       5.338   4.837  16.850  0.00  0.00    +0.000 C 
BRANCH  21  22
ATOM     22  C   UNL     1       6.408   4.073  16.084  0.00  0.00    +0.000 C 
ATOM     23  O   UNL     1       6.194   3.478  15.030  0.00  0.00    +0.000 OA
BRANCH  22  24
ATOM     24  O   UNL     1       7.635   4.094  16.633  0.00  0.00    +0.000 OA
ATOM     25  H   UNL     1       8.281   3.454  16.276  0.00  0.00    +0.000 HD
ENDBRANCH  22  24
ENDBRANCH  21  22
BRANCH  21  26
ATOM     26  C   UNL     1       5.196   6.256  16.252  0.00  0.00    +0.000 C 
BRANCH  26  27
ATOM     27  C   UNL     1       5.904   7.391  16.992  0.00  0.00    +0.000 C 
BRANCH  27  29
ATOM     28  C   UNL     1       7.988   7.910  17.941  0.00  0.00    +0.000 C 
ATOM     29  O   UNL     1       7.316   7.285  16.850  0.00  0.00    +0.000 OA
ENDBRANCH  27  29
ENDBRANCH  26  27
ENDBRANCH  21  26
ENDBRANCH  20  21
ENDBRANCH   1  20
TORSDOF 10
ENDMDL
MODEL 9
REMARK VINA RESULT:      -7.0      1.813      4.455
REMARK  Name = 
REMARK  11 active torsions:
REMARK  status: ('A' for Active; 'I' for Inactive)
REMARK    1  A    between atoms: C_1  and  O_2
REMARK    2  A    between atoms: O_2  and  C_3
REMARK    3  A    between atoms: C_3  and  C_4
REMARK    4  A    between atoms: C_4  and  C_5
REMARK    5  A    between atoms: C_5  and  C_6
REMARK    6  A    between atoms: C_5  and  C_25
REMARK    7  A    between atoms: C_6  and  C_7
REMARK    8  A    between atoms: C_7  and  C_8
REMARK    9  A    between atoms: N_10  and  C_11
REMARK   10  A    between atoms: C_13  and  C_14
REMARK   11  A    between atoms: C_25  and  O_27
REMARK                            x       y       z     vdW  Elec       q    Type
REMARK                         _______ _______ _______ _____ _____    ______ ____
ROOT
ATOM      1  C   UNL     1       3.238   4.257  18.101  0.00  0.00    +0.000 C 
ATOM      2  C   UNL     1       1.796   4.046  17.535  0.00  0.00    +0.000 C 
ATOM      3  C   UNL     1       1.033   3.137  18.486  0.00  0.00    +0.000 C 
ATOM      4  C   UNL     1       2.015   2.641  19.525  0.00  0.00    +0.000 C 
ATOM      5  C   UNL     1       3.397   3.083  19.079  0.00  0.00    +0.000 C 
ENDROOT
BRANCH   1   6
ATOM      6  C   UNL     1       3.312   5.683  18.725  0.00  0.00    +0.000 C 
ATOM      7  O   UNL     1       3.688   5.837  19.889  0.00  0.00    +0.000 OA
ATOM      8  N   UNL     1       2.809   6.733  17.979  0.00  0.00    +0.000 N 
ATOM      9  H   UNL     1       2.234   6.521  17.172  0.00  0.00    +0.000 HD
BRANCH   8  10
ATOM     10  C   UNL     1       2.547   8.024  18.572  0.00  0.00    +0.000 C 
ATOM     11  C   UNL     1       2.399   9.283  17.775  0.00  0.00    +0.000 C 
ATOM     12  C   UNL     1       1.177   8.678  18.417  0.00  0.00    +0.000 C 
BRANCH  12  13
ATOM     13  C   UNL     1       0.528   9.325  19.625  0.00  0.00    +0.000 A 
ATOM     14  C   UNL     1      -0.124  10.568  19.550  0.00  0.00    +0.000 A 
ATOM     15  C   UNL     1      -0.695  11.164  20.683  0.00  0.00    +0.000 A 
ATOM     16  C   UNL     1      -0.631  10.516  21.912  0.00  0.00    +0.000 A 
ATOM     17 CL   UNL     1      -1.291  11.262  23.315  0.00  0.00    +0.000 Cl
ATOM     18  C   UNL     1      -0.025   9.270  22.012  0.00  0.00    +0.000 A 
ATOM     19  C   UNL     1       0.541   8.682  20.876  0.00  0.00    +0.000 A 
ENDBRANCH  12  13
ENDBRANCH   8  10
ENDBRANCH   1   6
BRANCH   1  20
ATOM     20  C   UNL     1       4.201   4.140  16.870  0.00  0.00    +0.000 C 
BRANCH  20  21
ATOM     21  C   UNL     1       5.342   5.143  16.605  0.00  0.00    +0.000 C 
BRANCH  21  22
ATOM     22  C   UNL     1       6.641   4.781  17.310  0.00  0.00    +0.000 C 
ATOM     23  O   UNL     1       7.745   5.183  16.949  0.00  0.00    +0.000 OA
BRANCH  22  24
ATOM     24  O   UNL     1       6.509   3.985  18.386  0.00  0.00    +0.000 OA
ATOM     25  H   UNL     1       6.057   3.132  18.241  0.00  0.00    +0.000 HD
ENDBRANCH  22  24
ENDBRANCH  21  22
BRANCH  21  26
ATOM     26  C   UNL     1       5.636   5.459  15.120  0.00  0.00    +0.000 C 
BRANCH  26  27
ATOM     27  C   UNL     1       6.486   4.446  14.355  0.00  0.00    +0.000 C 
BRANCH  27  29
ATOM     28  C   UNL     1       6.302   3.439  12.241  0.00  0.00    +0.000 C 
ATOM     29  O   UNL     1       5.675   3.641  13.506  0.00  0.00    +0.000 OA
ENDBRANCH  27  29
ENDBRANCH  26  27
ENDBRANCH  21  26
ENDBRANCH  20  21
ENDBRANCH   1  20
TORSDOF 10
ENDMDL
