MODEL 1
REMARK VINA RESULT:      -6.8      0.000      0.000
REMARK  Name = 
REMARK  9 active torsions:
REMARK  status: ('A' for Active; 'I' for Inactive)
REMARK    1  A    between atoms: C_1  and  C_2
REMARK    2  A    between atoms: C_2  and  C_3
REMARK    3  A    between atoms: C_2  and  C_4
REMARK    4  A    between atoms: C_2  and  N_5
REMARK    5  A    between atoms: C_6  and  C_8
REMARK    6  A    between atoms: C_10  and  N_11
REMARK    7  A    between atoms: C_12  and  C_14
REMARK    8  A    between atoms: C_22  and  C_24
REMARK    9  A    between atoms: C_24  and  N_25
REMARK                            x       y       z     vdW  Elec       q    Type
REMARK                         _______ _______ _______ _____ _____    ______ ____
ROOT
ATOM      1  C   UNL     1       2.970   7.283  18.005  0.00  0.00    +0.000 C 
ATOM      2  C   UNL     1       2.917   8.808  18.153  0.00  0.00    +0.000 C 
ATOM      3  C   UNL     1       1.695   9.036  19.040  0.00  0.00    +0.000 C 
ATOM      4  C   UNL     1       1.630   7.777  19.914  0.00  0.00    +0.000 C 
ATOM      5  N   UNL     1       2.605   6.841  19.354  0.00  0.00    +0.000 N 
ATOM      6  C   UNL     1       2.690   5.506  19.704  0.00  0.00    +0.000 C 
ATOM      7  O   UNL     1       3.458   4.739  19.119  0.00  0.00    +0.000 OA
ENDROOT
BRANCH   1   9
ATOM      8  N   UNL     1       5.358   6.568  18.103  0.00  0.00    +0.000 N 
ATOM      9  C   UNL     1       4.285   6.885  17.299  0.00  0.00    +0.000 C 
ATOM     10  O   UNL     1       4.369   7.022  16.078  0.00  0.00    +0.000 OA
ATOM     11  H   UNL     1       5.132   6.271  19.045  0.00  0.00    +0.000 HD
BRANCH   8  13
ATOM     12  C   UNL     1       7.523   7.468  17.246  0.00  0.00    +0.000 C 
ATOM     13  C   UNL     1       6.685   6.212  17.563  0.00  0.00    +0.000 C 
ATOM     14  C   UNL     1       6.542   5.345  16.301  0.00  0.00    +0.000 C 
ATOM     15  C   UNL     1       7.453   5.404  18.625  0.00  0.00    +0.000 C 
ENDBRANCH   8  13
ENDBRANCH   1   9
BRANCH   3  16
ATOM     16  N   UNL     1       0.499   9.254  18.236  0.00  0.00    +0.000 N 
ATOM     17  C   UNL     1      -0.447  10.175  18.647  0.00  0.00    +0.000 C 
ATOM     18  O   UNL     1      -0.361  10.797  19.700  0.00  0.00    +0.000 OA
ATOM     19  H   UNL     1       0.388   8.764  17.360  0.00  0.00    +0.000 HD
BRANCH  17  20
ATOM     20  C   UNL     1      -1.635  10.361  17.773  0.00  0.00    +0.000 A 
ATOM     21  C   UNL     1      -2.610  11.279  18.185  0.00  0.00    +0.000 A 
ATOM     22  C   UNL     1      -3.750  11.490  17.411  0.00  0.00    +0.000 A 
ATOM     23  C   UNL     1      -3.915  10.789  16.217  0.00  0.00    +0.000 A 
ATOM     24  C   UNL     1      -2.939   9.888  15.791  0.00  0.00    +0.000 A 
ATOM     25  C   UNL     1      -1.794   9.674  16.564  0.00  0.00    +0.000 A 
ENDBRANCH  17  20
ENDBRANCH   3  16
BRANCH   6  26
ATOM     26  C   UNL     1       1.757   4.963  20.808  0.00  0.00    +0.000 C 
BRANCH  26  27
ATOM     27  N   UNL     1       0.731   4.036  20.315  0.00  0.00    +0.000 NA
ATOM     28  H   UNL     1       0.050   4.562  19.764  0.00  0.00    +0.000 HD
ATOM     29  H   UNL     1       0.215   3.663  21.112  0.00  0.00    +0.000 HD
ENDBRANCH  26  27
ENDBRANCH   6  26
TORSDOF 6
ENDMDL
MODEL 2
REMARK VINA RESULT:      -6.6      3.218      7.974
REMARK  Name = 
REMARK  9 active torsions:
REMARK  status: ('A' for Active; 'I' for Inactive)
REMARK    1  A    between atoms: C_1  and  C_2
REMARK    2  A    between atoms: C_2  and  C_3
REMARK    3  A    between atoms: C_2  and  C_4
REMARK    4  A    between atoms: C_2  and  N_5
REMARK    5  A    between atoms: C_6  and  C_8
REMARK    6  A    between atoms: C_10  and  N_11
REMARK    7  A    between atoms: C_12  and  C_14
REMARK    8  A    between atoms: C_22  and  C_24
REMARK    9  A    between atoms: C_24  and  N_25
REMARK                            x       y       z     vdW  Elec       q    Type
REMARK                         _______ _______ _______ _____ _____    ______ ____
ROOT
ATOM      1  C   UNL     1       3.944   5.732  18.017  0.00  0.00    +0.000 C 
ATOM      2  C   UNL     1       5.467   5.557  17.972  0.00  0.00    +0.000 C 
ATOM      3  C   UNL     1       5.925   6.672  17.034  0.00  0.00    +0.000 C 
ATOM      4  C   UNL     1       4.884   7.780  17.237  0.00  0.00    +0.000 C 
ATOM      5  N   UNL     1       3.814   7.191  18.043  0.00  0.00    +0.000 N 
ATOM      6  C   UNL     1       2.581   7.784  18.250  0.00  0.00    +0.000 C 
ATOM      7  O   UNL     1       1.679   7.191  18.845  0.00  0.00    +0.000 OA
ENDROOT
BRANCH   1   9
ATOM      8  N   UNL     1       2.311   3.984  18.719  0.00  0.00    +0.000 N 
ATOM      9  C   UNL     1       3.356   4.798  19.097  0.00  0.00    +0.000 C 
ATOM     10  O   UNL     1       3.724   4.932  20.264  0.00  0.00    +0.000 OA
ATOM     11  H   UNL     1       2.239   3.786  17.728  0.00  0.00    +0.000 HD
BRANCH   8  13
ATOM     12  C   UNL     1       0.814   3.854  20.713  0.00  0.00    +0.000 C 
ATOM     13  C   UNL     1       1.626   3.073  19.659  0.00  0.00    +0.000 C 
ATOM     14  C   UNL     1       2.640   2.151  20.356  0.00  0.00    +0.000 C 
ATOM     15  C   UNL     1       0.634   2.198  18.871  0.00  0.00    +0.000 C 
ENDBRANCH   8  13
ENDBRANCH   1   9
BRANCH   3  16
ATOM     16  N   UNL     1       6.012   6.195  15.660  0.00  0.00    +0.000 N 
ATOM     17  C   UNL     1       6.859   5.147  15.348  0.00  0.00    +0.000 C 
ATOM     18  O   UNL     1       7.596   4.617  16.172  0.00  0.00    +0.000 OA
ATOM     19  H   UNL     1       5.421   6.602  14.949  0.00  0.00    +0.000 HD
BRANCH  17  20
ATOM     20  C   UNL     1       6.888   4.698  13.932  0.00  0.00    +0.000 A 
ATOM     21  C   UNL     1       6.008   3.676  13.554  0.00  0.00    +0.000 A 
ATOM     22  C   UNL     1       5.996   3.207  12.240  0.00  0.00    +0.000 A 
ATOM     23  C   UNL     1       6.859   3.765  11.299  0.00  0.00    +0.000 A 
ATOM     24  C   UNL     1       7.725   4.797  11.664  0.00  0.00    +0.000 A 
ATOM     25  C   UNL     1       7.739   5.270  12.978  0.00  0.00    +0.000 A 
ENDBRANCH  17  20
ENDBRANCH   3  16
BRANCH   6  26
ATOM     26  C   UNL     1       2.321   9.189  17.665  0.00  0.00    +0.000 C 
BRANCH  26  27
ATOM     27  N   UNL     1       0.923   9.627  17.771  0.00  0.00    +0.000 NA
ATOM     28  H   UNL     1       0.898  10.537  18.236  0.00  0.00    +0.000 HD
ATOM     29  H   UNL     1       0.425   8.986  18.387  0.00  0.00    +0.000 HD
ENDBRANCH  26  27
ENDBRANCH   6  26
TORSDOF 6
ENDMDL
MODEL 3
REMARK VINA RESULT:      -6.6      2.940      8.549
REMARK  Name = 
REMARK  9 active torsions:
REMARK  status: ('A' for Active; 'I' for Inactive)
REMARK    1  A    between atoms: C_1  and  C_2
REMARK    2  A    between atoms: C_2  and  C_3
REMARK    3  A    between atoms: C_2  and  C_4
REMARK    4  A    between atoms: C_2  and  N_5
REMARK    5  A    between atoms: C_6  and  C_8
REMARK    6  A    between atoms: C_10  and  N_11
REMARK    7  A    between atoms: C_12  and  C_14
REMARK    8  A    between atoms: C_22  and  C_24
REMARK    9  A    between atoms: C_24  and  N_25
REMARK                            x       y       z     vdW  Elec       q    Type
REMARK                         _______ _______ _______ _____ _____    ______ ____
ROOT
ATOM      1  C   UNL     1      -0.447  11.016  19.988  0.00  0.00    +0.000 C 
ATOM      2  C   UNL     1       1.084  10.971  19.933  0.00  0.00    +0.000 C 
ATOM      3  C   UNL     1       1.371   9.949  18.835  0.00  0.00    +0.000 C 
ATOM      4  C   UNL     1       0.173  10.078  17.885  0.00  0.00    +0.000 C 
ATOM      5  N   UNL     1      -0.798  10.935  18.567  0.00  0.00    +0.000 N 
ATOM      6  C   UNL     1      -2.106  11.107  18.154  0.00  0.00    +0.000 C 
ATOM      7  O   UNL     1      -2.910  11.752  18.830  0.00  0.00    +0.000 OA
ENDROOT
BRANCH   1   9
ATOM      8  N   UNL     1      -1.935  11.912  21.777  0.00  0.00    +0.000 N 
ATOM      9  C   UNL     1      -0.890  12.167  20.916  0.00  0.00    +0.000 C 
ATOM     10  O   UNL     1      -0.414  13.289  20.741  0.00  0.00    +0.000 OA
ATOM     11  H   UNL     1      -2.096  10.937  22.001  0.00  0.00    +0.000 HD
BRANCH   8  13
ATOM     12  C   UNL     1      -3.338  13.971  21.927  0.00  0.00    +0.000 C 
ATOM     13  C   UNL     1      -2.488  12.933  22.689  0.00  0.00    +0.000 C 
ATOM     14  C   UNL     1      -1.361  13.641  23.458  0.00  0.00    +0.000 C 
ATOM     15  C   UNL     1      -3.413  12.242  23.707  0.00  0.00    +0.000 C 
ENDBRANCH   8  13
ENDBRANCH   1   9
BRANCH   3  16
ATOM     16  N   UNL     1       1.533   8.613  19.395  0.00  0.00    +0.000 N 
ATOM     17  C   UNL     1       2.373   7.705  18.776  0.00  0.00    +0.000 C 
ATOM     18  O   UNL     1       2.964   7.949  17.730  0.00  0.00    +0.000 OA
ATOM     19  H   UNL     1       1.066   8.370  20.258  0.00  0.00    +0.000 HD
BRANCH  17  20
ATOM     20  C   UNL     1       2.507   6.367  19.408  0.00  0.00    +0.000 A 
ATOM     21  C   UNL     1       3.416   5.465  18.838  0.00  0.00    +0.000 A 
ATOM     22  C   UNL     1       3.577   4.191  19.382  0.00  0.00    +0.000 A 
ATOM     23  C   UNL     1       2.838   3.818  20.502  0.00  0.00    +0.000 A 
ATOM     24  C   UNL     1       1.946   4.718  21.087  0.00  0.00    +0.000 A 
ATOM     25  C   UNL     1       1.781   5.996  20.545  0.00  0.00    +0.000 A 
ENDBRANCH  17  20
ENDBRANCH   3  16
BRANCH   6  26
ATOM     26  C   UNL     1      -2.575  10.422  16.852  0.00  0.00    +0.000 C 
BRANCH  26  27
ATOM     27  N   UNL     1      -2.635  11.324  15.695  0.00  0.00    +0.000 NA
ATOM     28  H   UNL     1      -1.707  11.380  15.272  0.00  0.00    +0.000 HD
ATOM     29  H   UNL     1      -2.849  12.265  16.024  0.00  0.00    +0.000 HD
ENDBRANCH  26  27
ENDBRANCH   6  26
TORSDOF 6
ENDMDL
MODEL 4
REMARK VINA RESULT:      -6.6      4.202      9.575
REMARK  Name = 
REMARK  9 active torsions:
REMARK  status: ('A' for Active; 'I' for Inactive)
REMARK    1  A    between atoms: C_1  and  C_2
REMARK    2  A    between atoms: C_2  and  C_3
REMARK    3  A    between atoms: C_2  and  C_4
REMARK    4  A    between atoms: C_2  and  N_5
REMARK    5  A    between atoms: C_6  and  C_8
REMARK    6  A    between atoms: C_10  and  N_11
REMARK    7  A    between atoms: C_12  and  C_14
REMARK    8  A    between atoms: C_22  and  C_24
REMARK    9  A    between atoms: C_24  and  N_25
REMARK                            x       y       z     vdW  Elec       q    Type
REMARK                         _______ _______ _______ _____ _____    ______ ____
ROOT
ATOM      1  C   UNL     1      -3.221  12.249  20.296  0.00  0.00    +0.000 C 
ATOM      2  C   UNL     1      -1.933  12.732  19.619  0.00  0.00    +0.000 C 
ATOM      3  C   UNL     1      -1.855  11.879  18.355  0.00  0.00    +0.000 C 
ATOM      4  C   UNL     1      -3.322  11.598  18.005  0.00  0.00    +0.000 C 
ATOM      5  N   UNL     1      -4.110  12.064  19.146  0.00  0.00    +0.000 N 
ATOM      6  C   UNL     1      -5.451  11.781  19.332  0.00  0.00    +0.000 C 
ATOM      7  O   UNL     1      -6.035  12.106  20.367  0.00  0.00    +0.000 OA
ENDROOT
BRANCH   1   9
ATOM      8  N   UNL     1      -4.030  12.571  22.633  0.00  0.00    +0.000 N 
ATOM      9  C   UNL     1      -3.545  13.171  21.491  0.00  0.00    +0.000 C 
ATOM     10  O   UNL     1      -3.513  14.391  21.328  0.00  0.00    +0.000 OA
ATOM     11  H   UNL     1      -3.809  11.589  22.745  0.00  0.00    +0.000 HD
BRANCH   8  13
ATOM     12  C   UNL     1      -5.677  14.192  23.576  0.00  0.00    +0.000 C 
ATOM     13  C   UNL     1      -4.421  13.335  23.834  0.00  0.00    +0.000 C 
ATOM     14  C   UNL     1      -3.264  14.230  24.308  0.00  0.00    +0.000 C 
ATOM     15  C   UNL     1      -4.764  12.346  24.963  0.00  0.00    +0.000 C 
ENDBRANCH   8  13
ENDBRANCH   1   9
BRANCH   3  16
ATOM     16  N   UNL     1      -1.066  10.675  18.585  0.00  0.00    +0.000 N 
ATOM     17  C   UNL     1       0.308  10.767  18.715  0.00  0.00    +0.000 C 
ATOM     18  O   UNL     1       0.920  11.823  18.594  0.00  0.00    +0.000 OA
ATOM     19  H   UNL     1      -1.530   9.784  18.693  0.00  0.00    +0.000 HD
BRANCH  17  20
ATOM     20  C   UNL     1       1.051   9.505  18.966  0.00  0.00    +0.000 A 
ATOM     21  C   UNL     1       1.749   8.936  17.893  0.00  0.00    +0.000 A 
ATOM     22  C   UNL     1       2.456   7.747  18.066  0.00  0.00    +0.000 A 
ATOM     23  C   UNL     1       2.476   7.128  19.315  0.00  0.00    +0.000 A 
ATOM     24  C   UNL     1       1.799   7.701  20.393  0.00  0.00    +0.000 A 
ATOM     25  C   UNL     1       1.089   8.892  20.224  0.00  0.00    +0.000 A 
ENDBRANCH  17  20
ENDBRANCH   3  16
BRANCH   6  26
ATOM     26  C   UNL     1      -6.204  10.987  18.242  0.00  0.00    +0.000 C 
BRANCH  26  27
ATOM     27  N   UNL     1      -7.178  10.026  18.775  0.00  0.00    +0.000 NA
ATOM     28  H   UNL     1      -6.678   9.197  19.102  0.00  0.00    +0.000 HD
ATOM     29  H   UNL     1      -7.775   9.707  18.012  0.00  0.00    +0.000 HD
ENDBRANCH  26  27
ENDBRANCH   6  26
TORSDOF 6
ENDMDL
MODEL 5
REMARK VINA RESULT:      -6.5      1.339      1.712
REMARK  Name = 
REMARK  9 active torsions:
REMARK  status: ('A' for Active; 'I' for Inactive)
REMARK    1  A    between atoms: C_1  and  C_2
REMARK    2  A    between atoms: C_2  and  C_3
REMARK    3  A    between atoms: C_2  and  C_4
REMARK    4  A    between atoms: C_2  and  N_5
REMARK    5  A    between atoms: C_6  and  C_8
REMARK    6  A    between atoms: C_10  and  N_11
REMARK    7  A    between atoms: C_12  and  C_14
REMARK    8  A    between atoms: C_22  and  C_24
REMARK    9  A    between atoms: C_24  and  N_25
REMARK                            x       y       z     vdW  Elec       q    Type
REMARK                         _______ _______ _______ _____ _____    ______ ____
ROOT
ATOM      1  C   UNL     1       2.867   6.041  18.563  0.00  0.00    +0.000 C 
ATOM      2  C   UNL     1       3.150   7.484  18.999  0.00  0.00    +0.000 C 
ATOM      3  C   UNL     1       2.019   7.786  19.980  0.00  0.00    +0.000 C 
ATOM      4  C   UNL     1       1.693   6.423  20.603  0.00  0.00    +0.000 C 
ATOM      5  N   UNL     1       2.433   5.430  19.822  0.00  0.00    +0.000 N 
ATOM      6  C   UNL     1       2.230   4.065  19.909  0.00  0.00    +0.000 C 
ATOM      7  O   UNL     1       2.804   3.284  19.148  0.00  0.00    +0.000 OA
ENDROOT
BRANCH   1   9
ATOM      8  N   UNL     1       5.258   6.176  17.865  0.00  0.00    +0.000 N 
ATOM      9  C   UNL     1       4.054   5.522  17.722  0.00  0.00    +0.000 C 
ATOM     10  O   UNL     1       3.843   4.671  16.857  0.00  0.00    +0.000 OA
ATOM     11  H   UNL     1       5.384   6.686  18.732  0.00  0.00    +0.000 HD
BRANCH   8  13
ATOM     12  C   UNL     1       6.136   5.603  15.600  0.00  0.00    +0.000 C 
ATOM     13  C   UNL     1       6.463   5.813  17.093  0.00  0.00    +0.000 C 
ATOM     14  C   UNL     1       7.116   4.547  17.670  0.00  0.00    +0.000 C 
ATOM     15  C   UNL     1       7.477   6.968  17.182  0.00  0.00    +0.000 C 
ENDBRANCH   8  13
ENDBRANCH   1   9
BRANCH   3  16
ATOM     16  N   UNL     1       0.888   8.405  19.299  0.00  0.00    +0.000 N 
ATOM     17  C   UNL     1       0.474   9.672  19.666  0.00  0.00    +0.000 C 
ATOM     18  O   UNL     1       0.984  10.300  20.588  0.00  0.00    +0.000 OA
ATOM     19  H   UNL     1       0.440   7.924  18.532  0.00  0.00    +0.000 HD
BRANCH  17  20
ATOM     20  C   UNL     1      -0.673  10.252  18.922  0.00  0.00    +0.000 A 
ATOM     21  C   UNL     1      -1.365  11.316  19.516  0.00  0.00    +0.000 A 
ATOM     22  C   UNL     1      -2.456  11.894  18.868  0.00  0.00    +0.000 A 
ATOM     23  C   UNL     1      -2.853  11.418  17.620  0.00  0.00    +0.000 A 
ATOM     24  C   UNL     1      -2.156  10.372  17.014  0.00  0.00    +0.000 A 
ATOM     25  C   UNL     1      -1.062   9.789  17.659  0.00  0.00    +0.000 A 
ENDBRANCH  17  20
ENDBRANCH   3  16
BRANCH   6  26
ATOM     26  C   UNL     1       1.216   3.525  20.941  0.00  0.00    +0.000 C 
BRANCH  26  27
ATOM     27  N   UNL     1       1.828   2.733  22.015  0.00  0.00    +0.000 NA
ATOM     28  H   UNL     1       2.747   2.410  21.705  0.00  0.00    +0.000 HD
ATOM     29  H   UNL     1       1.271   1.891  22.159  0.00  0.00    +0.000 HD
ENDBRANCH  26  27
ENDBRANCH   6  26
TORSDOF 6
ENDMDL
MODEL 6
REMARK VINA RESULT:      -6.5      2.919      8.459
REMARK  Name = 
REMARK  9 active torsions:
REMARK  status: ('A' for Active; 'I' for Inactive)
REMARK    1  A    between atoms: C_1  and  C_2
REMARK    2  A    between atoms: C_2  and  C_3
REMARK    3  A    between atoms: C_2  and  C_4
REMARK    4  A    between atoms: C_2  and  N_5
REMARK    5  A    between atoms: C_6  and  C_8
REMARK    6  A    between atoms: C_10  and  N_11
REMARK    7  A    between atoms: C_12  and  C_14
REMARK    8  A    between atoms: C_22  and  C_24
REMARK    9  A    between atoms: C_24  and  N_25
REMARK                            x       y       z     vdW  Elec       q    Type
REMARK                         _______ _______ _______ _____ _____    ______ ____
ROOT
ATOM      1  C   UNL     1      -0.425  10.961  19.954  0.00  0.00    +0.000 C 
ATOM      2  C   UNL     1       1.102  10.903  19.825  0.00  0.00    +0.000 C 
ATOM      3  C   UNL     1       1.325   9.900  18.696  0.00  0.00    +0.000 C 
ATOM      4  C   UNL     1       0.085  10.060  17.807  0.00  0.00    +0.000 C 
ATOM      5  N   UNL     1      -0.843  10.912  18.551  0.00  0.00    +0.000 N 
ATOM      6  C   UNL     1      -2.168  11.105  18.204  0.00  0.00    +0.000 C 
ATOM      7  O   UNL     1      -2.932  11.744  18.930  0.00  0.00    +0.000 OA
ENDROOT
BRANCH   1   9
ATOM      8  N   UNL     1      -1.901  11.883  21.741  0.00  0.00    +0.000 N 
ATOM      9  C   UNL     1      -0.811  12.098  20.925  0.00  0.00    +0.000 C 
ATOM     10  O   UNL     1      -0.247  13.188  20.820  0.00  0.00    +0.000 OA
ATOM     11  H   UNL     1      -2.142  10.914  21.911  0.00  0.00    +0.000 HD
BRANCH   8  13
ATOM     12  C   UNL     1      -1.251  13.625  23.407  0.00  0.00    +0.000 C 
ATOM     13  C   UNL     1      -2.406  12.900  22.685  0.00  0.00    +0.000 C 
ATOM     14  C   UNL     1      -3.350  12.260  23.716  0.00  0.00    +0.000 C 
ATOM     15  C   UNL     1      -3.194  13.963  21.898  0.00  0.00    +0.000 C 
ENDBRANCH   8  13
ENDBRANCH   1   9
BRANCH   3  16
ATOM     16  N   UNL     1       1.500   8.552  19.221  0.00  0.00    +0.000 N 
ATOM     17  C   UNL     1       2.387   7.685  18.610  0.00  0.00    +0.000 C 
ATOM     18  O   UNL     1       3.012   7.976  17.596  0.00  0.00    +0.000 OA
ATOM     19  H   UNL     1       1.006   8.271  20.057  0.00  0.00    +0.000 HD
BRANCH  17  20
ATOM     20  C   UNL     1       2.531   6.332  19.206  0.00  0.00    +0.000 A 
ATOM     21  C   UNL     1       1.896   6.087  20.430  0.00  0.00    +0.000 A 
ATOM     22  C   UNL     1       2.004   4.838  21.042  0.00  0.00    +0.000 A 
ATOM     23  C   UNL     1       2.738   3.827  20.426  0.00  0.00    +0.000 A 
ATOM     24  C   UNL     1       3.357   4.058  19.196  0.00  0.00    +0.000 A 
ATOM     25  C   UNL     1       3.252   5.307  18.580  0.00  0.00    +0.000 A 
ENDBRANCH  17  20
ENDBRANCH   3  16
BRANCH   6  26
ATOM     26  C   UNL     1      -2.705  10.450  16.913  0.00  0.00    +0.000 C 
BRANCH  26  27
ATOM     27  N   UNL     1      -2.615  11.313  15.728  0.00  0.00    +0.000 NA
ATOM     28  H   UNL     1      -3.413  11.121  15.119  0.00  0.00    +0.000 HD
ATOM     29  H   UNL     1      -1.788  11.049  15.193  0.00  0.00    +0.000 HD
ENDBRANCH  26  27
ENDBRANCH   6  26
TORSDOF 6
ENDMDL
MODEL 7
REMARK VINA RESULT:      -6.5      2.726      4.812
REMARK  Name = 
REMARK  9 active torsions:
REMARK  status: ('A' for Active; 'I' for Inactive)
REMARK    1  A    between atoms: C_1  and  C_2
REMARK    2  A    between atoms: C_2  and  C_3
REMARK    3  A    between atoms: C_2  and  C_4
REMARK    4  A    between atoms: C_2  and  N_5
REMARK    5  A    between atoms: C_6  and  C_8
REMARK    6  A    between atoms: C_10  and  N_11
REMARK    7  A    between atoms: C_12  and  C_14
REMARK    8  A    between atoms: C_22  and  C_24
REMARK    9  A    between atoms: C_24  and  N_25
REMARK                            x       y       z     vdW  Elec       q    Type
REMARK                         _______ _______ _______ _____ _____    ______ ____
ROOT
ATOM      1  C   UNL     1       3.518   6.234  18.960  0.00  0.00    +0.000 C 
ATOM      2  C   UNL     1       2.222   6.717  18.297  0.00  0.00    +0.000 C 
ATOM      3  C   UNL     1       2.669   7.931  17.486  0.00  0.00    +0.000 C 
ATOM      4  C   UNL     1       4.122   7.613  17.111  0.00  0.00    +0.000 C 
ATOM      5  N   UNL     1       4.491   6.425  17.881  0.00  0.00    +0.000 N 
ATOM      6  C   UNL     1       5.785   5.953  18.009  0.00  0.00    +0.000 C 
ATOM      7  O   UNL     1       6.051   5.014  18.761  0.00  0.00    +0.000 OA
ENDROOT
BRANCH   1   9
ATOM      8  N   UNL     1       3.429   3.743  18.892  0.00  0.00    +0.000 N 
ATOM      9  C   UNL     1       3.260   4.879  19.653  0.00  0.00    +0.000 C 
ATOM     10  O   UNL     1       2.768   4.871  20.782  0.00  0.00    +0.000 OA
ATOM     11  H   UNL     1       4.034   3.837  18.084  0.00  0.00    +0.000 HD
BRANCH   8  13
ATOM     12  C   UNL     1       1.692   2.187  19.782  0.00  0.00    +0.000 C 
ATOM     13  C   UNL     1       3.177   2.385  19.414  0.00  0.00    +0.000 C 
ATOM     14  C   UNL     1       4.063   2.100  20.637  0.00  0.00    +0.000 C 
ATOM     15  C   UNL     1       3.518   1.359  18.317  0.00  0.00    +0.000 C 
ENDBRANCH   8  13
ENDBRANCH   1   9
BRANCH   3  16
ATOM     16  N   UNL     1       2.519   9.159  18.257  0.00  0.00    +0.000 N 
ATOM     17  C   UNL     1       1.300   9.811  18.282  0.00  0.00    +0.000 C 
ATOM     18  O   UNL     1       0.328   9.434  17.636  0.00  0.00    +0.000 OA
ATOM     19  H   UNL     1       3.293   9.504  18.807  0.00  0.00    +0.000 HD
BRANCH  17  20
ATOM     20  C   UNL     1       1.209  11.047  19.101  0.00  0.00    +0.000 A 
ATOM     21  C   UNL     1       1.886  12.185  18.642  0.00  0.00    +0.000 A 
ATOM     22  C   UNL     1       1.844  13.371  19.374  0.00  0.00    +0.000 A 
ATOM     23  C   UNL     1       1.118  13.427  20.561  0.00  0.00    +0.000 A 
ATOM     24  C   UNL     1       0.425  12.303  21.014  0.00  0.00    +0.000 A 
ATOM     25  C   UNL     1       0.464  11.113  20.284  0.00  0.00    +0.000 A 
ENDBRANCH  17  20
ENDBRANCH   3  16
BRANCH   6  26
ATOM     26  C   UNL     1       6.919   6.665  17.240  0.00  0.00    +0.000 C 
BRANCH  26  27
ATOM     27  N   UNL     1       7.369   5.943  16.044  0.00  0.00    +0.000 NA
ATOM     28  H   UNL     1       6.580   5.846  15.401  0.00  0.00    +0.000 HD
ATOM     29  H   UNL     1       7.627   4.994  16.312  0.00  0.00    +0.000 HD
ENDBRANCH  26  27
ENDBRANCH   6  26
TORSDOF 6
ENDMDL
MODEL 8
REMARK VINA RESULT:      -6.5      0.264      1.353
REMARK  Name = 
REMARK  9 active torsions:
REMARK  status: ('A' for Active; 'I' for Inactive)
REMARK    1  A    between atoms: C_1  and  C_2
REMARK    2  A    between atoms: C_2  and  C_3
REMARK    3  A    between atoms: C_2  and  C_4
REMARK    4  A    between atoms: C_2  and  N_5
REMARK    5  A    between atoms: C_6  and  C_8
REMARK    6  A    between atoms: C_10  and  N_11
REMARK    7  A    between atoms: C_12  and  C_14
REMARK    8  A    between atoms: C_22  and  C_24
REMARK    9  A    between atoms: C_24  and  N_25
REMARK                            x       y       z     vdW  Elec       q    Type
REMARK                         _______ _______ _______ _____ _____    ______ ____
ROOT
ATOM      1  C   UNL     1       2.943   7.292  18.067  0.00  0.00    +0.000 C 
ATOM      2  C   UNL     1       2.938   8.819  18.205  0.00  0.00    +0.000 C 
ATOM      3  C   UNL     1       1.715   9.092  19.078  0.00  0.00    +0.000 C 
ATOM      4  C   UNL     1       1.599   7.841  19.958  0.00  0.00    +0.000 C 
ATOM      5  N   UNL     1       2.550   6.871  19.414  0.00  0.00    +0.000 N 
ATOM      6  C   UNL     1       2.588   5.536  19.773  0.00  0.00    +0.000 C 
ATOM      7  O   UNL     1       3.336   4.741  19.200  0.00  0.00    +0.000 OA
ENDROOT
BRANCH   1   9
ATOM      8  N   UNL     1       5.294   6.469  18.194  0.00  0.00    +0.000 N 
ATOM      9  C   UNL     1       4.251   6.848  17.377  0.00  0.00    +0.000 C 
ATOM     10  O   UNL     1       4.365   7.002  16.160  0.00  0.00    +0.000 OA
ATOM     11  H   UNL     1       5.038   6.166  19.127  0.00  0.00    +0.000 HD
BRANCH   8  13
ATOM     12  C   UNL     1       6.480   4.987  16.573  0.00  0.00    +0.000 C 
ATOM     13  C   UNL     1       6.614   6.063  17.671  0.00  0.00    +0.000 C 
ATOM     14  C   UNL     1       7.511   5.544  18.807  0.00  0.00    +0.000 C 
ATOM     15  C   UNL     1       7.295   7.287  17.034  0.00  0.00    +0.000 C 
ENDBRANCH   8  13
ENDBRANCH   1   9
BRANCH   3  16
ATOM     16  N   UNL     1       0.535   9.343  18.260  0.00  0.00    +0.000 N 
ATOM     17  C   UNL     1      -0.435  10.224  18.703  0.00  0.00    +0.000 C 
ATOM     18  O   UNL     1      -0.382  10.780  19.795  0.00  0.00    +0.000 OA
ATOM     19  H   UNL     1       0.452   8.908  17.352  0.00  0.00    +0.000 HD
BRANCH  17  20
ATOM     20  C   UNL     1      -1.604  10.449  17.814  0.00  0.00    +0.000 A 
ATOM     21  C   UNL     1      -1.674   9.705  16.629  0.00  0.00    +0.000 A 
ATOM     22  C   UNL     1      -2.743   9.880  15.751  0.00  0.00    +0.000 A 
ATOM     23  C   UNL     1      -3.750  10.792  16.060  0.00  0.00    +0.000 A 
ATOM     24  C   UNL     1      -3.697  11.522  17.248  0.00  0.00    +0.000 A 
ATOM     25  C   UNL     1      -2.628  11.349  18.131  0.00  0.00    +0.000 A 
ENDBRANCH  17  20
ENDBRANCH   3  16
BRANCH   6  26
ATOM     26  C   UNL     1       1.626   5.030  20.870  0.00  0.00    +0.000 C 
BRANCH  26  27
ATOM     27  N   UNL     1       1.429   3.574  20.862  0.00  0.00    +0.000 NA
ATOM     28  H   UNL     1       0.727   3.333  21.564  0.00  0.00    +0.000 HD
ATOM     29  H   UNL     1       2.292   3.125  21.166  0.00  0.00    +0.000 HD
ENDBRANCH  26  27
ENDBRANCH   6  26
TORSDOF 6
ENDMDL
MODEL 9
REMARK VINA RESULT:      -6.5      2.794      8.442
REMARK  Name = 
REMARK  9 active torsions:
REMARK  status: ('A' for Active; 'I' for Inactive)
REMARK    1  A    between atoms: C_1  and  C_2
REMARK    2  A    between atoms: C_2  and  C_3
REMARK    3  A    between atoms: C_2  and  C_4
REMARK    4  A    between atoms: C_2  and  N_5
REMARK    5  A    between atoms: C_6  and  C_8
REMARK    6  A    between atoms: C_10  and  N_11
REMARK    7  A    between atoms: C_12  and  C_14
REMARK    8  A    between atoms: C_22  and  C_24
REMARK    9  A    between atoms: C_24  and  N_25
REMARK                            x       y       z     vdW  Elec       q    Type
REMARK                         _______ _______ _______ _____ _____    ______ ____
ROOT
ATOM      1  C   UNL     1      -0.519  10.543  20.140  0.00  0.00    +0.000 C 
ATOM      2  C   UNL     1       1.010  10.510  20.250  0.00  0.00    +0.000 C 
ATOM      3  C   UNL     1       1.428   9.578  19.116  0.00  0.00    +0.000 C 
ATOM      4  C   UNL     1       0.339   9.774  18.053  0.00  0.00    +0.000 C 
ATOM      5  N   UNL     1      -0.711  10.570  18.688  0.00  0.00    +0.000 N 
ATOM      6  C   UNL     1      -1.969  10.768  18.148  0.00  0.00    +0.000 C 
ATOM      7  O   UNL     1      -2.850  11.355  18.779  0.00  0.00    +0.000 OA
ENDROOT
BRANCH   1   9
ATOM      8  N   UNL     1      -1.060  12.922  20.657  0.00  0.00    +0.000 N 
ATOM      9  C   UNL     1      -1.076  11.617  21.100  0.00  0.00    +0.000 C 
ATOM     10  O   UNL     1      -1.353  11.296  22.256  0.00  0.00    +0.000 OA
ATOM     11  H   UNL     1      -1.033  13.048  19.652  0.00  0.00    +0.000 HD
BRANCH   8  13
ATOM     12  C   UNL     1      -0.702  14.174  22.787  0.00  0.00    +0.000 C 
ATOM     13  C   UNL     1      -1.522  14.053  21.486  0.00  0.00    +0.000 C 
ATOM     14  C   UNL     1      -3.016  13.908  21.819  0.00  0.00    +0.000 C 
ATOM     15  C   UNL     1      -1.325  15.361  20.697  0.00  0.00    +0.000 C 
ENDBRANCH   8  13
ENDBRANCH   1   9
BRANCH   3  16
ATOM     16  N   UNL     1       1.546   8.203  19.587  0.00  0.00    +0.000 N 
ATOM     17  C   UNL     1       2.435   7.340  18.973  0.00  0.00    +0.000 C 
ATOM     18  O   UNL     1       3.108   7.657  17.998  0.00  0.00    +0.000 OA
ATOM     19  H   UNL     1       1.011   7.899  20.388  0.00  0.00    +0.000 HD
BRANCH  17  20
ATOM     20  C   UNL     1       2.519   5.958  19.512  0.00  0.00    +0.000 A 
ATOM     21  C   UNL     1       3.455   5.089  18.935  0.00  0.00    +0.000 A 
ATOM     22  C   UNL     1       3.572   3.777  19.393  0.00  0.00    +0.000 A 
ATOM     23  C   UNL     1       2.762   3.333  20.436  0.00  0.00    +0.000 A 
ATOM     24  C   UNL     1       1.841   4.199  21.028  0.00  0.00    +0.000 A 
ATOM     25  C   UNL     1       1.720   5.514  20.572  0.00  0.00    +0.000 A 
ENDBRANCH  17  20
ENDBRANCH   3  16
BRANCH   6  26
ATOM     26  C   UNL     1      -2.284  10.183  16.754  0.00  0.00    +0.000 C 
BRANCH  26  27
ATOM     27  N   UNL     1      -2.547  11.201  15.729  0.00  0.00    +0.000 NA
ATOM     28  H   UNL     1      -2.663  12.108  16.187  0.00  0.00    +0.000 HD
ATOM     29  H   UNL     1      -3.442  10.997  15.286  0.00  0.00    +0.000 HD
ENDBRANCH  26  27
ENDBRANCH   6  26
TORSDOF 6
ENDMDL
