MODEL 1
REMARK VINA RESULT:      -7.9      0.000      0.000
REMARK  Name = 
REMARK  6 active torsions:
REMARK  status: ('A' for Active; 'I' for Inactive)
REMARK    1  A    between atoms: C_1  and  O_2
REMARK    2  A    between atoms: O_2  and  C_3
REMARK    3  A    between atoms: C_8  and  C_9
REMARK    4  A    between atoms: N_13  and  C_14
REMARK    5  A    between atoms: C_17  and  C_18
REMARK    6  A    between atoms: C_18  and  O_20
REMARK                            x       y       z     vdW  Elec       q    Type
REMARK                         _______ _______ _______ _____ _____    ______ ____
ROOT
ATOM      1  C   UNL     1       2.196   6.718  19.949  0.00  0.00    +0.000 A 
ATOM      2  C   UNL     1       1.539   5.845  20.792  0.00  0.00    +0.000 A 
ATOM      3  S   UNL     1       2.389   4.356  20.868  0.00  0.00    +0.000 S 
ATOM      4  C   UNL     1       3.542   4.957  19.735  0.00  0.00    +0.000 A 
ATOM      5  N   UNL     1       4.550   4.170  19.288  0.00  0.00    +0.000 N 
ATOM      6  N   UNL     1       3.352   6.209  19.385  0.00  0.00    +0.000 NA
ATOM      7  H   UNL     1       4.658   3.253  19.706  0.00  0.00    +0.000 HD
ENDROOT
BRANCH   1  13
ATOM      8  C   UNL     1       1.227   8.954  20.600  0.00  0.00    +0.000 A 
ATOM      9  C   UNL     1       0.825  10.240  20.211  0.00  0.00    +0.000 A 
ATOM     10  C   UNL     1       0.941  10.653  18.883  0.00  0.00    +0.000 A 
ATOM     11  C   UNL     1       1.472   9.792  17.930  0.00  0.00    +0.000 A 
ATOM     12  C   UNL     1       1.895   8.519  18.312  0.00  0.00    +0.000 A 
ATOM     13  C   UNL     1       1.787   8.085  19.648  0.00  0.00    +0.000 A 
BRANCH   8  15
ATOM     14  C   UNL     1       0.292   9.311  22.743  0.00  0.00    +0.000 C 
ATOM     15  O   UNL     1       1.112   8.509  21.895  0.00  0.00    +0.000 OA
ENDBRANCH   8  15
ENDBRANCH   1  13
BRANCH   5  16
ATOM     16  C   UNL     1       5.193   4.309  18.042  0.00  0.00    +0.000 A 
ATOM     17  C   UNL     1       4.484   4.021  16.869  0.00  0.00    +0.000 A 
ATOM     18  C   UNL     1       5.109   4.097  15.617  0.00  0.00    +0.000 A 
ATOM     19  C   UNL     1       6.455   4.464  15.518  0.00  0.00    +0.000 A 
ATOM     20  C   UNL     1       7.169   4.773  16.678  0.00  0.00    +0.000 A 
ATOM     21  C   UNL     1       6.543   4.672  17.926  0.00  0.00    +0.000 A 
BRANCH  19  22
ATOM     22  C   UNL     1       7.066   4.552  14.166  0.00  0.00    +0.000 C 
ATOM     23  O   UNL     1       7.867   5.419  13.862  0.00  0.00    +0.000 OA
BRANCH  22  24
ATOM     24  O   UNL     1       6.635   3.613  13.299  0.00  0.00    +0.000 OA
ATOM     25  H   UNL     1       6.937   3.725  12.380  0.00  0.00    +0.000 HD
ENDBRANCH  22  24
ENDBRANCH  19  22
ENDBRANCH   5  16
TORSDOF 5
ENDMDL
MODEL 2
REMARK VINA RESULT:      -7.9      0.163      1.017
REMARK  Name = 
REMARK  6 active torsions:
REMARK  status: ('A' for Active; 'I' for Inactive)
REMARK    1  A    between atoms: C_1  and  O_2
REMARK    2  A    between atoms: O_2  and  C_3
REMARK    3  A    between atoms: C_8  and  C_9
REMARK    4  A    between atoms: N_13  and  C_14
REMARK    5  A    between atoms: C_17  and  C_18
REMARK    6  A    between atoms: C_18  and  O_20
REMARK                            x       y       z     vdW  Elec       q    Type
REMARK                         _______ _______ _______ _____ _____    ______ ____
ROOT
ATOM      1  C   UNL     1       2.240   6.659  19.892  0.00  0.00    +0.000 A 
ATOM      2  C   UNL     1       1.605   5.797  20.763  0.00  0.00    +0.000 A 
ATOM      3  S   UNL     1       2.463   4.313  20.843  0.00  0.00    +0.000 S 
ATOM      4  C   UNL     1       3.587   4.900  19.674  0.00  0.00    +0.000 A 
ATOM      5  N   UNL     1       4.587   4.110  19.215  0.00  0.00    +0.000 N 
ATOM      6  N   UNL     1       3.384   6.145  19.309  0.00  0.00    +0.000 NA
ATOM      7  H   UNL     1       4.708   3.199  19.645  0.00  0.00    +0.000 HD
ENDROOT
BRANCH   1  13
ATOM      8  C   UNL     1       1.254   8.893  20.525  0.00  0.00    +0.000 A 
ATOM      9  C   UNL     1       0.841  10.172  20.126  0.00  0.00    +0.000 A 
ATOM     10  C   UNL     1       0.949  10.574  18.793  0.00  0.00    +0.000 A 
ATOM     11  C   UNL     1       1.485   9.708  17.847  0.00  0.00    +0.000 A 
ATOM     12  C   UNL     1       1.919   8.442  18.240  0.00  0.00    +0.000 A 
ATOM     13  C   UNL     1       1.818   8.021  19.580  0.00  0.00    +0.000 A 
BRANCH   8  15
ATOM     14  C   UNL     1       0.323   9.262  22.668  0.00  0.00    +0.000 C 
ATOM     15  O   UNL     1       1.146   8.459  21.824  0.00  0.00    +0.000 OA
ENDBRANCH   8  15
ENDBRANCH   1  13
BRANCH   5  16
ATOM     16  C   UNL     1       5.200   4.232  17.952  0.00  0.00    +0.000 A 
ATOM     17  C   UNL     1       6.521   4.690  17.872  0.00  0.00    +0.000 A 
ATOM     18  C   UNL     1       7.141   4.875  16.630  0.00  0.00    +0.000 A 
ATOM     19  C   UNL     1       6.450   4.602  15.445  0.00  0.00    +0.000 A 
ATOM     20  C   UNL     1       5.139   4.126  15.510  0.00  0.00    +0.000 A 
ATOM     21  C   UNL     1       4.519   3.967  16.755  0.00  0.00    +0.000 A 
BRANCH  19  22
ATOM     22  C   UNL     1       7.160   4.792  14.153  0.00  0.00    +0.000 C 
ATOM     23  O   UNL     1       8.082   5.578  14.019  0.00  0.00    +0.000 OA
BRANCH  22  24
ATOM     24  O   UNL     1       6.676   4.046  13.138  0.00  0.00    +0.000 OA
ATOM     25  H   UNL     1       7.147   4.140  12.291  0.00  0.00    +0.000 HD
ENDBRANCH  22  24
ENDBRANCH  19  22
ENDBRANCH   5  16
TORSDOF 5
ENDMDL
MODEL 3
REMARK VINA RESULT:      -7.8      3.422      4.922
REMARK  Name = 
REMARK  6 active torsions:
REMARK  status: ('A' for Active; 'I' for Inactive)
REMARK    1  A    between atoms: C_1  and  O_2
REMARK    2  A    between atoms: O_2  and  C_3
REMARK    3  A    between atoms: C_8  and  C_9
REMARK    4  A    between atoms: N_13  and  C_14
REMARK    5  A    between atoms: C_17  and  C_18
REMARK    6  A    between atoms: C_18  and  O_20
REMARK                            x       y       z     vdW  Elec       q    Type
REMARK                         _______ _______ _______ _____ _____    ______ ____
ROOT
ATOM      1  C   UNL     1       5.310   5.275  18.849  0.00  0.00    +0.000 A 
ATOM      2  C   UNL     1       6.431   5.568  19.598  0.00  0.00    +0.000 A 
ATOM      3  S   UNL     1       7.748   5.934  18.560  0.00  0.00    +0.000 S 
ATOM      4  C   UNL     1       6.751   5.625  17.187  0.00  0.00    +0.000 A 
ATOM      5  N   UNL     1       7.257   5.694  15.932  0.00  0.00    +0.000 N 
ATOM      6  N   UNL     1       5.500   5.347  17.481  0.00  0.00    +0.000 NA
ATOM      7  H   UNL     1       8.211   6.018  15.823  0.00  0.00    +0.000 HD
ENDROOT
BRANCH   1  13
ATOM      8  C   UNL     1       3.492   3.624  19.424  0.00  0.00    +0.000 A 
ATOM      9  C   UNL     1       2.198   3.395  19.913  0.00  0.00    +0.000 A 
ATOM     10  C   UNL     1       1.390   4.458  20.319  0.00  0.00    +0.000 A 
ATOM     11  C   UNL     1       1.870   5.761  20.255  0.00  0.00    +0.000 A 
ATOM     12  C   UNL     1       3.164   5.996  19.791  0.00  0.00    +0.000 A 
ATOM     13  C   UNL     1       3.993   4.936  19.378  0.00  0.00    +0.000 A 
BRANCH   8  15
ATOM     14  C   UNL     1       3.635   1.485  18.427  0.00  0.00    +0.000 C 
ATOM     15  O   UNL     1       4.308   2.603  19.000  0.00  0.00    +0.000 OA
ENDBRANCH   8  15
ENDBRANCH   1  13
BRANCH   5  16
ATOM     16  C   UNL     1       6.764   4.981  14.821  0.00  0.00    +0.000 A 
ATOM     17  C   UNL     1       5.560   4.275  14.938  0.00  0.00    +0.000 A 
ATOM     18  C   UNL     1       5.070   3.512  13.871  0.00  0.00    +0.000 A 
ATOM     19  C   UNL     1       5.776   3.444  12.665  0.00  0.00    +0.000 A 
ATOM     20  C   UNL     1       6.968   4.159  12.528  0.00  0.00    +0.000 A 
ATOM     21  C   UNL     1       7.462   4.899  13.607  0.00  0.00    +0.000 A 
BRANCH  19  22
ATOM     22  C   UNL     1       5.203   2.640  11.554  0.00  0.00    +0.000 C 
ATOM     23  O   UNL     1       4.195   2.972  10.954  0.00  0.00    +0.000 OA
BRANCH  22  24
ATOM     24  O   UNL     1       5.874   1.500  11.290  0.00  0.00    +0.000 OA
ATOM     25  H   UNL     1       5.650   0.743  11.861  0.00  0.00    +0.000 HD
ENDBRANCH  22  24
ENDBRANCH  19  22
ENDBRANCH   5  16
TORSDOF 5
ENDMDL
MODEL 4
REMARK VINA RESULT:      -7.7      2.952      4.691
REMARK  Name = 
REMARK  6 active torsions:
REMARK  status: ('A' for Active; 'I' for Inactive)
REMARK    1  A    between atoms: C_1  and  O_2
REMARK    2  A    between atoms: O_2  and  C_3
REMARK    3  A    between atoms: C_8  and  C_9
REMARK    4  A    between atoms: N_13  and  C_14
REMARK    5  A    between atoms: C_17  and  C_18
REMARK    6  A    between atoms: C_18  and  O_20
REMARK                            x       y       z     vdW  Elec       q    Type
REMARK                         _______ _______ _______ _____ _____    ______ ____
ROOT
ATOM      1  C   UNL     1       5.417   5.115  18.837  0.00  0.00    +0.000 A 
ATOM      2  C   UNL     1       6.519   5.554  19.542  0.00  0.00    +0.000 A 
ATOM      3  S   UNL     1       7.727   6.106  18.455  0.00  0.00    +0.000 S 
ATOM      4  C   UNL     1       6.723   5.673  17.120  0.00  0.00    +0.000 A 
ATOM      5  N   UNL     1       7.160   5.821  15.847  0.00  0.00    +0.000 N 
ATOM      6  N   UNL     1       5.537   5.223  17.463  0.00  0.00    +0.000 NA
ATOM      7  H   UNL     1       8.054   6.274  15.702  0.00  0.00    +0.000 HD
ENDROOT
BRANCH   1  13
ATOM      8  C   UNL     1       3.084   5.399  19.750  0.00  0.00    +0.000 A 
ATOM      9  C   UNL     1       1.953   4.817  20.340  0.00  0.00    +0.000 A 
ATOM     10  C   UNL     1       1.925   3.453  20.634  0.00  0.00    +0.000 A 
ATOM     11  C   UNL     1       3.019   2.652  20.328  0.00  0.00    +0.000 A 
ATOM     12  C   UNL     1       4.139   3.219  19.720  0.00  0.00    +0.000 A 
ATOM     13  C   UNL     1       4.185   4.593  19.416  0.00  0.00    +0.000 A 
BRANCH   8  15
ATOM     14  C   UNL     1       2.486   7.143  18.268  0.00  0.00    +0.000 C 
ATOM     15  O   UNL     1       3.152   6.742  19.463  0.00  0.00    +0.000 OA
ENDBRANCH   8  15
ENDBRANCH   1  13
BRANCH   5  16
ATOM     16  C   UNL     1       6.721   5.055  14.748  0.00  0.00    +0.000 A 
ATOM     17  C   UNL     1       5.513   4.352  14.840  0.00  0.00    +0.000 A 
ATOM     18  C   UNL     1       5.076   3.539  13.787  0.00  0.00    +0.000 A 
ATOM     19  C   UNL     1       5.841   3.415  12.622  0.00  0.00    +0.000 A 
ATOM     20  C   UNL     1       7.038   4.125  12.509  0.00  0.00    +0.000 A 
ATOM     21  C   UNL     1       7.479   4.916  13.575  0.00  0.00    +0.000 A 
BRANCH  19  22
ATOM     22  C   UNL     1       5.323   2.558  11.524  0.00  0.00    +0.000 C 
ATOM     23  O   UNL     1       4.296   2.813  10.919  0.00  0.00    +0.000 OA
BRANCH  22  24
ATOM     24  O   UNL     1       6.067   1.460  11.277  0.00  0.00    +0.000 OA
ATOM     25  H   UNL     1       6.969   1.477  11.645  0.00  0.00    +0.000 HD
ENDBRANCH  22  24
ENDBRANCH  19  22
ENDBRANCH   5  16
TORSDOF 5
ENDMDL
MODEL 5
REMARK VINA RESULT:      -7.4      3.412      4.979
REMARK  Name = 
REMARK  6 active torsions:
REMARK  status: ('A' for Active; 'I' for Inactive)
REMARK    1  A    between atoms: C_1  and  O_2
REMARK    2  A    between atoms: O_2  and  C_3
REMARK    3  A    between atoms: C_8  and  C_9
REMARK    4  A    between atoms: N_13  and  C_14
REMARK    5  A    between atoms: C_17  and  C_18
REMARK    6  A    between atoms: C_18  and  O_20
REMARK                            x       y       z     vdW  Elec       q    Type
REMARK                         _______ _______ _______ _____ _____    ______ ____
ROOT
ATOM      1  C   UNL     1       5.289   5.258  18.891  0.00  0.00    +0.000 A 
ATOM      2  C   UNL     1       6.425   5.584  19.602  0.00  0.00    +0.000 A 
ATOM      3  S   UNL     1       7.712   5.929  18.519  0.00  0.00    +0.000 S 
ATOM      4  C   UNL     1       6.683   5.569  17.182  0.00  0.00    +0.000 A 
ATOM      5  N   UNL     1       7.157   5.603  15.914  0.00  0.00    +0.000 N 
ATOM      6  N   UNL     1       5.444   5.289  17.517  0.00  0.00    +0.000 NA
ATOM      7  H   UNL     1       8.104   5.933  15.770  0.00  0.00    +0.000 HD
ENDROOT
BRANCH   1  13
ATOM      8  C   UNL     1       3.511   3.608  19.582  0.00  0.00    +0.000 A 
ATOM      9  C   UNL     1       2.232   3.381  20.109  0.00  0.00    +0.000 A 
ATOM     10  C   UNL     1       1.415   4.450  20.483  0.00  0.00    +0.000 A 
ATOM     11  C   UNL     1       1.872   5.755  20.349  0.00  0.00    +0.000 A 
ATOM     12  C   UNL     1       3.152   5.989  19.846  0.00  0.00    +0.000 A 
ATOM     13  C   UNL     1       3.989   4.923  19.464  0.00  0.00    +0.000 A 
BRANCH   8  15
ATOM     14  C   UNL     1       3.716   1.581  18.379  0.00  0.00    +0.000 C 
ATOM     15  O   UNL     1       4.334   2.581  19.187  0.00  0.00    +0.000 OA
ENDBRANCH   8  15
ENDBRANCH   1  13
BRANCH   5  16
ATOM     16  C   UNL     1       6.643   4.851  14.838  0.00  0.00    +0.000 A 
ATOM     17  C   UNL     1       7.394   4.735  13.662  0.00  0.00    +0.000 A 
ATOM     18  C   UNL     1       6.889   4.041  12.555  0.00  0.00    +0.000 A 
ATOM     19  C   UNL     1       5.622   3.450  12.607  0.00  0.00    +0.000 A 
ATOM     20  C   UNL     1       4.870   3.542  13.780  0.00  0.00    +0.000 A 
ATOM     21  C   UNL     1       5.372   4.257  14.872  0.00  0.00    +0.000 A 
BRANCH  19  22
ATOM     22  C   UNL     1       5.140   2.705  11.414  0.00  0.00    +0.000 C 
ATOM     23  O   UNL     1       4.132   3.020  10.806  0.00  0.00    +0.000 OA
BRANCH  22  24
ATOM     24  O   UNL     1       5.895   1.636  11.084  0.00  0.00    +0.000 OA
ATOM     25  H   UNL     1       6.096   1.546  10.136  0.00  0.00    +0.000 HD
ENDBRANCH  22  24
ENDBRANCH  19  22
ENDBRANCH   5  16
TORSDOF 5
ENDMDL
MODEL 6
REMARK VINA RESULT:      -7.3      1.147      2.014
REMARK  Name = 
REMARK  6 active torsions:
REMARK  status: ('A' for Active; 'I' for Inactive)
REMARK    1  A    between atoms: C_1  and  O_2
REMARK    2  A    between atoms: O_2  and  C_3
REMARK    3  A    between atoms: C_8  and  C_9
REMARK    4  A    between atoms: N_13  and  C_14
REMARK    5  A    between atoms: C_17  and  C_18
REMARK    6  A    between atoms: C_18  and  O_20
REMARK                            x       y       z     vdW  Elec       q    Type
REMARK                         _______ _______ _______ _____ _____    ______ ____
ROOT
ATOM      1  C   UNL     1       2.170   6.098  20.200  0.00  0.00    +0.000 A 
ATOM      2  C   UNL     1       1.532   5.104  20.911  0.00  0.00    +0.000 A 
ATOM      3  S   UNL     1       2.424   3.642  20.802  0.00  0.00    +0.000 S 
ATOM      4  C   UNL     1       3.569   4.418  19.772  0.00  0.00    +0.000 A 
ATOM      5  N   UNL     1       4.603   3.726  19.238  0.00  0.00    +0.000 N 
ATOM      6  N   UNL     1       3.345   5.700  19.588  0.00  0.00    +0.000 NA
ATOM      7  H   UNL     1       4.734   2.765  19.533  0.00  0.00    +0.000 HD
ENDROOT
BRANCH   1  13
ATOM      8  C   UNL     1       1.792   8.213  18.878  0.00  0.00    +0.000 A 
ATOM      9  C   UNL     1       1.376   9.552  18.860  0.00  0.00    +0.000 A 
ATOM     10  C   UNL     1       0.932  10.176  20.027  0.00  0.00    +0.000 A 
ATOM     11  C   UNL     1       0.883   9.466  21.221  0.00  0.00    +0.000 A 
ATOM     12  C   UNL     1       1.273   8.128  21.243  0.00  0.00    +0.000 A 
ATOM     13  C   UNL     1       1.724   7.481  20.076  0.00  0.00    +0.000 A 
BRANCH   8  15
ATOM     14  C   UNL     1       3.539   7.985  17.300  0.00  0.00    +0.000 C 
ATOM     15  O   UNL     1       2.251   7.572  17.752  0.00  0.00    +0.000 OA
ENDBRANCH   8  15
ENDBRANCH   1  13
BRANCH   5  16
ATOM     16  C   UNL     1       5.253   4.046  18.029  0.00  0.00    +0.000 A 
ATOM     17  C   UNL     1       4.587   3.832  16.815  0.00  0.00    +0.000 A 
ATOM     18  C   UNL     1       5.223   4.088  15.594  0.00  0.00    +0.000 A 
ATOM     19  C   UNL     1       6.538   4.566  15.566  0.00  0.00    +0.000 A 
ATOM     20  C   UNL     1       7.207   4.802  16.769  0.00  0.00    +0.000 A 
ATOM     21  C   UNL     1       6.572   4.521  17.984  0.00  0.00    +0.000 A 
BRANCH  19  22
ATOM     22  C   UNL     1       7.161   4.844  14.246  0.00  0.00    +0.000 C 
ATOM     23  O   UNL     1       8.066   5.648  14.103  0.00  0.00    +0.000 OA
BRANCH  22  24
ATOM     24  O   UNL     1       6.620   4.156  13.219  0.00  0.00    +0.000 OA
ATOM     25  H   UNL     1       5.646   4.153  13.189  0.00  0.00    +0.000 HD
ENDBRANCH  22  24
ENDBRANCH  19  22
ENDBRANCH   5  16
TORSDOF 5
ENDMDL
MODEL 7
REMARK VINA RESULT:      -7.2      2.885      4.682
REMARK  Name = 
REMARK  6 active torsions:
REMARK  status: ('A' for Active; 'I' for Inactive)
REMARK    1  A    between atoms: C_1  and  O_2
REMARK    2  A    between atoms: O_2  and  C_3
REMARK    3  A    between atoms: C_8  and  C_9
REMARK    4  A    between atoms: N_13  and  C_14
REMARK    5  A    between atoms: C_17  and  C_18
REMARK    6  A    between atoms: C_18  and  O_20
REMARK                            x       y       z     vdW  Elec       q    Type
REMARK                         _______ _______ _______ _____ _____    ______ ____
ROOT
ATOM      1  C   UNL     1       5.374   5.147  18.912  0.00  0.00    +0.000 A 
ATOM      2  C   UNL     1       6.480   5.598  19.603  0.00  0.00    +0.000 A 
ATOM      3  S   UNL     1       7.700   6.085  18.498  0.00  0.00    +0.000 S 
ATOM      4  C   UNL     1       6.694   5.612  17.179  0.00  0.00    +0.000 A 
ATOM      5  N   UNL     1       7.137   5.699  15.902  0.00  0.00    +0.000 N 
ATOM      6  N   UNL     1       5.500   5.195  17.535  0.00  0.00    +0.000 NA
ATOM      7  H   UNL     1       8.039   6.132  15.742  0.00  0.00    +0.000 HD
ENDROOT
BRANCH   1  13
ATOM      8  C   UNL     1       3.043   5.505  19.804  0.00  0.00    +0.000 A 
ATOM      9  C   UNL     1       1.901   4.966  20.414  0.00  0.00    +0.000 A 
ATOM     10  C   UNL     1       1.850   3.615  20.763  0.00  0.00    +0.000 A 
ATOM     11  C   UNL     1       2.932   2.785  20.494  0.00  0.00    +0.000 A 
ATOM     12  C   UNL     1       4.062   3.308  19.867  0.00  0.00    +0.000 A 
ATOM     13  C   UNL     1       4.132   4.668  19.508  0.00  0.00    +0.000 A 
BRANCH   8  15
ATOM     14  C   UNL     1       2.397   7.216  18.304  0.00  0.00    +0.000 C 
ATOM     15  O   UNL     1       3.134   6.833  19.463  0.00  0.00    +0.000 OA
ENDBRANCH   8  15
ENDBRANCH   1  13
BRANCH   5  16
ATOM     16  C   UNL     1       6.691   4.894  14.835  0.00  0.00    +0.000 A 
ATOM     17  C   UNL     1       7.415   4.882  13.636  0.00  0.00    +0.000 A 
ATOM     18  C   UNL     1       6.969   4.137  12.537  0.00  0.00    +0.000 A 
ATOM     19  C   UNL     1       5.790   3.388  12.620  0.00  0.00    +0.000 A 
ATOM     20  C   UNL     1       5.069   3.375  13.815  0.00  0.00    +0.000 A 
ATOM     21  C   UNL     1       5.509   4.142  14.900  0.00  0.00    +0.000 A 
BRANCH  19  22
ATOM     22  C   UNL     1       5.371   2.595  11.434  0.00  0.00    +0.000 C 
ATOM     23  O   UNL     1       4.385   2.872  10.773  0.00  0.00    +0.000 OA
BRANCH  22  24
ATOM     24  O   UNL     1       6.155   1.528  11.174  0.00  0.00    +0.000 OA
ATOM     25  H   UNL     1       5.682   0.689  11.033  0.00  0.00    +0.000 HD
ENDBRANCH  22  24
ENDBRANCH  19  22
ENDBRANCH   5  16
TORSDOF 5
ENDMDL
MODEL 8
REMARK VINA RESULT:      -7.1      1.962      7.228
REMARK  Name = 
REMARK  6 active torsions:
REMARK  status: ('A' for Active; 'I' for Inactive)
REMARK    1  A    between atoms: C_1  and  O_2
REMARK    2  A    between atoms: O_2  and  C_3
REMARK    3  A    between atoms: C_8  and  C_9
REMARK    4  A    between atoms: N_13  and  C_14
REMARK    5  A    between atoms: C_17  and  C_18
REMARK    6  A    between atoms: C_18  and  O_20
REMARK                            x       y       z     vdW  Elec       q    Type
REMARK                         _______ _______ _______ _____ _____    ______ ____
ROOT
ATOM      1  C   UNL     1       4.486   4.183  18.412  0.00  0.00    +0.000 A 
ATOM      2  C   UNL     1       4.539   3.185  19.363  0.00  0.00    +0.000 A 
ATOM      3  S   UNL     1       3.304   3.424  20.530  0.00  0.00    +0.000 S 
ATOM      4  C   UNL     1       2.819   4.868  19.721  0.00  0.00    +0.000 A 
ATOM      5  N   UNL     1       1.824   5.641  20.218  0.00  0.00    +0.000 N 
ATOM      6  N   UNL     1       3.480   5.111  18.612  0.00  0.00    +0.000 NA
ATOM      7  H   UNL     1       1.316   5.299  21.026  0.00  0.00    +0.000 HD
ENDROOT
BRANCH   1  13
ATOM      8  C   UNL     1       6.730   4.614  17.344  0.00  0.00    +0.000 A 
ATOM      9  C   UNL     1       7.488   4.752  16.172  0.00  0.00    +0.000 A 
ATOM     10  C   UNL     1       6.891   4.622  14.917  0.00  0.00    +0.000 A 
ATOM     11  C   UNL     1       5.534   4.338  14.817  0.00  0.00    +0.000 A 
ATOM     12  C   UNL     1       4.777   4.178  15.977  0.00  0.00    +0.000 A 
ATOM     13  C   UNL     1       5.362   4.305  17.252  0.00  0.00    +0.000 A 
BRANCH   8  15
ATOM     14  C   UNL     1       7.779   6.054  18.899  0.00  0.00    +0.000 C 
ATOM     15  O   UNL     1       7.280   4.753  18.595  0.00  0.00    +0.000 OA
ENDBRANCH   8  15
ENDBRANCH   1  13
BRANCH   5  16
ATOM     16  C   UNL     1       1.695   7.028  20.005  0.00  0.00    +0.000 A 
ATOM     17  C   UNL     1       1.198   7.836  21.035  0.00  0.00    +0.000 A 
ATOM     18  C   UNL     1       1.006   9.209  20.839  0.00  0.00    +0.000 A 
ATOM     19  C   UNL     1       1.310   9.799  19.607  0.00  0.00    +0.000 A 
ATOM     20  C   UNL     1       1.824   9.008  18.578  0.00  0.00    +0.000 A 
ATOM     21  C   UNL     1       1.991   7.633  18.775  0.00  0.00    +0.000 A 
BRANCH  19  22
ATOM     22  C   UNL     1       1.110  11.264  19.456  0.00  0.00    +0.000 C 
ATOM     23  O   UNL     1       1.007  12.015  20.411  0.00  0.00    +0.000 OA
BRANCH  22  24
ATOM     24  O   UNL     1       1.022  11.684  18.177  0.00  0.00    +0.000 OA
ATOM     25  H   UNL     1       0.151  12.031  17.912  0.00  0.00    +0.000 HD
ENDBRANCH  22  24
ENDBRANCH  19  22
ENDBRANCH   5  16
TORSDOF 5
ENDMDL
MODEL 9
REMARK VINA RESULT:      -7.0      1.167      2.259
REMARK  Name = 
REMARK  6 active torsions:
REMARK  status: ('A' for Active; 'I' for Inactive)
REMARK    1  A    between atoms: C_1  and  O_2
REMARK    2  A    between atoms: O_2  and  C_3
REMARK    3  A    between atoms: C_8  and  C_9
REMARK    4  A    between atoms: N_13  and  C_14
REMARK    5  A    between atoms: C_17  and  C_18
REMARK    6  A    between atoms: C_18  and  O_20
REMARK                            x       y       z     vdW  Elec       q    Type
REMARK                         _______ _______ _______ _____ _____    ______ ____
ROOT
ATOM      1  C   UNL     1       2.217   6.125  20.185  0.00  0.00    +0.000 A 
ATOM      2  C   UNL     1       1.611   5.182  20.989  0.00  0.00    +0.000 A 
ATOM      3  S   UNL     1       2.505   3.717  20.947  0.00  0.00    +0.000 S 
ATOM      4  C   UNL     1       3.605   4.421  19.820  0.00  0.00    +0.000 A 
ATOM      5  N   UNL     1       4.619   3.694  19.295  0.00  0.00    +0.000 N 
ATOM      6  N   UNL     1       3.368   5.686  19.556  0.00  0.00    +0.000 NA
ATOM      7  H   UNL     1       4.765   2.757  19.651  0.00  0.00    +0.000 HD
ENDROOT
BRANCH   1  13
ATOM      8  C   UNL     1       1.875   8.177  18.759  0.00  0.00    +0.000 A 
ATOM      9  C   UNL     1       1.445   9.509  18.666  0.00  0.00    +0.000 A 
ATOM     10  C   UNL     1       0.940  10.175  19.784  0.00  0.00    +0.000 A 
ATOM     11  C   UNL     1       0.845   9.515  21.003  0.00  0.00    +0.000 A 
ATOM     12  C   UNL     1       1.249   8.184  21.100  0.00  0.00    +0.000 A 
ATOM     13  C   UNL     1       1.761   7.496  19.982  0.00  0.00    +0.000 A 
BRANCH   8  15
ATOM     14  C   UNL     1       3.722   7.860  17.316  0.00  0.00    +0.000 C 
ATOM     15  O   UNL     1       2.393   7.496  17.684  0.00  0.00    +0.000 OA
ENDBRANCH   8  15
ENDBRANCH   1  13
BRANCH   5  16
ATOM     16  C   UNL     1       5.218   3.930  18.041  0.00  0.00    +0.000 A 
ATOM     17  C   UNL     1       6.505   4.480  17.988  0.00  0.00    +0.000 A 
ATOM     18  C   UNL     1       7.108   4.776  16.759  0.00  0.00    +0.000 A 
ATOM     19  C   UNL     1       6.432   4.526  15.560  0.00  0.00    +0.000 A 
ATOM     20  C   UNL     1       5.156   3.961  15.597  0.00  0.00    +0.000 A 
ATOM     21  C   UNL     1       4.552   3.689  16.830  0.00  0.00    +0.000 A 
BRANCH  19  22
ATOM     22  C   UNL     1       7.123   4.837  14.281  0.00  0.00    +0.000 C 
ATOM     23  O   UNL     1       8.034   5.644  14.205  0.00  0.00    +0.000 OA
BRANCH  22  24
ATOM     24  O   UNL     1       6.634   4.177  13.210  0.00  0.00    +0.000 OA
ATOM     25  H   UNL     1       5.663   4.143  13.150  0.00  0.00    +0.000 HD
ENDBRANCH  22  24
ENDBRANCH  19  22
ENDBRANCH   5  16
TORSDOF 5
ENDMDL
