MODEL 1
REMARK VINA RESULT:      -7.9      0.000      0.000
REMARK  Name = 
REMARK  6 active torsions:
REMARK  status: ('A' for Active; 'I' for Inactive)
REMARK    1  A    between atoms: C_1  and  O_2
REMARK    2  A    between atoms: O_2  and  C_3
REMARK    3  A    between atoms: N_6  and  C_7
REMARK    4  A    between atoms: C_11  and  C_12
REMARK    5  A    between atoms: C_13  and  C_14
REMARK    6  A    between atoms: C_15  and  C_16
REMARK                            x       y       z     vdW  Elec       q    Type
REMARK                         _______ _______ _______ _____ _____    ______ ____
ROOT
ATOM      1  C   UNL     1       4.572   4.199  18.963  0.00  0.00    +0.000 A 
ATOM      2  N   UNL     1       5.007   2.937  19.174  0.00  0.00    +0.000 NA
ATOM      3  C   UNL     1       4.329   2.182  20.052  0.00  0.00    +0.000 A 
ATOM      4  N   UNL     1       3.247   2.550  20.746  0.00  0.00    +0.000 NA
ATOM      5  C   UNL     1       2.800   3.806  20.519  0.00  0.00    +0.000 A 
ATOM      6  C   UNL     1       1.552   4.195  21.262  0.00  0.00    +0.000 C 
ATOM      7  C   UNL     1       3.431   4.682  19.631  0.00  0.00    +0.000 A 
ENDROOT
BRANCH   1  11
ATOM      8  C   UNL     1       7.132   4.311  15.874  0.00  0.00    +0.000 C 
ATOM      9  C   UNL     1       5.646   3.967  15.788  0.00  0.00    +0.000 C 
ATOM     10  C   UNL     1       4.791   4.908  16.625  0.00  0.00    +0.000 C 
ATOM     11  N   UNL     1       5.251   4.954  18.010  0.00  0.00    +0.000 N 
ATOM     12  C   UNL     1       6.651   5.328  18.202  0.00  0.00    +0.000 C 
ATOM     13  C   UNL     1       7.596   4.511  17.320  0.00  0.00    +0.000 C 
BRANCH   8  15
ATOM     14  C   UNL     1       7.535   5.213  13.700  0.00  0.00    +0.000 C 
ATOM     15  O   UNL     1       7.471   5.473  15.103  0.00  0.00    +0.000 OA
ENDBRANCH   8  15
ENDBRANCH   1  11
BRANCH   7  16
ATOM     16  C   UNL     1       2.872   5.977  19.367  0.00  0.00    +0.000 C 
ATOM     17  C   UNL     1       2.415   7.070  19.182  0.00  0.00    +0.000 C 
BRANCH  17  18
ATOM     18  C   UNL     1       1.902   8.390  19.031  0.00  0.00    +0.000 A 
ATOM     19  C   UNL     1       1.133   8.972  20.034  0.00  0.00    +0.000 A 
ATOM     20  C   UNL     1       0.622  10.253  19.839  0.00  0.00    +0.000 A 
ATOM     21  C   UNL     1       0.883  10.909  18.645  0.00  0.00    +0.000 A 
ATOM     22  N   UNL     1       0.400  12.196  18.426  0.00  0.00    +0.000 N 
ATOM     23  N   UNL     1       1.632  10.373  17.666  0.00  0.00    +0.000 NA
ATOM     24  C   UNL     1       2.126   9.129  17.878  0.00  0.00    +0.000 A 
ATOM     25  H   UNL     1      -0.601  12.251  18.572  0.00  0.00    +0.000 HD
ATOM     26  H   UNL     1       0.660  12.451  17.477  0.00  0.00    +0.000 HD
ENDBRANCH  17  18
ENDBRANCH   7  16
TORSDOF 4
ENDMDL
MODEL 2
REMARK VINA RESULT:      -7.8      1.811      2.204
REMARK  Name = 
REMARK  6 active torsions:
REMARK  status: ('A' for Active; 'I' for Inactive)
REMARK    1  A    between atoms: C_1  and  O_2
REMARK    2  A    between atoms: O_2  and  C_3
REMARK    3  A    between atoms: N_6  and  C_7
REMARK    4  A    between atoms: C_11  and  C_12
REMARK    5  A    between atoms: C_13  and  C_14
REMARK    6  A    between atoms: C_15  and  C_16
REMARK                            x       y       z     vdW  Elec       q    Type
REMARK                         _______ _______ _______ _____ _____    ______ ____
ROOT
ATOM      1  C   UNL     1       4.071   4.465  18.997  0.00  0.00    +0.000 A 
ATOM      2  N   UNL     1       4.467   3.250  18.555  0.00  0.00    +0.000 NA
ATOM      3  C   UNL     1       3.656   2.207  18.787  0.00  0.00    +0.000 A 
ATOM      4  N   UNL     1       2.476   2.244  19.416  0.00  0.00    +0.000 NA
ATOM      5  C   UNL     1       2.072   3.462  19.840  0.00  0.00    +0.000 A 
ATOM      6  C   UNL     1       0.720   3.505  20.498  0.00  0.00    +0.000 C 
ATOM      7  C   UNL     1       2.838   4.617  19.657  0.00  0.00    +0.000 A 
ENDROOT
BRANCH   1  11
ATOM      8  C   UNL     1       7.020   6.012  16.755  0.00  0.00    +0.000 C 
ATOM      9  C   UNL     1       5.547   5.927  16.356  0.00  0.00    +0.000 C 
ATOM     10  C   UNL     1       4.621   6.326  17.496  0.00  0.00    +0.000 C 
ATOM     11  N   UNL     1       4.895   5.548  18.701  0.00  0.00    +0.000 N 
ATOM     12  C   UNL     1       6.269   5.607  19.196  0.00  0.00    +0.000 C 
ATOM     13  C   UNL     1       7.295   5.327  18.097  0.00  0.00    +0.000 C 
BRANCH   8  15
ATOM     14  C   UNL     1       8.098   7.696  18.060  0.00  0.00    +0.000 C 
ATOM     15  O   UNL     1       7.496   7.364  16.807  0.00  0.00    +0.000 OA
ENDBRANCH   8  15
ENDBRANCH   1  11
BRANCH   7  16
ATOM     16  C   UNL     1       2.329   5.898  20.056  0.00  0.00    +0.000 C 
ATOM     17  C   UNL     1       1.907   6.980  20.353  0.00  0.00    +0.000 C 
BRANCH  17  18
ATOM     18  C   UNL     1       1.405   8.285  20.630  0.00  0.00    +0.000 A 
ATOM     19  C   UNL     1       1.077   9.153  19.594  0.00  0.00    +0.000 A 
ATOM     20  C   UNL     1       0.619  10.432  19.902  0.00  0.00    +0.000 A 
ATOM     21  C   UNL     1       0.514  10.809  21.233  0.00  0.00    +0.000 A 
ATOM     22  N   UNL     1       0.045  12.075  21.574  0.00  0.00    +0.000 N 
ATOM     23  N   UNL     1       0.815   9.985  22.251  0.00  0.00    +0.000 NA
ATOM     24  C   UNL     1       1.252   8.743  21.930  0.00  0.00    +0.000 A 
ATOM     25  H   UNL     1       0.566  12.807  21.107  0.00  0.00    +0.000 HD
ATOM     26  H   UNL     1       0.107  12.149  22.586  0.00  0.00    +0.000 HD
ENDBRANCH  17  18
ENDBRANCH   7  16
TORSDOF 4
ENDMDL
MODEL 3
REMARK VINA RESULT:      -7.7      1.521      1.818
REMARK  Name = 
REMARK  6 active torsions:
REMARK  status: ('A' for Active; 'I' for Inactive)
REMARK    1  A    between atoms: C_1  and  O_2
REMARK    2  A    between atoms: O_2  and  C_3
REMARK    3  A    between atoms: N_6  and  C_7
REMARK    4  A    between atoms: C_11  and  C_12
REMARK    5  A    between atoms: C_13  and  C_14
REMARK    6  A    between atoms: C_15  and  C_16
REMARK                            x       y       z     vdW  Elec       q    Type
REMARK                         _______ _______ _______ _____ _____    ______ ____
ROOT
ATOM      1  C   UNL     1       3.882   4.177  18.562  0.00  0.00    +0.000 A 
ATOM      2  N   UNL     1       4.171   2.944  18.090  0.00  0.00    +0.000 NA
ATOM      3  C   UNL     1       3.348   1.939  18.428  0.00  0.00    +0.000 A 
ATOM      4  N   UNL     1       2.252   2.032  19.189  0.00  0.00    +0.000 NA
ATOM      5  C   UNL     1       1.954   3.269  19.644  0.00  0.00    +0.000 A 
ATOM      6  C   UNL     1       0.692   3.375  20.455  0.00  0.00    +0.000 C 
ATOM      7  C   UNL     1       2.743   4.388  19.360  0.00  0.00    +0.000 A 
ENDROOT
BRANCH   1  11
ATOM      8  C   UNL     1       7.138   5.381  16.547  0.00  0.00    +0.000 C 
ATOM      9  C   UNL     1       5.765   5.099  15.937  0.00  0.00    +0.000 C 
ATOM     10  C   UNL     1       4.637   5.680  16.776  0.00  0.00    +0.000 C 
ATOM     11  N   UNL     1       4.712   5.221  18.160  0.00  0.00    +0.000 N 
ATOM     12  C   UNL     1       5.971   5.492  18.851  0.00  0.00    +0.000 C 
ATOM     13  C   UNL     1       7.187   5.043  18.040  0.00  0.00    +0.000 C 
BRANCH   8  15
ATOM     14  C   UNL     1       7.762   7.440  17.584  0.00  0.00    +0.000 C 
ATOM     15  O   UNL     1       7.554   6.740  16.355  0.00  0.00    +0.000 OA
ENDBRANCH   8  15
ENDBRANCH   1  11
BRANCH   7  16
ATOM     16  C   UNL     1       2.339   5.692  19.802  0.00  0.00    +0.000 C 
ATOM     17  C   UNL     1       1.980   6.785  20.139  0.00  0.00    +0.000 C 
BRANCH  17  18
ATOM     18  C   UNL     1       1.504   8.084  20.479  0.00  0.00    +0.000 A 
ATOM     19  C   UNL     1       1.163   8.392  21.792  0.00  0.00    +0.000 A 
ATOM     20  C   UNL     1       0.671   9.663  22.084  0.00  0.00    +0.000 A 
ATOM     21  C   UNL     1       0.526  10.582  21.055  0.00  0.00    +0.000 A 
ATOM     22  N   UNL     1       0.053  11.865  21.316  0.00  0.00    +0.000 N 
ATOM     23  N   UNL     1       0.859  10.312  19.781  0.00  0.00    +0.000 NA
ATOM     24  C   UNL     1       1.342   9.073  19.520  0.00  0.00    +0.000 A 
ATOM     25  H   UNL     1      -0.829  11.846  21.812  0.00  0.00    +0.000 HD
ATOM     26  H   UNL     1      -0.026  12.339  20.419  0.00  0.00    +0.000 HD
ENDBRANCH  17  18
ENDBRANCH   7  16
TORSDOF 4
ENDMDL
MODEL 4
REMARK VINA RESULT:      -6.8      2.503      2.703
REMARK  Name = 
REMARK  6 active torsions:
REMARK  status: ('A' for Active; 'I' for Inactive)
REMARK    1  A    between atoms: C_1  and  O_2
REMARK    2  A    between atoms: O_2  and  C_3
REMARK    3  A    between atoms: N_6  and  C_7
REMARK    4  A    between atoms: C_11  and  C_12
REMARK    5  A    between atoms: C_13  and  C_14
REMARK    6  A    between atoms: C_15  and  C_16
REMARK                            x       y       z     vdW  Elec       q    Type
REMARK                         _______ _______ _______ _____ _____    ______ ____
ROOT
ATOM      1  C   UNL     1       3.943   4.341  18.699  0.00  0.00    +0.000 A 
ATOM      2  N   UNL     1       4.364   3.217  18.076  0.00  0.00    +0.000 NA
ATOM      3  C   UNL     1       3.598   2.121  18.183  0.00  0.00    +0.000 A 
ATOM      4  N   UNL     1       2.440   2.023  18.846  0.00  0.00    +0.000 NA
ATOM      5  C   UNL     1       2.011   3.153  19.451  0.00  0.00    +0.000 A 
ATOM      6  C   UNL     1       0.682   3.051  20.149  0.00  0.00    +0.000 C 
ATOM      7  C   UNL     1       2.730   4.351  19.411  0.00  0.00    +0.000 A 
ENDROOT
BRANCH   1  11
ATOM      8  C   UNL     1       6.925   6.209  16.766  0.00  0.00    +0.000 C 
ATOM      9  C   UNL     1       5.485   6.075  16.269  0.00  0.00    +0.000 C 
ATOM     10  C   UNL     1       4.473   6.337  17.374  0.00  0.00    +0.000 C 
ATOM     11  N   UNL     1       4.719   5.486  18.535  0.00  0.00    +0.000 N 
ATOM     12  C   UNL     1       6.056   5.581  19.118  0.00  0.00    +0.000 C 
ATOM     13  C   UNL     1       7.159   5.439  18.070  0.00  0.00    +0.000 C 
BRANCH   8  15
ATOM     14  C   UNL     1       8.135   7.775  18.102  0.00  0.00    +0.000 C 
ATOM     15  O   UNL     1       7.318   7.577  16.946  0.00  0.00    +0.000 OA
ENDBRANCH   8  15
ENDBRANCH   1  11
BRANCH   7  16
ATOM     16  C   UNL     1       2.192   5.542  20.003  0.00  0.00    +0.000 C 
ATOM     17  C   UNL     1       1.716   6.515  20.516  0.00  0.00    +0.000 C 
BRANCH  17  18
ATOM     18  C   UNL     1       1.104   7.626  21.167  0.00  0.00    +0.000 A 
ATOM     19  C   UNL     1       1.881   8.605  21.779  0.00  0.00    +0.000 A 
ATOM     20  C   UNL     1       1.248   9.660  22.433  0.00  0.00    +0.000 A 
ATOM     21  C   UNL     1      -0.138   9.699  22.466  0.00  0.00    +0.000 A 
ATOM     22  N   UNL     1      -0.800  10.748  23.098  0.00  0.00    +0.000 N 
ATOM     23  N   UNL     1      -0.909   8.771  21.874  0.00  0.00    +0.000 NA
ATOM     24  C   UNL     1      -0.275   7.757  21.237  0.00  0.00    +0.000 A 
ATOM     25  H   UNL     1      -0.485  10.870  24.053  0.00  0.00    +0.000 HD
ATOM     26  H   UNL     1      -1.794  10.541  23.050  0.00  0.00    +0.000 HD
ENDBRANCH  17  18
ENDBRANCH   7  16
TORSDOF 4
ENDMDL
MODEL 5
REMARK VINA RESULT:      -6.6      2.524      4.700
REMARK  Name = 
REMARK  6 active torsions:
REMARK  status: ('A' for Active; 'I' for Inactive)
REMARK    1  A    between atoms: C_1  and  O_2
REMARK    2  A    between atoms: O_2  and  C_3
REMARK    3  A    between atoms: N_6  and  C_7
REMARK    4  A    between atoms: C_11  and  C_12
REMARK    5  A    between atoms: C_13  and  C_14
REMARK    6  A    between atoms: C_15  and  C_16
REMARK                            x       y       z     vdW  Elec       q    Type
REMARK                         _______ _______ _______ _____ _____    ______ ____
ROOT
ATOM      1  C   UNL     1       4.589   3.894  16.907  0.00  0.00    +0.000 A 
ATOM      2  N   UNL     1       5.473   3.195  16.161  0.00  0.00    +0.000 NA
ATOM      3  C   UNL     1       6.231   3.877  15.289  0.00  0.00    +0.000 A 
ATOM      4  N   UNL     1       6.209   5.198  15.083  0.00  0.00    +0.000 NA
ATOM      5  C   UNL     1       5.338   5.899  15.843  0.00  0.00    +0.000 A 
ATOM      6  C   UNL     1       5.356   7.390  15.643  0.00  0.00    +0.000 C 
ATOM      7  C   UNL     1       4.495   5.292  16.778  0.00  0.00    +0.000 A 
ENDROOT
BRANCH   1  11
ATOM      8  C   UNL     1       1.643   3.864  19.633  0.00  0.00    +0.000 C 
ATOM      9  C   UNL     1       1.460   3.728  18.122  0.00  0.00    +0.000 C 
ATOM     10  C   UNL     1       2.483   2.786  17.505  0.00  0.00    +0.000 C 
ATOM     11  N   UNL     1       3.847   3.182  17.846  0.00  0.00    +0.000 N 
ATOM     12  C   UNL     1       4.138   3.289  19.274  0.00  0.00    +0.000 C 
ATOM     13  C   UNL     1       3.101   4.132  20.017  0.00  0.00    +0.000 C 
BRANCH   8  15
ATOM     14  C   UNL     1       1.550   2.716  21.725  0.00  0.00    +0.000 C 
ATOM     15  O   UNL     1       1.169   2.714  20.348  0.00  0.00    +0.000 OA
ENDBRANCH   8  15
ENDBRANCH   1  11
BRANCH   7  16
ATOM     16  C   UNL     1       3.646   6.089  17.616  0.00  0.00    +0.000 C 
ATOM     17  C   UNL     1       2.958   6.786  18.307  0.00  0.00    +0.000 C 
BRANCH  17  18
ATOM     18  C   UNL     1       2.180   7.676  19.104  0.00  0.00    +0.000 A 
ATOM     19  C   UNL     1       1.895   7.374  20.432  0.00  0.00    +0.000 A 
ATOM     20  C   UNL     1       1.106   8.252  21.171  0.00  0.00    +0.000 A 
ATOM     21  C   UNL     1       0.616   9.397  20.560  0.00  0.00    +0.000 A 
ATOM     22  N   UNL     1      -0.162  10.303  21.277  0.00  0.00    +0.000 N 
ATOM     23  N   UNL     1       0.887   9.716  19.283  0.00  0.00    +0.000 NA
ATOM     24  C   UNL     1       1.662   8.853  18.583  0.00  0.00    +0.000 A 
ATOM     25  H   UNL     1      -0.953   9.851  21.718  0.00  0.00    +0.000 HD
ATOM     26  H   UNL     1      -0.452  11.024  20.622  0.00  0.00    +0.000 HD
ENDBRANCH  17  18
ENDBRANCH   7  16
TORSDOF 4
ENDMDL
MODEL 6
REMARK VINA RESULT:      -6.5      1.540      2.088
REMARK  Name = 
REMARK  6 active torsions:
REMARK  status: ('A' for Active; 'I' for Inactive)
REMARK    1  A    between atoms: C_1  and  O_2
REMARK    2  A    between atoms: O_2  and  C_3
REMARK    3  A    between atoms: N_6  and  C_7
REMARK    4  A    between atoms: C_11  and  C_12
REMARK    5  A    between atoms: C_13  and  C_14
REMARK    6  A    between atoms: C_15  and  C_16
REMARK                            x       y       z     vdW  Elec       q    Type
REMARK                         _______ _______ _______ _____ _____    ______ ____
ROOT
ATOM      1  C   UNL     1       4.139   3.364  18.108  0.00  0.00    +0.000 A 
ATOM      2  N   UNL     1       4.286   2.020  18.069  0.00  0.00    +0.000 NA
ATOM      3  C   UNL     1       3.299   1.270  18.580  0.00  0.00    +0.000 A 
ATOM      4  N   UNL     1       2.164   1.718  19.129  0.00  0.00    +0.000 NA
ATOM      5  C   UNL     1       2.010   3.061  19.149  0.00  0.00    +0.000 A 
ATOM      6  C   UNL     1       0.709   3.556  19.718  0.00  0.00    +0.000 C 
ATOM      7  C   UNL     1       2.976   3.939  18.650  0.00  0.00    +0.000 A 
ENDROOT
BRANCH   1  11
ATOM      8  C   UNL     1       5.718   6.989  17.418  0.00  0.00    +0.000 C 
ATOM      9  C   UNL     1       5.905   6.162  18.690  0.00  0.00    +0.000 C 
ATOM     10  C   UNL     1       6.180   4.698  18.384  0.00  0.00    +0.000 C 
ATOM     11  N   UNL     1       5.146   4.130  17.524  0.00  0.00    +0.000 N 
ATOM     12  C   UNL     1       4.926   4.821  16.255  0.00  0.00    +0.000 C 
ATOM     13  C   UNL     1       4.745   6.328  16.437  0.00  0.00    +0.000 C 
BRANCH   8  15
ATOM     14  C   UNL     1       7.864   8.030  17.536  0.00  0.00    +0.000 C 
ATOM     15  O   UNL     1       6.959   7.254  16.748  0.00  0.00    +0.000 OA
ENDBRANCH   8  15
ENDBRANCH   1  11
BRANCH   7  16
ATOM     16  C   UNL     1       2.729   5.352  18.624  0.00  0.00    +0.000 C 
ATOM     17  C   UNL     1       2.488   6.527  18.619  0.00  0.00    +0.000 C 
BRANCH  17  18
ATOM     18  C   UNL     1       2.138   7.908  18.654  0.00  0.00    +0.000 A 
ATOM     19  C   UNL     1       1.467   8.442  19.750  0.00  0.00    +0.000 A 
ATOM     20  C   UNL     1       1.113   9.789  19.736  0.00  0.00    +0.000 A 
ATOM     21  C   UNL     1       1.429  10.559  18.626  0.00  0.00    +0.000 A 
ATOM     22  N   UNL     1       1.103  11.911  18.589  0.00  0.00    +0.000 N 
ATOM     23  N   UNL     1       2.086  10.069  17.561  0.00  0.00    +0.000 NA
ATOM     24  C   UNL     1       2.428   8.758  17.597  0.00  0.00    +0.000 A 
ATOM     25  H   UNL     1       0.120  12.066  18.776  0.00  0.00    +0.000 HD
ATOM     26  H   UNL     1       1.374  12.254  17.671  0.00  0.00    +0.000 HD
ENDBRANCH  17  18
ENDBRANCH   7  16
TORSDOF 4
ENDMDL
MODEL 7
REMARK VINA RESULT:      -6.3      2.790      6.594
REMARK  Name = 
REMARK  6 active torsions:
REMARK  status: ('A' for Active; 'I' for Inactive)
REMARK    1  A    between atoms: C_1  and  O_2
REMARK    2  A    between atoms: O_2  and  C_3
REMARK    3  A    between atoms: N_6  and  C_7
REMARK    4  A    between atoms: C_11  and  C_12
REMARK    5  A    between atoms: C_13  and  C_14
REMARK    6  A    between atoms: C_15  and  C_16
REMARK                            x       y       z     vdW  Elec       q    Type
REMARK                         _______ _______ _______ _____ _____    ______ ____
ROOT
ATOM      1  C   UNL     1       2.103   5.345  19.627  0.00  0.00    +0.000 A 
ATOM      2  N   UNL     1       1.263   5.037  20.640  0.00  0.00    +0.000 NA
ATOM      3  C   UNL     1       0.924   3.749  20.799  0.00  0.00    +0.000 A 
ATOM      4  N   UNL     1       1.341   2.720  20.052  0.00  0.00    +0.000 NA
ATOM      5  C   UNL     1       2.196   3.027  19.052  0.00  0.00    +0.000 A 
ATOM      6  C   UNL     1       2.703   1.860  18.249  0.00  0.00    +0.000 C 
ATOM      7  C   UNL     1       2.613   4.336  18.790  0.00  0.00    +0.000 A 
ENDROOT
BRANCH   1  11
ATOM      8  C   UNL     1       1.083   9.153  18.868  0.00  0.00    +0.000 C 
ATOM      9  C   UNL     1       0.910   8.432  20.205  0.00  0.00    +0.000 C 
ATOM     10  C   UNL     1       2.135   7.608  20.573  0.00  0.00    +0.000 C 
ATOM     11  N   UNL     1       2.491   6.677  19.506  0.00  0.00    +0.000 N 
ATOM     12  C   UNL     1       2.730   7.277  18.195  0.00  0.00    +0.000 C 
ATOM     13  C   UNL     1       1.602   8.218  17.771  0.00  0.00    +0.000 C 
BRANCH   8  15
ATOM     14  C   UNL     1       1.239  11.523  19.115  0.00  0.00    +0.000 C 
ATOM     15  O   UNL     1       1.950  10.292  18.968  0.00  0.00    +0.000 OA
ENDBRANCH   8  15
ENDBRANCH   1  11
BRANCH   7  16
ATOM     16  C   UNL     1       3.583   4.598  17.766  0.00  0.00    +0.000 C 
ATOM     17  C   UNL     1       4.413   4.786  16.921  0.00  0.00    +0.000 C 
BRANCH  17  18
ATOM     18  C   UNL     1       5.431   4.941  15.936  0.00  0.00    +0.000 A 
ATOM     19  C   UNL     1       5.289   4.371  14.675  0.00  0.00    +0.000 A 
ATOM     20  C   UNL     1       6.318   4.516  13.746  0.00  0.00    +0.000 A 
ATOM     21  C   UNL     1       7.460   5.215  14.109  0.00  0.00    +0.000 A 
ATOM     22  N   UNL     1       8.499   5.391  13.199  0.00  0.00    +0.000 N 
ATOM     23  N   UNL     1       7.615   5.784  15.316  0.00  0.00    +0.000 NA
ATOM     24  C   UNL     1       6.600   5.637  16.202  0.00  0.00    +0.000 A 
ATOM     25  H   UNL     1       8.811   4.510  12.811  0.00  0.00    +0.000 HD
ATOM     26  H   UNL     1       9.244   5.875  13.693  0.00  0.00    +0.000 HD
ENDBRANCH  17  18
ENDBRANCH   7  16
TORSDOF 4
ENDMDL
MODEL 8
REMARK VINA RESULT:      -6.3      2.414      4.536
REMARK  Name = 
REMARK  6 active torsions:
REMARK  status: ('A' for Active; 'I' for Inactive)
REMARK    1  A    between atoms: C_1  and  O_2
REMARK    2  A    between atoms: O_2  and  C_3
REMARK    3  A    between atoms: N_6  and  C_7
REMARK    4  A    between atoms: C_11  and  C_12
REMARK    5  A    between atoms: C_13  and  C_14
REMARK    6  A    between atoms: C_15  and  C_16
REMARK                            x       y       z     vdW  Elec       q    Type
REMARK                         _______ _______ _______ _____ _____    ______ ____
ROOT
ATOM      1  C   UNL     1       4.914   4.885  17.443  0.00  0.00    +0.000 A 
ATOM      2  N   UNL     1       5.952   4.064  17.165  0.00  0.00    +0.000 NA
ATOM      3  C   UNL     1       7.133   4.629  16.874  0.00  0.00    +0.000 A 
ATOM      4  N   UNL     1       7.398   5.940  16.835  0.00  0.00    +0.000 NA
ATOM      5  C   UNL     1       6.365   6.758  17.133  0.00  0.00    +0.000 A 
ATOM      6  C   UNL     1       6.683   8.228  17.141  0.00  0.00    +0.000 C 
ATOM      7  C   UNL     1       5.089   6.281  17.446  0.00  0.00    +0.000 A 
ENDROOT
BRANCH   1  11
ATOM      8  C   UNL     1       2.996   1.895  19.313  0.00  0.00    +0.000 C 
ATOM      9  C   UNL     1       3.551   3.154  19.980  0.00  0.00    +0.000 C 
ATOM     10  C   UNL     1       3.245   4.409  19.177  0.00  0.00    +0.000 C 
ATOM     11  N   UNL     1       3.708   4.285  17.798  0.00  0.00    +0.000 N 
ATOM     12  C   UNL     1       3.189   3.138  17.055  0.00  0.00    +0.000 C 
ATOM     13  C   UNL     1       3.349   1.827  17.824  0.00  0.00    +0.000 C 
BRANCH   8  15
ATOM     14  C   UNL     1       1.057   2.589  20.523  0.00  0.00    +0.000 C 
ATOM     15  O   UNL     1       1.574   1.774  19.469  0.00  0.00    +0.000 OA
ENDBRANCH   8  15
ENDBRANCH   1  11
BRANCH   7  16
ATOM     16  C   UNL     1       4.047   7.188  17.831  0.00  0.00    +0.000 C 
ATOM     17  C   UNL     1       3.160   7.919  18.175  0.00  0.00    +0.000 C 
BRANCH  17  18
ATOM     18  C   UNL     1       2.082   8.732  18.632  0.00  0.00    +0.000 A 
ATOM     19  C   UNL     1       1.570   9.746  17.830  0.00  0.00    +0.000 A 
ATOM     20  C   UNL     1       0.537  10.541  18.321  0.00  0.00    +0.000 A 
ATOM     21  C   UNL     1       0.055  10.306  19.601  0.00  0.00    +0.000 A 
ATOM     22  N   UNL     1      -0.987  11.073  20.115  0.00  0.00    +0.000 N 
ATOM     23  N   UNL     1       0.526   9.326  20.390  0.00  0.00    +0.000 NA
ATOM     24  C   UNL     1       1.526   8.559  19.891  0.00  0.00    +0.000 A 
ATOM     25  H   UNL     1      -0.787  12.064  20.059  0.00  0.00    +0.000 HD
ATOM     26  H   UNL     1      -1.133  10.768  21.073  0.00  0.00    +0.000 HD
ENDBRANCH  17  18
ENDBRANCH   7  16
TORSDOF 4
ENDMDL
MODEL 9
REMARK VINA RESULT:      -6.2      2.365      4.492
REMARK  Name = 
REMARK  6 active torsions:
REMARK  status: ('A' for Active; 'I' for Inactive)
REMARK    1  A    between atoms: C_1  and  O_2
REMARK    2  A    between atoms: O_2  and  C_3
REMARK    3  A    between atoms: N_6  and  C_7
REMARK    4  A    between atoms: C_11  and  C_12
REMARK    5  A    between atoms: C_13  and  C_14
REMARK    6  A    between atoms: C_15  and  C_16
REMARK                            x       y       z     vdW  Elec       q    Type
REMARK                         _______ _______ _______ _____ _____    ______ ____
ROOT
ATOM      1  C   UNL     1       5.179   4.476  17.473  0.00  0.00    +0.000 A 
ATOM      2  N   UNL     1       6.253   3.797  17.013  0.00  0.00    +0.000 NA
ATOM      3  C   UNL     1       7.278   4.509  16.522  0.00  0.00    +0.000 A 
ATOM      4  N   UNL     1       7.353   5.842  16.444  0.00  0.00    +0.000 NA
ATOM      5  C   UNL     1       6.287   6.521  16.923  0.00  0.00    +0.000 A 
ATOM      6  C   UNL     1       6.400   8.020  16.882  0.00  0.00    +0.000 C 
ATOM      7  C   UNL     1       5.161   5.883  17.452  0.00  0.00    +0.000 A 
ENDROOT
BRANCH   1  11
ATOM      8  C   UNL     1       1.590   4.401  19.270  0.00  0.00    +0.000 C 
ATOM      9  C   UNL     1       1.832   4.534  17.767  0.00  0.00    +0.000 C 
ATOM     10  C   UNL     1       2.906   3.575  17.274  0.00  0.00    +0.000 C 
ATOM     11  N   UNL     1       4.145   3.728  18.031  0.00  0.00    +0.000 N 
ATOM     12  C   UNL     1       4.028   3.566  19.479  0.00  0.00    +0.000 C 
ATOM     13  C   UNL     1       2.897   4.410  20.069  0.00  0.00    +0.000 C 
BRANCH   8  15
ATOM     14  C   UNL     1       1.013   2.817  20.962  0.00  0.00    +0.000 C 
ATOM     15  O   UNL     1       0.840   3.224  19.603  0.00  0.00    +0.000 OA
ENDBRANCH   8  15
ENDBRANCH   1  11
BRANCH   7  16
ATOM     16  C   UNL     1       4.090   6.650  18.019  0.00  0.00    +0.000 C 
ATOM     17  C   UNL     1       3.207   7.323  18.473  0.00  0.00    +0.000 C 
BRANCH  17  18
ATOM     18  C   UNL     1       2.181   8.180  18.967  0.00  0.00    +0.000 A 
ATOM     19  C   UNL     1       1.731   8.064  20.278  0.00  0.00    +0.000 A 
ATOM     20  C   UNL     1       0.705   8.898  20.718  0.00  0.00    +0.000 A 
ATOM     21  C   UNL     1       0.154   9.813  19.833  0.00  0.00    +0.000 A 
ATOM     22  N   UNL     1      -0.862  10.671  20.246  0.00  0.00    +0.000 N 
ATOM     23  N   UNL     1       0.579   9.952  18.566  0.00  0.00    +0.000 NA
ATOM     24  C   UNL     1       1.583   9.136  18.160  0.00  0.00    +0.000 A 
ATOM     25  H   UNL     1      -1.637  10.166  20.657  0.00  0.00    +0.000 HD
ATOM     26  H   UNL     1      -1.147  11.205  19.429  0.00  0.00    +0.000 HD
ENDBRANCH  17  18
ENDBRANCH   7  16
TORSDOF 4
ENDMDL
