MODEL 1
REMARK VINA RESULT:      -7.8      0.000      0.000
REMARK  Name = 
REMARK  8 active torsions:
REMARK  status: ('A' for Active; 'I' for Inactive)
REMARK    1  A    between atoms: C_1  and  O_2
REMARK    2  A    between atoms: O_2  and  C_3
REMARK    3  A    between atoms: C_7  and  O_8
REMARK    4  A    between atoms: O_8  and  C_9
REMARK    5  A    between atoms: C_10  and  O_11
REMARK    6  A    between atoms: O_11  and  C_12
REMARK    7  A    between atoms: C_15  and  C_16
REMARK    8  A    between atoms: C_16  and  C_17
REMARK                            x       y       z     vdW  Elec       q    Type
REMARK                         _______ _______ _______ _____ _____    ______ ____
ROOT
ATOM      1  C   UNL     1       4.586   4.894  17.701  0.00  0.00    +0.000 A 
ATOM      2  C   UNL     1       4.320   6.153  17.149  0.00  0.00    +0.000 A 
ATOM      3  C   UNL     1       3.414   7.019  17.756  0.00  0.00    +0.000 A 
ATOM      4  C   UNL     1       2.770   6.629  18.936  0.00  0.00    +0.000 A 
ATOM      5  C   UNL     1       2.962   5.339  19.476  0.00  0.00    +0.000 A 
ATOM      6  C   UNL     1       3.902   4.476  18.863  0.00  0.00    +0.000 A 
ATOM      7  C   UNL     1       1.999   7.702  19.600  0.00  0.00    +0.000 C 
ATOM      8  O   UNL     1       1.948   7.790  20.816  0.00  0.00    +0.000 OA
ATOM      9  C   UNL     1       1.394   8.712  18.668  0.00  0.00    +0.000 C 
ATOM     10  C   UNL     1       2.597   9.253  17.910  0.00  0.00    +0.000 C 
ATOM     11  O   UNL     1       3.240   8.229  17.132  0.00  0.00    +0.000 OA
ENDROOT
BRANCH   1  13
ATOM     12  C   UNL     1       6.931   4.591  17.358  0.00  0.00    +0.000 C 
ATOM     13  O   UNL     1       5.593   4.232  17.044  0.00  0.00    +0.000 OA
ENDBRANCH   1  13
BRANCH   5  14
ATOM     14  O   UNL     1       2.390   4.911  20.651  0.00  0.00    +0.000 OA
ATOM     15  C   UNL     1       1.142   4.228  20.551  0.00  0.00    +0.000 C 
ENDBRANCH   5  14
BRANCH   6  16
ATOM     16  O   UNL     1       4.318   3.294  19.431  0.00  0.00    +0.000 OA
ATOM     17  C   UNL     1       3.705   2.099  18.962  0.00  0.00    +0.000 C 
ENDBRANCH   6  16
BRANCH   9  18
ATOM     18  C   UNL     1       0.635   9.770  19.478  0.00  0.00    +0.000 C 
BRANCH  18  19
ATOM     19  C   UNL     1      -0.628  10.289  18.833  0.00  0.00    +0.000 A 
ATOM     20  C   UNL     1      -1.387  11.314  19.446  0.00  0.00    +0.000 A 
ATOM     21  C   UNL     1      -2.546  11.813  18.840  0.00  0.00    +0.000 A 
ATOM     22  C   UNL     1      -2.909  11.288  17.620  0.00  0.00    +0.000 A 
ATOM     23  C   UNL     1      -2.164  10.312  17.004  0.00  0.00    +0.000 A 
ATOM     24  C   UNL     1      -1.023   9.795  17.580  0.00  0.00    +0.000 A 
ATOM     25  O   UNL     1      -2.681   9.947  15.801  0.00  0.00    +0.000 OA
ATOM     26  C   UNL     1      -3.836  10.808  15.729  0.00  0.00    +0.000 C 
ATOM     27  O   UNL     1      -3.994  11.654  16.887  0.00  0.00    +0.000 OA
ENDBRANCH  18  19
ENDBRANCH   9  18
TORSDOF 5
ENDMDL
MODEL 2
REMARK VINA RESULT:      -7.4      0.749      1.409
REMARK  Name = 
REMARK  8 active torsions:
REMARK  status: ('A' for Active; 'I' for Inactive)
REMARK    1  A    between atoms: C_1  and  O_2
REMARK    2  A    between atoms: O_2  and  C_3
REMARK    3  A    between atoms: C_7  and  O_8
REMARK    4  A    between atoms: O_8  and  C_9
REMARK    5  A    between atoms: C_10  and  O_11
REMARK    6  A    between atoms: O_11  and  C_12
REMARK    7  A    between atoms: C_15  and  C_16
REMARK    8  A    between atoms: C_16  and  C_17
REMARK                            x       y       z     vdW  Elec       q    Type
REMARK                         _______ _______ _______ _____ _____    ______ ____
ROOT
ATOM      1  C   UNL     1       4.630   5.096  17.871  0.00  0.00    +0.000 A 
ATOM      2  C   UNL     1       4.361   6.311  17.230  0.00  0.00    +0.000 A 
ATOM      3  C   UNL     1       3.405   7.187  17.737  0.00  0.00    +0.000 A 
ATOM      4  C   UNL     1       2.713   6.851  18.906  0.00  0.00    +0.000 A 
ATOM      5  C   UNL     1       2.910   5.603  19.534  0.00  0.00    +0.000 A 
ATOM      6  C   UNL     1       3.900   4.730  19.022  0.00  0.00    +0.000 A 
ATOM      7  C   UNL     1       1.883   7.941  19.464  0.00  0.00    +0.000 C 
ATOM      8  O   UNL     1       1.770   8.101  20.668  0.00  0.00    +0.000 OA
ATOM      9  C   UNL     1       1.302   8.876  18.442  0.00  0.00    +0.000 C 
ATOM     10  C   UNL     1       2.527   9.402  17.712  0.00  0.00    +0.000 C 
ATOM     11  O   UNL     1       3.233   8.351  17.032  0.00  0.00    +0.000 OA
ENDROOT
BRANCH   1  13
ATOM     12  C   UNL     1       6.489   5.127  16.369  0.00  0.00    +0.000 C 
ATOM     13  O   UNL     1       5.685   4.423  17.306  0.00  0.00    +0.000 OA
ENDBRANCH   1  13
BRANCH   5  14
ATOM     14  O   UNL     1       2.290   5.231  20.704  0.00  0.00    +0.000 OA
ATOM     15  C   UNL     1       1.130   4.409  20.588  0.00  0.00    +0.000 C 
ENDBRANCH   5  14
BRANCH   6  16
ATOM     16  O   UNL     1       4.316   3.597  19.682  0.00  0.00    +0.000 OA
ATOM     17  C   UNL     1       3.815   2.352  19.209  0.00  0.00    +0.000 C 
ENDBRANCH   6  16
BRANCH   9  18
ATOM     18  C   UNL     1       0.476   9.959  19.148  0.00  0.00    +0.000 C 
BRANCH  18  19
ATOM     19  C   UNL     1      -0.845  10.288  18.495  0.00  0.00    +0.000 A 
ATOM     20  C   UNL     1      -1.192   9.737  17.239  0.00  0.00    +0.000 A 
ATOM     21  C   UNL     1      -2.424  10.022  16.642  0.00  0.00    +0.000 A 
ATOM     22  C   UNL     1      -3.295  10.840  17.327  0.00  0.00    +0.000 A 
ATOM     23  C   UNL     1      -2.980  11.359  18.559  0.00  0.00    +0.000 A 
ATOM     24  C   UNL     1      -1.770  11.102  19.169  0.00  0.00    +0.000 A 
ATOM     25  O   UNL     1      -3.981  12.121  19.073  0.00  0.00    +0.000 OA
ATOM     26  C   UNL     1      -4.966  12.019  18.024  0.00  0.00    +0.000 C 
ATOM     27  O   UNL     1      -4.532  11.217  16.906  0.00  0.00    +0.000 OA
ENDBRANCH  18  19
ENDBRANCH   9  18
TORSDOF 5
ENDMDL
MODEL 3
REMARK VINA RESULT:      -7.2      2.791      8.695
REMARK  Name = 
REMARK  8 active torsions:
REMARK  status: ('A' for Active; 'I' for Inactive)
REMARK    1  A    between atoms: C_1  and  O_2
REMARK    2  A    between atoms: O_2  and  C_3
REMARK    3  A    between atoms: C_7  and  O_8
REMARK    4  A    between atoms: O_8  and  C_9
REMARK    5  A    between atoms: C_10  and  O_11
REMARK    6  A    between atoms: O_11  and  C_12
REMARK    7  A    between atoms: C_15  and  C_16
REMARK    8  A    between atoms: C_16  and  C_17
REMARK                            x       y       z     vdW  Elec       q    Type
REMARK                         _______ _______ _______ _____ _____    ______ ____
ROOT
ATOM      1  C   UNL     1      -1.952  12.070  22.498  0.00  0.00    +0.000 A 
ATOM      2  C   UNL     1      -1.104  11.090  23.029  0.00  0.00    +0.000 A 
ATOM      3  C   UNL     1      -0.310  10.308  22.194  0.00  0.00    +0.000 A 
ATOM      4  C   UNL     1      -0.354  10.511  20.811  0.00  0.00    +0.000 A 
ATOM      5  C   UNL     1      -1.251  11.440  20.241  0.00  0.00    +0.000 A 
ATOM      6  C   UNL     1      -2.037  12.245  21.100  0.00  0.00    +0.000 A 
ATOM      7  C   UNL     1       0.679   9.777  20.048  0.00  0.00    +0.000 C 
ATOM      8  O   UNL     1       1.215  10.267  19.067  0.00  0.00    +0.000 OA
ATOM      9  C   UNL     1       1.079   8.456  20.640  0.00  0.00    +0.000 C 
ATOM     10  C   UNL     1       1.551   8.828  22.037  0.00  0.00    +0.000 C 
ATOM     11  O   UNL     1       0.488   9.388  22.826  0.00  0.00    +0.000 OA
ENDROOT
BRANCH   1  13
ATOM     12  C   UNL     1      -3.790  12.351  23.998  0.00  0.00    +0.000 C 
ATOM     13  O   UNL     1      -2.560  12.825  23.470  0.00  0.00    +0.000 OA
ENDBRANCH   1  13
BRANCH   5  14
ATOM     14  O   UNL     1      -1.313  11.711  18.894  0.00  0.00    +0.000 OA
ATOM     15  C   UNL     1      -0.671  12.903  18.444  0.00  0.00    +0.000 C 
ENDBRANCH   5  14
BRANCH   6  16
ATOM     16  O   UNL     1      -2.774  13.318  20.656  0.00  0.00    +0.000 OA
ATOM     17  C   UNL     1      -4.154  13.091  20.393  0.00  0.00    +0.000 C 
ENDBRANCH   6  16
BRANCH   9  18
ATOM     18  C   UNL     1       2.157   7.805  19.765  0.00  0.00    +0.000 C 
BRANCH  18  19
ATOM     19  C   UNL     1       2.076   6.301  19.657  0.00  0.00    +0.000 A 
ATOM     20  C   UNL     1       1.556   5.524  20.718  0.00  0.00    +0.000 A 
ATOM     21  C   UNL     1       1.459   4.132  20.613  0.00  0.00    +0.000 A 
ATOM     22  C   UNL     1       1.867   3.548  19.434  0.00  0.00    +0.000 A 
ATOM     23  C   UNL     1       2.349   4.295  18.387  0.00  0.00    +0.000 A 
ATOM     24  C   UNL     1       2.463   5.668  18.465  0.00  0.00    +0.000 A 
ATOM     25  O   UNL     1       2.677   3.532  17.311  0.00  0.00    +0.000 OA
ATOM     26  C   UNL     1       2.342   2.216  17.801  0.00  0.00    +0.000 C 
ATOM     27  O   UNL     1       1.840   2.218  19.153  0.00  0.00    +0.000 OA
ENDBRANCH  18  19
ENDBRANCH   9  18
TORSDOF 5
ENDMDL
MODEL 4
REMARK VINA RESULT:      -7.0      2.850      8.767
REMARK  Name = 
REMARK  8 active torsions:
REMARK  status: ('A' for Active; 'I' for Inactive)
REMARK    1  A    between atoms: C_1  and  O_2
REMARK    2  A    between atoms: O_2  and  C_3
REMARK    3  A    between atoms: C_7  and  O_8
REMARK    4  A    between atoms: O_8  and  C_9
REMARK    5  A    between atoms: C_10  and  O_11
REMARK    6  A    between atoms: O_11  and  C_12
REMARK    7  A    between atoms: C_15  and  C_16
REMARK    8  A    between atoms: C_16  and  C_17
REMARK                            x       y       z     vdW  Elec       q    Type
REMARK                         _______ _______ _______ _____ _____    ______ ____
ROOT
ATOM      1  C   UNL     1      -2.088  12.197  22.528  0.00  0.00    +0.000 A 
ATOM      2  C   UNL     1      -1.219  11.247  23.079  0.00  0.00    +0.000 A 
ATOM      3  C   UNL     1      -0.384  10.489  22.262  0.00  0.00    +0.000 A 
ATOM      4  C   UNL     1      -0.408  10.686  20.877  0.00  0.00    +0.000 A 
ATOM      5  C   UNL     1      -1.324  11.584  20.287  0.00  0.00    +0.000 A 
ATOM      6  C   UNL     1      -2.152  12.365  21.129  0.00  0.00    +0.000 A 
ATOM      7  C   UNL     1       0.663   9.984  20.137  0.00  0.00    +0.000 C 
ATOM      8  O   UNL     1       1.201  10.489  19.165  0.00  0.00    +0.000 OA
ATOM      9  C   UNL     1       1.094   8.678  20.740  0.00  0.00    +0.000 C 
ATOM     10  C   UNL     1       1.527   9.069  22.145  0.00  0.00    +0.000 C 
ATOM     11  O   UNL     1       0.431   9.597  22.912  0.00  0.00    +0.000 OA
ENDROOT
BRANCH   1  13
ATOM     12  C   UNL     1      -3.884  12.356  24.097  0.00  0.00    +0.000 C 
ATOM     13  O   UNL     1      -2.739  12.934  23.486  0.00  0.00    +0.000 OA
ENDBRANCH   1  13
BRANCH   5  14
ATOM     14  O   UNL     1      -1.370  11.850  18.939  0.00  0.00    +0.000 OA
ATOM     15  C   UNL     1      -0.688  13.018  18.486  0.00  0.00    +0.000 C 
ENDBRANCH   5  14
BRANCH   6  16
ATOM     16  O   UNL     1      -2.916  13.412  20.667  0.00  0.00    +0.000 OA
ATOM     17  C   UNL     1      -4.285  13.143  20.390  0.00  0.00    +0.000 C 
ENDBRANCH   6  16
BRANCH   9  18
ATOM     18  C   UNL     1       2.209   8.060  19.887  0.00  0.00    +0.000 C 
BRANCH  18  19
ATOM     19  C   UNL     1       2.026   6.601  19.549  0.00  0.00    +0.000 A 
ATOM     20  C   UNL     1       2.240   6.128  18.234  0.00  0.00    +0.000 A 
ATOM     21  C   UNL     1       2.093   4.772  17.921  0.00  0.00    +0.000 A 
ATOM     22  C   UNL     1       1.753   3.912  18.942  0.00  0.00    +0.000 A 
ATOM     23  C   UNL     1       1.569   4.356  20.229  0.00  0.00    +0.000 A 
ATOM     24  C   UNL     1       1.699   5.687  20.564  0.00  0.00    +0.000 A 
ATOM     25  O   UNL     1       1.260   3.348  21.087  0.00  0.00    +0.000 OA
ATOM     26  C   UNL     1       1.275   2.216  20.192  0.00  0.00    +0.000 C 
ATOM     27  O   UNL     1       1.575   2.569  18.826  0.00  0.00    +0.000 OA
ENDBRANCH  18  19
ENDBRANCH   9  18
TORSDOF 5
ENDMDL
MODEL 5
REMARK VINA RESULT:      -6.9      2.596      8.164
REMARK  Name = 
REMARK  8 active torsions:
REMARK  status: ('A' for Active; 'I' for Inactive)
REMARK    1  A    between atoms: C_1  and  O_2
REMARK    2  A    between atoms: O_2  and  C_3
REMARK    3  A    between atoms: C_7  and  O_8
REMARK    4  A    between atoms: O_8  and  C_9
REMARK    5  A    between atoms: C_10  and  O_11
REMARK    6  A    between atoms: O_11  and  C_12
REMARK    7  A    between atoms: C_15  and  C_16
REMARK    8  A    between atoms: C_16  and  C_17
REMARK                            x       y       z     vdW  Elec       q    Type
REMARK                         _______ _______ _______ _____ _____    ______ ____
ROOT
ATOM      1  C   UNL     1       0.047  12.091  19.851  0.00  0.00    +0.000 A 
ATOM      2  C   UNL     1       0.397  11.333  18.726  0.00  0.00    +0.000 A 
ATOM      3  C   UNL     1       0.981  10.077  18.868  0.00  0.00    +0.000 A 
ATOM      4  C   UNL     1       1.210   9.563  20.149  0.00  0.00    +0.000 A 
ATOM      5  C   UNL     1       0.935  10.332  21.301  0.00  0.00    +0.000 A 
ATOM      6  C   UNL     1       0.321  11.598  21.145  0.00  0.00    +0.000 A 
ATOM      7  C   UNL     1       1.634   8.146  20.177  0.00  0.00    +0.000 C 
ATOM      8  O   UNL     1       1.262   7.388  21.058  0.00  0.00    +0.000 OA
ATOM      9  C   UNL     1       2.448   7.709  18.993  0.00  0.00    +0.000 C 
ATOM     10  C   UNL     1       1.541   8.015  17.812  0.00  0.00    +0.000 C 
ATOM     11  O   UNL     1       1.273   9.423  17.698  0.00  0.00    +0.000 OA
ENDROOT
BRANCH   1  13
ATOM     12  C   UNL     1       0.139  14.356  19.096  0.00  0.00    +0.000 C 
ATOM     13  O   UNL     1      -0.629  13.240  19.524  0.00  0.00    +0.000 OA
ENDBRANCH   1  13
BRANCH   5  14
ATOM     14  O   UNL     1       1.102   9.869  22.584  0.00  0.00    +0.000 OA
ATOM     15  C   UNL     1      -0.061   9.385  23.254  0.00  0.00    +0.000 C 
ENDBRANCH   5  14
BRANCH   6  16
ATOM     16  O   UNL     1      -0.181  12.324  22.200  0.00  0.00    +0.000 OA
ATOM     17  C   UNL     1      -1.586  12.268  22.414  0.00  0.00    +0.000 C 
ENDBRANCH   6  16
BRANCH   9  18
ATOM     18  C   UNL     1       2.813   6.227  19.139  0.00  0.00    +0.000 C 
BRANCH  18  19
ATOM     19  C   UNL     1       4.114   5.818  18.491  0.00  0.00    +0.000 A 
ATOM     20  C   UNL     1       5.218   5.409  19.275  0.00  0.00    +0.000 A 
ATOM     21  C   UNL     1       6.418   5.008  18.678  0.00  0.00    +0.000 A 
ATOM     22  C   UNL     1       6.480   5.005  17.303  0.00  0.00    +0.000 A 
ATOM     23  C   UNL     1       5.405   5.374  16.531  0.00  0.00    +0.000 A 
ATOM     24  C   UNL     1       4.213   5.781  17.091  0.00  0.00    +0.000 A 
ATOM     25  O   UNL     1       5.665   5.281  15.200  0.00  0.00    +0.000 OA
ATOM     26  C   UNL     1       7.028   4.807  15.222  0.00  0.00    +0.000 C 
ATOM     27  O   UNL     1       7.556   4.642  16.554  0.00  0.00    +0.000 OA
ENDBRANCH  18  19
ENDBRANCH   9  18
TORSDOF 5
ENDMDL
MODEL 6
REMARK VINA RESULT:      -6.9      2.764      9.027
REMARK  Name = 
REMARK  8 active torsions:
REMARK  status: ('A' for Active; 'I' for Inactive)
REMARK    1  A    between atoms: C_1  and  O_2
REMARK    2  A    between atoms: O_2  and  C_3
REMARK    3  A    between atoms: C_7  and  O_8
REMARK    4  A    between atoms: O_8  and  C_9
REMARK    5  A    between atoms: C_10  and  O_11
REMARK    6  A    between atoms: O_11  and  C_12
REMARK    7  A    between atoms: C_15  and  C_16
REMARK    8  A    between atoms: C_16  and  C_17
REMARK                            x       y       z     vdW  Elec       q    Type
REMARK                         _______ _______ _______ _____ _____    ______ ____
ROOT
ATOM      1  C   UNL     1      -1.993  12.147  22.539  0.00  0.00    +0.000 A 
ATOM      2  C   UNL     1      -1.148  11.151  23.043  0.00  0.00    +0.000 A 
ATOM      3  C   UNL     1      -0.372  10.376  22.187  0.00  0.00    +0.000 A 
ATOM      4  C   UNL     1      -0.431  10.602  20.808  0.00  0.00    +0.000 A 
ATOM      5  C   UNL     1      -1.325  11.548  20.263  0.00  0.00    +0.000 A 
ATOM      6  C   UNL     1      -2.093  12.346  21.145  0.00  0.00    +0.000 A 
ATOM      7  C   UNL     1       0.586   9.870  20.020  0.00  0.00    +0.000 C 
ATOM      8  O   UNL     1       1.115  10.372  19.041  0.00  0.00    +0.000 OA
ATOM      9  C   UNL     1       0.980   8.536  20.586  0.00  0.00    +0.000 C 
ATOM     10  C   UNL     1       1.472   8.880  21.983  0.00  0.00    +0.000 C 
ATOM     11  O   UNL     1       0.424   9.437  22.794  0.00  0.00    +0.000 OA
ENDROOT
BRANCH   1  13
ATOM     12  C   UNL     1      -3.838  12.451  24.027  0.00  0.00    +0.000 C 
ATOM     13  O   UNL     1      -2.582  12.892  23.530  0.00  0.00    +0.000 OA
ENDBRANCH   1  13
BRANCH   5  14
ATOM     14  O   UNL     1      -1.401  11.842  18.922  0.00  0.00    +0.000 OA
ATOM     15  C   UNL     1      -0.606  12.929  18.452  0.00  0.00    +0.000 C 
ENDBRANCH   5  14
BRANCH   6  16
ATOM     16  O   UNL     1      -2.826  13.433  20.728  0.00  0.00    +0.000 OA
ATOM     17  C   UNL     1      -2.252  14.719  20.936  0.00  0.00    +0.000 C 
ENDBRANCH   6  16
BRANCH   9  18
ATOM     18  C   UNL     1       2.041   7.889  19.687  0.00  0.00    +0.000 C 
BRANCH  18  19
ATOM     19  C   UNL     1       2.282   6.419  19.931  0.00  0.00    +0.000 A 
ATOM     20  C   UNL     1       1.303   5.618  20.565  0.00  0.00    +0.000 A 
ATOM     21  C   UNL     1       1.514   4.251  20.773  0.00  0.00    +0.000 A 
ATOM     22  C   UNL     1       2.697   3.708  20.323  0.00  0.00    +0.000 A 
ATOM     23  C   UNL     1       3.643   4.471  19.682  0.00  0.00    +0.000 A 
ATOM     24  C   UNL     1       3.466   5.822  19.470  0.00  0.00    +0.000 A 
ATOM     25  O   UNL     1       4.725   3.743  19.300  0.00  0.00    +0.000 OA
ATOM     26  C   UNL     1       4.350   2.432  19.770  0.00  0.00    +0.000 C 
ATOM     27  O   UNL     1       3.068   2.405  20.432  0.00  0.00    +0.000 OA
ENDBRANCH  18  19
ENDBRANCH   9  18
TORSDOF 5
ENDMDL
MODEL 7
REMARK VINA RESULT:      -6.8      1.335      2.899
REMARK  Name = 
REMARK  8 active torsions:
REMARK  status: ('A' for Active; 'I' for Inactive)
REMARK    1  A    between atoms: C_1  and  O_2
REMARK    2  A    between atoms: O_2  and  C_3
REMARK    3  A    between atoms: C_7  and  O_8
REMARK    4  A    between atoms: O_8  and  C_9
REMARK    5  A    between atoms: C_10  and  O_11
REMARK    6  A    between atoms: O_11  and  C_12
REMARK    7  A    between atoms: C_15  and  C_16
REMARK    8  A    between atoms: C_16  and  C_17
REMARK                            x       y       z     vdW  Elec       q    Type
REMARK                         _______ _______ _______ _____ _____    ______ ____
ROOT
ATOM      1  C   UNL     1       2.885   4.417  20.141  0.00  0.00    +0.000 A 
ATOM      2  C   UNL     1       2.092   5.375  20.785  0.00  0.00    +0.000 A 
ATOM      3  C   UNL     1       1.940   6.650  20.247  0.00  0.00    +0.000 A 
ATOM      4  C   UNL     1       2.580   6.974  19.046  0.00  0.00    +0.000 A 
ATOM      5  C   UNL     1       3.444   6.055  18.412  0.00  0.00    +0.000 A 
ATOM      6  C   UNL     1       3.573   4.754  18.956  0.00  0.00    +0.000 A 
ATOM      7  C   UNL     1       2.179   8.274  18.466  0.00  0.00    +0.000 C 
ATOM      8  O   UNL     1       2.076   8.428  17.260  0.00  0.00    +0.000 OA
ATOM      9  C   UNL     1       1.811   9.326  19.473  0.00  0.00    +0.000 C 
ATOM     10  C   UNL     1       0.685   8.676  20.261  0.00  0.00    +0.000 C 
ATOM     11  O   UNL     1       1.132   7.501  20.959  0.00  0.00    +0.000 OA
ENDROOT
BRANCH   1  13
ATOM     12  C   UNL     1       1.713   2.931  21.600  0.00  0.00    +0.000 C 
ATOM     13  O   UNL     1       2.817   3.185  20.743  0.00  0.00    +0.000 OA
ENDBRANCH   1  13
BRANCH   5  14
ATOM     14  O   UNL     1       4.070   6.299  17.213  0.00  0.00    +0.000 OA
ATOM     15  C   UNL     1       5.382   6.854  17.269  0.00  0.00    +0.000 C 
ENDBRANCH   5  14
BRANCH   6  16
ATOM     16  O   UNL     1       4.212   3.727  18.301  0.00  0.00    +0.000 OA
ATOM     17  C   UNL     1       3.391   2.769  17.642  0.00  0.00    +0.000 C 
ENDBRANCH   6  16
BRANCH   9  18
ATOM     18  C   UNL     1       1.408  10.615  18.746  0.00  0.00    +0.000 C 
BRANCH  18  19
ATOM     19  C   UNL     1      -0.067  10.934  18.772  0.00  0.00    +0.000 A 
ATOM     20  C   UNL     1      -0.575  11.956  19.608  0.00  0.00    +0.000 A 
ATOM     21  C   UNL     1      -1.938  12.269  19.619  0.00  0.00    +0.000 A 
ATOM     22  C   UNL     1      -2.765  11.563  18.774  0.00  0.00    +0.000 A 
ATOM     23  C   UNL     1      -2.279  10.586  17.938  0.00  0.00    +0.000 A 
ATOM     24  C   UNL     1      -0.942  10.251  17.911  0.00  0.00    +0.000 A 
ATOM     25  O   UNL     1      -3.253  10.027  17.172  0.00  0.00    +0.000 OA
ATOM     26  C   UNL     1      -4.408  10.766  17.619  0.00  0.00    +0.000 C 
ATOM     27  O   UNL     1      -4.108  11.735  18.646  0.00  0.00    +0.000 OA
ENDBRANCH  18  19
ENDBRANCH   9  18
TORSDOF 5
ENDMDL
MODEL 8
REMARK VINA RESULT:      -6.8      2.499      8.074
REMARK  Name = 
REMARK  8 active torsions:
REMARK  status: ('A' for Active; 'I' for Inactive)
REMARK    1  A    between atoms: C_1  and  O_2
REMARK    2  A    between atoms: O_2  and  C_3
REMARK    3  A    between atoms: C_7  and  O_8
REMARK    4  A    between atoms: O_8  and  C_9
REMARK    5  A    between atoms: C_10  and  O_11
REMARK    6  A    between atoms: O_11  and  C_12
REMARK    7  A    between atoms: C_15  and  C_16
REMARK    8  A    between atoms: C_16  and  C_17
REMARK                            x       y       z     vdW  Elec       q    Type
REMARK                         _______ _______ _______ _____ _____    ______ ____
ROOT
ATOM      1  C   UNL     1      -0.179  12.239  19.539  0.00  0.00    +0.000 A 
ATOM      2  C   UNL     1       0.290  11.412  18.511  0.00  0.00    +0.000 A 
ATOM      3  C   UNL     1       0.880  10.185  18.800  0.00  0.00    +0.000 A 
ATOM      4  C   UNL     1       0.997   9.770  20.130  0.00  0.00    +0.000 A 
ATOM      5  C   UNL     1       0.599  10.612  21.191  0.00  0.00    +0.000 A 
ATOM      6  C   UNL     1      -0.020  11.848  20.886  0.00  0.00    +0.000 A 
ATOM      7  C   UNL     1       1.442   8.370  20.302  0.00  0.00    +0.000 C 
ATOM      8  O   UNL     1       1.002   7.668  21.198  0.00  0.00    +0.000 OA
ATOM      9  C   UNL     1       2.373   7.870  19.235  0.00  0.00    +0.000 C 
ATOM     10  C   UNL     1       1.576   8.067  17.956  0.00  0.00    +0.000 C 
ATOM     11  O   UNL     1       1.294   9.456  17.713  0.00  0.00    +0.000 OA
ENDROOT
BRANCH   1  13
ATOM     12  C   UNL     1      -0.057  14.428  18.589  0.00  0.00    +0.000 C 
ATOM     13  O   UNL     1      -0.842  13.345  19.067  0.00  0.00    +0.000 OA
ENDBRANCH   1  13
BRANCH   5  14
ATOM     14  O   UNL     1       0.652  10.246  22.516  0.00  0.00    +0.000 OA
ATOM     15  C   UNL     1      -0.571   9.835  23.123  0.00  0.00    +0.000 C 
ENDBRANCH   5  14
BRANCH   6  16
ATOM     16  O   UNL     1      -0.633  12.634  21.834  0.00  0.00    +0.000 OA
ATOM     17  C   UNL     1       0.032  13.836  22.206  0.00  0.00    +0.000 C 
ENDBRANCH   6  16
BRANCH   9  18
ATOM     18  C   UNL     1       2.749   6.411  19.523  0.00  0.00    +0.000 C 
BRANCH  18  19
ATOM     19  C   UNL     1       3.510   5.713  18.422  0.00  0.00    +0.000 A 
ATOM     20  C   UNL     1       3.118   4.433  17.966  0.00  0.00    +0.000 A 
ATOM     21  C   UNL     1       3.807   3.794  16.930  0.00  0.00    +0.000 A 
ATOM     22  C   UNL     1       4.867   4.461  16.357  0.00  0.00    +0.000 A 
ATOM     23  C   UNL     1       5.240   5.716  16.774  0.00  0.00    +0.000 A 
ATOM     24  C   UNL     1       4.584   6.367  17.797  0.00  0.00    +0.000 A 
ATOM     25  O   UNL     1       6.293   6.206  16.067  0.00  0.00    +0.000 OA
ATOM     26  C   UNL     1       6.537   5.116  15.154  0.00  0.00    +0.000 C 
ATOM     27  O   UNL     1       5.644   3.999  15.341  0.00  0.00    +0.000 OA
ENDBRANCH  18  19
ENDBRANCH   9  18
TORSDOF 5
ENDMDL
MODEL 9
REMARK VINA RESULT:      -6.8      2.490      8.363
REMARK  Name = 
REMARK  8 active torsions:
REMARK  status: ('A' for Active; 'I' for Inactive)
REMARK    1  A    between atoms: C_1  and  O_2
REMARK    2  A    between atoms: O_2  and  C_3
REMARK    3  A    between atoms: C_7  and  O_8
REMARK    4  A    between atoms: O_8  and  C_9
REMARK    5  A    between atoms: C_10  and  O_11
REMARK    6  A    between atoms: O_11  and  C_12
REMARK    7  A    between atoms: C_15  and  C_16
REMARK    8  A    between atoms: C_16  and  C_17
REMARK                            x       y       z     vdW  Elec       q    Type
REMARK                         _______ _______ _______ _____ _____    ______ ____
ROOT
ATOM      1  C   UNL     1      -0.285  12.408  20.111  0.00  0.00    +0.000 A 
ATOM      2  C   UNL     1       0.004  11.706  18.935  0.00  0.00    +0.000 A 
ATOM      3  C   UNL     1       0.620  10.459  18.984  0.00  0.00    +0.000 A 
ATOM      4  C   UNL     1       0.945   9.898  20.223  0.00  0.00    +0.000 A 
ATOM      5  C   UNL     1       0.733  10.611  21.422  0.00  0.00    +0.000 A 
ATOM      6  C   UNL     1       0.085  11.869  21.362  0.00  0.00    +0.000 A 
ATOM      7  C   UNL     1       1.398   8.491  20.161  0.00  0.00    +0.000 C 
ATOM      8  O   UNL     1       1.101   7.688  21.032  0.00  0.00    +0.000 OA
ATOM      9  C   UNL     1       2.140   8.122  18.909  0.00  0.00    +0.000 C 
ATOM     10  C   UNL     1       1.148   8.456  17.805  0.00  0.00    +0.000 C 
ATOM     11  O   UNL     1       0.846   9.861  17.769  0.00  0.00    +0.000 OA
ENDROOT
BRANCH   1  13
ATOM     12  C   UNL     1      -0.287  14.780  19.817  0.00  0.00    +0.000 C 
ATOM     13  O   UNL     1      -1.004  13.555  19.880  0.00  0.00    +0.000 OA
ENDBRANCH   1  13
BRANCH   5  14
ATOM     14  O   UNL     1       0.995  10.099  22.671  0.00  0.00    +0.000 OA
ATOM     15  C   UNL     1      -0.085   9.459  23.347  0.00  0.00    +0.000 C 
ENDBRANCH   5  14
BRANCH   6  16
ATOM     16  O   UNL     1      -0.359  12.538  22.479  0.00  0.00    +0.000 OA
ATOM     17  C   UNL     1      -1.725  12.367  22.836  0.00  0.00    +0.000 C 
ENDBRANCH   6  16
BRANCH   9  18
ATOM     18  C   UNL     1       2.542   6.643  18.966  0.00  0.00    +0.000 C 
BRANCH  18  19
ATOM     19  C   UNL     1       3.837   6.302  18.269  0.00  0.00    +0.000 A 
ATOM     20  C   UNL     1       4.175   6.897  17.031  0.00  0.00    +0.000 A 
ATOM     21  C   UNL     1       5.385   6.600  16.394  0.00  0.00    +0.000 A 
ATOM     22  C   UNL     1       6.243   5.725  17.022  0.00  0.00    +0.000 A 
ATOM     23  C   UNL     1       5.937   5.162  18.238  0.00  0.00    +0.000 A 
ATOM     24  C   UNL     1       4.749   5.430  18.886  0.00  0.00    +0.000 A 
ATOM     25  O   UNL     1       6.924   4.347  18.695  0.00  0.00    +0.000 OA
ATOM     26  C   UNL     1       7.888   4.464  17.629  0.00  0.00    +0.000 C 
ATOM     27  O   UNL     1       7.457   5.328  16.557  0.00  0.00    +0.000 OA
ENDBRANCH  18  19
ENDBRANCH   9  18
TORSDOF 5
ENDMDL
