MODEL 1
REMARK VINA RESULT:      -6.7      0.000      0.000
REMARK  Name = 
REMARK  9 active torsions:
REMARK  status: ('A' for Active; 'I' for Inactive)
REMARK    1  A    between atoms: C_1  and  C_2
REMARK    2  A    between atoms: C_2  and  C_3
REMARK    3  A    between atoms: C_3  and  C_4
REMARK    4  A    between atoms: C_7  and  S_8
REMARK    5  A    between atoms: S_8  and  C_9
REMARK    6  A    between atoms: C_9  and  C_10
REMARK    7  A    between atoms: N_12  and  C_13
REMARK    8  A    between atoms: N_16  and  C_17
REMARK    9  A    between atoms: C_17  and  C_18
REMARK                            x       y       z     vdW  Elec       q    Type
REMARK                         _______ _______ _______ _____ _____    ______ ____
ROOT
ATOM      1  C   UNL     1       2.581   4.173  18.264  0.00  0.00    +0.000 A 
ATOM      2  N   UNL     1       3.000   3.185  17.494  0.00  0.00    +0.000 NA
ATOM      3  N   UNL     1       4.155   3.582  16.867  0.00  0.00    +0.000 NA
ATOM      4  C   UNL     1       4.430   4.795  17.281  0.00  0.00    +0.000 A 
ATOM      5  N   UNL     1       3.450   5.234  18.131  0.00  0.00    +0.000 N 
ENDROOT
BRANCH   5   6
ATOM      6  C   UNL     1       3.350   6.542  18.744  0.00  0.00    +0.000 C 
ATOM      7  C   UNL     1       2.459   7.498  17.967  0.00  0.00    +0.000 C 
ENDBRANCH   5   6
BRANCH   1   8
ATOM      8  C   UNL     1       1.358   4.138  19.119  0.00  0.00    +0.000 C 
BRANCH   8  10
ATOM      9  C   UNL     1       1.501   2.859  21.292  0.00  0.00    +0.000 C 
ATOM     10  C   UNL     1       1.202   2.781  19.804  0.00  0.00    +0.000 C 
ENDBRANCH   8  10
ENDBRANCH   1   8
BRANCH   4  11
ATOM     11  S   UNL     1       5.790   5.742  16.793  0.00  0.00    +0.000 S 
BRANCH  11  12
ATOM     12  C   UNL     1       6.871   4.446  16.130  0.00  0.00    +0.000 C 
BRANCH  12  13
ATOM     13  C   UNL     1       6.970   4.569  14.620  0.00  0.00    +0.000 C 
ATOM     14  O   UNL     1       7.605   5.466  14.072  0.00  0.00    +0.000 OA
ATOM     15  N   UNL     1       6.265   3.598  13.931  0.00  0.00    +0.000 N 
ATOM     16  H   UNL     1       5.599   3.030  14.453  0.00  0.00    +0.000 HD
BRANCH  15  17
ATOM     17  C   UNL     1       6.200   3.569  12.508  0.00  0.00    +0.000 C 
ATOM     18  C   UNL     1       5.901   2.278  11.791  0.00  0.00    +0.000 C 
ATOM     19  C   UNL     1       4.886   3.384  11.805  0.00  0.00    +0.000 C 
ENDBRANCH  15  17
ENDBRANCH  12  13
ENDBRANCH  11  12
ENDBRANCH   4  11
TORSDOF 7
ENDMDL
MODEL 2
REMARK VINA RESULT:      -6.5      1.317      2.118
REMARK  Name = 
REMARK  9 active torsions:
REMARK  status: ('A' for Active; 'I' for Inactive)
REMARK    1  A    between atoms: C_1  and  C_2
REMARK    2  A    between atoms: C_2  and  C_3
REMARK    3  A    between atoms: C_3  and  C_4
REMARK    4  A    between atoms: C_7  and  S_8
REMARK    5  A    between atoms: S_8  and  C_9
REMARK    6  A    between atoms: C_9  and  C_10
REMARK    7  A    between atoms: N_12  and  C_13
REMARK    8  A    between atoms: N_16  and  C_17
REMARK    9  A    between atoms: C_17  and  C_18
REMARK                            x       y       z     vdW  Elec       q    Type
REMARK                         _______ _______ _______ _____ _____    ______ ____
ROOT
ATOM      1  C   UNL     1       3.537   4.919  19.407  0.00  0.00    +0.000 A 
ATOM      2  N   UNL     1       4.756   5.351  19.678  0.00  0.00    +0.000 NA
ATOM      3  N   UNL     1       5.599   4.926  18.681  0.00  0.00    +0.000 NA
ATOM      4  C   UNL     1       4.876   4.262  17.812  0.00  0.00    +0.000 A 
ATOM      5  N   UNL     1       3.577   4.190  18.238  0.00  0.00    +0.000 N 
ENDROOT
BRANCH   5   6
ATOM      6  C   UNL     1       2.487   3.483  17.598  0.00  0.00    +0.000 C 
ATOM      7  C   UNL     1       2.490   1.991  17.891  0.00  0.00    +0.000 C 
ENDBRANCH   5   6
BRANCH   1   8
ATOM      8  C   UNL     1       2.329   5.173  20.246  0.00  0.00    +0.000 C 
BRANCH   8  10
ATOM      9  C   UNL     1       1.151   3.092  21.060  0.00  0.00    +0.000 C 
ATOM     10  C   UNL     1       2.207   4.141  21.366  0.00  0.00    +0.000 C 
ENDBRANCH   8  10
ENDBRANCH   1   8
BRANCH   4  11
ATOM     11  S   UNL     1       5.466   3.526  16.364  0.00  0.00    +0.000 S 
BRANCH  11  12
ATOM     12  C   UNL     1       6.733   4.728  15.877  0.00  0.00    +0.000 C 
BRANCH  12  13
ATOM     13  C   UNL     1       6.958   4.672  14.377  0.00  0.00    +0.000 C 
ATOM     14  O   UNL     1       7.734   5.429  13.799  0.00  0.00    +0.000 OA
ATOM     15  N   UNL     1       6.198   3.714  13.731  0.00  0.00    +0.000 N 
ATOM     16  H   UNL     1       5.433   3.282  14.247  0.00  0.00    +0.000 HD
BRANCH  15  17
ATOM     17  C   UNL     1       6.238   3.535  12.318  0.00  0.00    +0.000 C 
ATOM     18  C   UNL     1       6.041   2.165  11.724  0.00  0.00    +0.000 C 
ATOM     19  C   UNL     1       4.986   3.218  11.551  0.00  0.00    +0.000 C 
ENDBRANCH  15  17
ENDBRANCH  12  13
ENDBRANCH  11  12
ENDBRANCH   4  11
TORSDOF 7
ENDMDL
MODEL 3
REMARK VINA RESULT:      -6.3      1.081      1.246
REMARK  Name = 
REMARK  9 active torsions:
REMARK  status: ('A' for Active; 'I' for Inactive)
REMARK    1  A    between atoms: C_1  and  C_2
REMARK    2  A    between atoms: C_2  and  C_3
REMARK    3  A    between atoms: C_3  and  C_4
REMARK    4  A    between atoms: C_7  and  S_8
REMARK    5  A    between atoms: S_8  and  C_9
REMARK    6  A    between atoms: C_9  and  C_10
REMARK    7  A    between atoms: N_12  and  C_13
REMARK    8  A    between atoms: N_16  and  C_17
REMARK    9  A    between atoms: C_17  and  C_18
REMARK                            x       y       z     vdW  Elec       q    Type
REMARK                         _______ _______ _______ _____ _____    ______ ____
ROOT
ATOM      1  C   UNL     1       2.555   3.551  18.365  0.00  0.00    +0.000 A 
ATOM      2  N   UNL     1       3.539   2.700  18.136  0.00  0.00    +0.000 NA
ATOM      3  N   UNL     1       4.674   3.416  17.849  0.00  0.00    +0.000 NA
ATOM      4  C   UNL     1       4.368   4.688  17.929  0.00  0.00    +0.000 A 
ATOM      5  N   UNL     1       3.036   4.834  18.210  0.00  0.00    +0.000 N 
ENDROOT
BRANCH   5   6
ATOM      6  C   UNL     1       2.296   6.074  18.308  0.00  0.00    +0.000 C 
ATOM      7  C   UNL     1       2.356   6.697  19.694  0.00  0.00    +0.000 C 
ENDBRANCH   5   6
BRANCH   1   8
ATOM      8  C   UNL     1       1.154   3.172  18.716  0.00  0.00    +0.000 C 
BRANCH   8  10
ATOM      9  C   UNL     1       1.903   2.838  21.105  0.00  0.00    +0.000 C 
ATOM     10  C   UNL     1       0.859   3.454  20.189  0.00  0.00    +0.000 C 
ENDBRANCH   8  10
ENDBRANCH   1   8
BRANCH   4  11
ATOM     11  S   UNL     1       5.455   6.005  17.663  0.00  0.00    +0.000 S 
BRANCH  11  12
ATOM     12  C   UNL     1       5.240   6.252  15.880  0.00  0.00    +0.000 C 
BRANCH  12  13
ATOM     13  C   UNL     1       6.178   5.340  15.109  0.00  0.00    +0.000 C 
ATOM     14  O   UNL     1       7.399   5.402  15.222  0.00  0.00    +0.000 OA
ATOM     15  N   UNL     1       5.531   4.459  14.261  0.00  0.00    +0.000 N 
ATOM     16  H   UNL     1       4.543   4.617  14.069  0.00  0.00    +0.000 HD
BRANCH  15  17
ATOM     17  C   UNL     1       6.239   3.550  13.422  0.00  0.00    +0.000 C 
ATOM     18  C   UNL     1       5.662   3.143  12.092  0.00  0.00    +0.000 C 
ATOM     19  C   UNL     1       6.877   4.024  12.147  0.00  0.00    +0.000 C 
ENDBRANCH  15  17
ENDBRANCH  12  13
ENDBRANCH  11  12
ENDBRANCH   4  11
TORSDOF 7
ENDMDL
MODEL 4
REMARK VINA RESULT:      -6.3      1.470      1.690
REMARK  Name = 
REMARK  9 active torsions:
REMARK  status: ('A' for Active; 'I' for Inactive)
REMARK    1  A    between atoms: C_1  and  C_2
REMARK    2  A    between atoms: C_2  and  C_3
REMARK    3  A    between atoms: C_3  and  C_4
REMARK    4  A    between atoms: C_7  and  S_8
REMARK    5  A    between atoms: S_8  and  C_9
REMARK    6  A    between atoms: C_9  and  C_10
REMARK    7  A    between atoms: N_12  and  C_13
REMARK    8  A    between atoms: N_16  and  C_17
REMARK    9  A    between atoms: C_17  and  C_18
REMARK                            x       y       z     vdW  Elec       q    Type
REMARK                         _______ _______ _______ _____ _____    ______ ____
ROOT
ATOM      1  C   UNL     1       3.824   4.068  19.764  0.00  0.00    +0.000 A 
ATOM      2  N   UNL     1       4.829   3.266  19.462  0.00  0.00    +0.000 NA
ATOM      3  N   UNL     1       5.723   3.963  18.688  0.00  0.00    +0.000 NA
ATOM      4  C   UNL     1       5.259   5.181  18.552  0.00  0.00    +0.000 A 
ATOM      5  N   UNL     1       4.044   5.293  19.173  0.00  0.00    +0.000 N 
ENDROOT
BRANCH   5   6
ATOM      6  C   UNL     1       3.177   6.453  19.190  0.00  0.00    +0.000 C 
ATOM      7  C   UNL     1       2.187   6.474  18.035  0.00  0.00    +0.000 C 
ENDBRANCH   5   6
BRANCH   1   8
ATOM      8  C   UNL     1       2.643   3.691  20.597  0.00  0.00    +0.000 C 
BRANCH   8  10
ATOM      9  C   UNL     1       1.274   3.013  18.585  0.00  0.00    +0.000 C 
ATOM     10  C   UNL     1       1.830   2.581  19.932  0.00  0.00    +0.000 C 
ENDBRANCH   8  10
ENDBRANCH   1   8
BRANCH   4  11
ATOM     11  S   UNL     1       6.021   6.456  17.669  0.00  0.00    +0.000 S 
BRANCH  11  12
ATOM     12  C   UNL     1       5.327   6.173  16.018  0.00  0.00    +0.000 C 
BRANCH  12  13
ATOM     13  C   UNL     1       6.263   5.303  15.199  0.00  0.00    +0.000 C 
ATOM     14  O   UNL     1       7.485   5.364  15.310  0.00  0.00    +0.000 OA
ATOM     15  N   UNL     1       5.615   4.462  14.313  0.00  0.00    +0.000 N 
ATOM     16  H   UNL     1       4.626   4.627  14.133  0.00  0.00    +0.000 HD
BRANCH  15  17
ATOM     17  C   UNL     1       6.322   3.598  13.427  0.00  0.00    +0.000 C 
ATOM     18  C   UNL     1       5.695   3.175  12.124  0.00  0.00    +0.000 C 
ATOM     19  C   UNL     1       6.866   4.115  12.125  0.00  0.00    +0.000 C 
ENDBRANCH  15  17
ENDBRANCH  12  13
ENDBRANCH  11  12
ENDBRANCH   4  11
TORSDOF 7
ENDMDL
MODEL 5
REMARK VINA RESULT:      -6.3      1.593      1.859
REMARK  Name = 
REMARK  9 active torsions:
REMARK  status: ('A' for Active; 'I' for Inactive)
REMARK    1  A    between atoms: C_1  and  C_2
REMARK    2  A    between atoms: C_2  and  C_3
REMARK    3  A    between atoms: C_3  and  C_4
REMARK    4  A    between atoms: C_7  and  S_8
REMARK    5  A    between atoms: S_8  and  C_9
REMARK    6  A    between atoms: C_9  and  C_10
REMARK    7  A    between atoms: N_12  and  C_13
REMARK    8  A    between atoms: N_16  and  C_17
REMARK    9  A    between atoms: C_17  and  C_18
REMARK                            x       y       z     vdW  Elec       q    Type
REMARK                         _______ _______ _______ _____ _____    ______ ____
ROOT
ATOM      1  C   UNL     1       3.205   3.684  18.422  0.00  0.00    +0.000 A 
ATOM      2  N   UNL     1       3.984   2.739  18.916  0.00  0.00    +0.000 NA
ATOM      3  N   UNL     1       5.208   3.291  19.203  0.00  0.00    +0.000 NA
ATOM      4  C   UNL     1       5.146   4.564  18.899  0.00  0.00    +0.000 A 
ATOM      5  N   UNL     1       3.922   4.861  18.364  0.00  0.00    +0.000 N 
ENDROOT
BRANCH   5   6
ATOM      6  C   UNL     1       3.485   6.137  17.838  0.00  0.00    +0.000 C 
ATOM      7  C   UNL     1       2.691   6.956  18.844  0.00  0.00    +0.000 C 
ENDBRANCH   5   6
BRANCH   1   8
ATOM      8  C   UNL     1       1.790   3.493  17.989  0.00  0.00    +0.000 C 
BRANCH   8  10
ATOM      9  C   UNL     1       0.923   3.945  20.318  0.00  0.00    +0.000 C 
ATOM     10  C   UNL     1       0.923   2.984  19.140  0.00  0.00    +0.000 C 
ENDBRANCH   8  10
ENDBRANCH   1   8
BRANCH   4  11
ATOM     11  S   UNL     1       6.430   5.707  19.082  0.00  0.00    +0.000 S 
BRANCH  11  12
ATOM     12  C   UNL     1       6.633   6.250  17.364  0.00  0.00    +0.000 C 
BRANCH  12  13
ATOM     13  C   UNL     1       7.012   5.072  16.485  0.00  0.00    +0.000 C 
ATOM     14  O   UNL     1       7.905   4.284  16.787  0.00  0.00    +0.000 OA
ATOM     15  N   UNL     1       6.278   4.986  15.315  0.00  0.00    +0.000 N 
ATOM     16  H   UNL     1       5.715   5.791  15.044  0.00  0.00    +0.000 HD
BRANCH  15  17
ATOM     17  C   UNL     1       6.514   3.974  14.340  0.00  0.00    +0.000 C 
ATOM     18  C   UNL     1       5.528   3.758  13.221  0.00  0.00    +0.000 C 
ATOM     19  C   UNL     1       6.881   4.341  12.930  0.00  0.00    +0.000 C 
ENDBRANCH  15  17
ENDBRANCH  12  13
ENDBRANCH  11  12
ENDBRANCH   4  11
TORSDOF 7
ENDMDL
MODEL 6
REMARK VINA RESULT:      -6.3      1.290      1.587
REMARK  Name = 
REMARK  9 active torsions:
REMARK  status: ('A' for Active; 'I' for Inactive)
REMARK    1  A    between atoms: C_1  and  C_2
REMARK    2  A    between atoms: C_2  and  C_3
REMARK    3  A    between atoms: C_3  and  C_4
REMARK    4  A    between atoms: C_7  and  S_8
REMARK    5  A    between atoms: S_8  and  C_9
REMARK    6  A    between atoms: C_9  and  C_10
REMARK    7  A    between atoms: N_12  and  C_13
REMARK    8  A    between atoms: N_16  and  C_17
REMARK    9  A    between atoms: C_17  and  C_18
REMARK                            x       y       z     vdW  Elec       q    Type
REMARK                         _______ _______ _______ _____ _____    ______ ____
ROOT
ATOM      1  C   UNL     1       3.798   3.578  18.759  0.00  0.00    +0.000 A 
ATOM      2  N   UNL     1       3.347   3.015  17.652  0.00  0.00    +0.000 NA
ATOM      3  N   UNL     1       3.867   3.693  16.577  0.00  0.00    +0.000 NA
ATOM      4  C   UNL     1       4.640   4.641  17.048  0.00  0.00    +0.000 A 
ATOM      5  N   UNL     1       4.602   4.643  18.416  0.00  0.00    +0.000 N 
ENDROOT
BRANCH   5   6
ATOM      6  C   UNL     1       5.260   5.578  19.305  0.00  0.00    +0.000 C 
ATOM      7  C   UNL     1       6.758   5.342  19.416  0.00  0.00    +0.000 C 
ENDBRANCH   5   6
BRANCH   1   8
ATOM      8  C   UNL     1       3.469   3.133  20.145  0.00  0.00    +0.000 C 
BRANCH   8  10
ATOM      9  C   UNL     1       1.060   3.599  20.743  0.00  0.00    +0.000 C 
ATOM     10  C   UNL     1       2.050   2.571  20.223  0.00  0.00    +0.000 C 
ENDBRANCH   8  10
ENDBRANCH   1   8
BRANCH   4  11
ATOM     11  S   UNL     1       5.537   5.773  16.098  0.00  0.00    +0.000 S 
BRANCH  11  12
ATOM     12  C   UNL     1       6.927   4.735  15.576  0.00  0.00    +0.000 C 
BRANCH  12  13
ATOM     13  C   UNL     1       6.965   4.634  14.061  0.00  0.00    +0.000 C 
ATOM     14  O   UNL     1       7.623   5.403  13.366  0.00  0.00    +0.000 OA
ATOM     15  N   UNL     1       6.179   3.618  13.547  0.00  0.00    +0.000 N 
ATOM     16  H   UNL     1       5.507   3.172  14.169  0.00  0.00    +0.000 HD
BRANCH  15  17
ATOM     17  C   UNL     1       6.050   3.389  12.146  0.00  0.00    +0.000 C 
ATOM     18  C   UNL     1       5.668   2.025  11.636  0.00  0.00    +0.000 C 
ATOM     19  C   UNL     1       4.698   3.166  11.529  0.00  0.00    +0.000 C 
ENDBRANCH  15  17
ENDBRANCH  12  13
ENDBRANCH  11  12
ENDBRANCH   4  11
TORSDOF 7
ENDMDL
MODEL 7
REMARK VINA RESULT:      -6.1      1.461      3.100
REMARK  Name = 
REMARK  9 active torsions:
REMARK  status: ('A' for Active; 'I' for Inactive)
REMARK    1  A    between atoms: C_1  and  C_2
REMARK    2  A    between atoms: C_2  and  C_3
REMARK    3  A    between atoms: C_3  and  C_4
REMARK    4  A    between atoms: C_7  and  S_8
REMARK    5  A    between atoms: S_8  and  C_9
REMARK    6  A    between atoms: C_9  and  C_10
REMARK    7  A    between atoms: N_12  and  C_13
REMARK    8  A    between atoms: N_16  and  C_17
REMARK    9  A    between atoms: C_17  and  C_18
REMARK                            x       y       z     vdW  Elec       q    Type
REMARK                         _______ _______ _______ _____ _____    ______ ____
ROOT
ATOM      1  C   UNL     1       3.243   6.982  17.986  0.00  0.00    +0.000 A 
ATOM      2  N   UNL     1       4.166   7.544  17.228  0.00  0.00    +0.000 NA
ATOM      3  N   UNL     1       4.901   6.551  16.629  0.00  0.00    +0.000 NA
ATOM      4  C   UNL     1       4.399   5.404  17.016  0.00  0.00    +0.000 A 
ATOM      5  N   UNL     1       3.379   5.613  17.905  0.00  0.00    +0.000 N 
ENDROOT
BRANCH   5   6
ATOM      6  C   UNL     1       2.619   4.604  18.614  0.00  0.00    +0.000 C 
ATOM      7  C   UNL     1       1.445   4.068  17.811  0.00  0.00    +0.000 C 
ENDBRANCH   5   6
BRANCH   1   8
ATOM      8  C   UNL     1       2.235   7.720  18.804  0.00  0.00    +0.000 C 
BRANCH   8  10
ATOM      9  C   UNL     1       0.556   9.355  17.863  0.00  0.00    +0.000 C 
ATOM     10  C   UNL     1       2.006   9.129  18.258  0.00  0.00    +0.000 C 
ENDBRANCH   8  10
ENDBRANCH   1   8
BRANCH   4  11
ATOM     11  S   UNL     1       4.965   3.844  16.536  0.00  0.00    +0.000 S 
BRANCH  11  12
ATOM     12  C   UNL     1       6.653   4.253  16.017  0.00  0.00    +0.000 C 
BRANCH  12  13
ATOM     13  C   UNL     1       6.707   4.439  14.511  0.00  0.00    +0.000 C 
ATOM     14  O   UNL     1       7.155   5.457  13.989  0.00  0.00    +0.000 OA
ATOM     15  N   UNL     1       6.189   3.375  13.795  0.00  0.00    +0.000 N 
ATOM     16  H   UNL     1       5.648   2.676  14.302  0.00  0.00    +0.000 HD
BRANCH  15  17
ATOM     17  C   UNL     1       6.112   3.379  12.372  0.00  0.00    +0.000 C 
ATOM     18  C   UNL     1       5.692   2.135  11.634  0.00  0.00    +0.000 C 
ATOM     19  C   UNL     1       4.781   3.328  11.677  0.00  0.00    +0.000 C 
ENDBRANCH  15  17
ENDBRANCH  12  13
ENDBRANCH  11  12
ENDBRANCH   4  11
TORSDOF 7
ENDMDL
MODEL 8
REMARK VINA RESULT:      -6.1      1.346      1.652
REMARK  Name = 
REMARK  9 active torsions:
REMARK  status: ('A' for Active; 'I' for Inactive)
REMARK    1  A    between atoms: C_1  and  C_2
REMARK    2  A    between atoms: C_2  and  C_3
REMARK    3  A    between atoms: C_3  and  C_4
REMARK    4  A    between atoms: C_7  and  S_8
REMARK    5  A    between atoms: S_8  and  C_9
REMARK    6  A    between atoms: C_9  and  C_10
REMARK    7  A    between atoms: N_12  and  C_13
REMARK    8  A    between atoms: N_16  and  C_17
REMARK    9  A    between atoms: C_17  and  C_18
REMARK                            x       y       z     vdW  Elec       q    Type
REMARK                         _______ _______ _______ _____ _____    ______ ____
ROOT
ATOM      1  C   UNL     1       2.164   4.569  18.900  0.00  0.00    +0.000 A 
ATOM      2  N   UNL     1       2.608   3.664  18.047  0.00  0.00    +0.000 NA
ATOM      3  N   UNL     1       3.562   4.248  17.251  0.00  0.00    +0.000 NA
ATOM      4  C   UNL     1       3.697   5.490  17.646  0.00  0.00    +0.000 A 
ATOM      5  N   UNL     1       2.812   5.761  18.655  0.00  0.00    +0.000 N 
ENDROOT
BRANCH   5   6
ATOM      6  C   UNL     1       2.599   7.035  19.309  0.00  0.00    +0.000 C 
ATOM      7  C   UNL     1       2.017   8.092  18.383  0.00  0.00    +0.000 C 
ENDBRANCH   5   6
BRANCH   1   8
ATOM      8  C   UNL     1       1.122   4.332  19.942  0.00  0.00    +0.000 C 
BRANCH   8  10
ATOM      9  C   UNL     1       1.918   2.660  21.659  0.00  0.00    +0.000 C 
ATOM     10  C   UNL     1       1.111   2.871  20.389  0.00  0.00    +0.000 C 
ENDBRANCH   8  10
ENDBRANCH   1   8
BRANCH   4  11
ATOM     11  S   UNL     1       4.782   6.651  16.968  0.00  0.00    +0.000 S 
BRANCH  11  12
ATOM     12  C   UNL     1       6.361   6.046  17.623  0.00  0.00    +0.000 C 
BRANCH  12  13
ATOM     13  C   UNL     1       6.971   5.036  16.668  0.00  0.00    +0.000 C 
ATOM     14  O   UNL     1       7.975   4.386  16.950  0.00  0.00    +0.000 OA
ATOM     15  N   UNL     1       6.310   4.937  15.458  0.00  0.00    +0.000 N 
ATOM     16  H   UNL     1       5.627   5.657  15.225  0.00  0.00    +0.000 HD
BRANCH  15  17
ATOM     17  C   UNL     1       6.754   4.074  14.414  0.00  0.00    +0.000 C 
ATOM     18  C   UNL     1       5.842   3.752  13.259  0.00  0.00    +0.000 C 
ATOM     19  C   UNL     1       7.050   4.618  13.045  0.00  0.00    +0.000 C 
ENDBRANCH  15  17
ENDBRANCH  12  13
ENDBRANCH  11  12
ENDBRANCH   4  11
TORSDOF 7
ENDMDL
MODEL 9
REMARK VINA RESULT:      -6.0      1.710      2.097
REMARK  Name = 
REMARK  9 active torsions:
REMARK  status: ('A' for Active; 'I' for Inactive)
REMARK    1  A    between atoms: C_1  and  C_2
REMARK    2  A    between atoms: C_2  and  C_3
REMARK    3  A    between atoms: C_3  and  C_4
REMARK    4  A    between atoms: C_7  and  S_8
REMARK    5  A    between atoms: S_8  and  C_9
REMARK    6  A    between atoms: C_9  and  C_10
REMARK    7  A    between atoms: N_12  and  C_13
REMARK    8  A    between atoms: N_16  and  C_17
REMARK    9  A    between atoms: C_17  and  C_18
REMARK                            x       y       z     vdW  Elec       q    Type
REMARK                         _______ _______ _______ _____ _____    ______ ____
ROOT
ATOM      1  C   UNL     1       4.025   3.376  19.327  0.00  0.00    +0.000 A 
ATOM      2  N   UNL     1       5.250   3.511  19.801  0.00  0.00    +0.000 NA
ATOM      3  N   UNL     1       5.826   4.609  19.211  0.00  0.00    +0.000 NA
ATOM      4  C   UNL     1       4.936   5.134  18.405  0.00  0.00    +0.000 A 
ATOM      5  N   UNL     1       3.796   4.376  18.406  0.00  0.00    +0.000 N 
ENDROOT
BRANCH   5   6
ATOM      6  C   UNL     1       2.613   4.580  17.597  0.00  0.00    +0.000 C 
ATOM      7  C   UNL     1       1.769   5.757  18.061  0.00  0.00    +0.000 C 
ENDBRANCH   5   6
BRANCH   1   8
ATOM      8  C   UNL     1       3.064   2.304  19.721  0.00  0.00    +0.000 C 
BRANCH   8  10
ATOM      9  C   UNL     1       1.142   3.515  20.826  0.00  0.00    +0.000 C 
ATOM     10  C   UNL     1       2.369   2.643  21.039  0.00  0.00    +0.000 C 
ENDBRANCH   8  10
ENDBRANCH   1   8
BRANCH   4  11
ATOM     11  S   UNL     1       5.167   6.542  17.430  0.00  0.00    +0.000 S 
BRANCH  11  12
ATOM     12  C   UNL     1       6.933   6.392  17.050  0.00  0.00    +0.000 C 
BRANCH  12  13
ATOM     13  C   UNL     1       7.186   5.145  16.222  0.00  0.00    +0.000 C 
ATOM     14  O   UNL     1       7.909   4.231  16.611  0.00  0.00    +0.000 OA
ATOM     15  N   UNL     1       6.548   5.147  14.994  0.00  0.00    +0.000 N 
ATOM     16  H   UNL     1       6.149   6.025  14.665  0.00  0.00    +0.000 HD
BRANCH  15  17
ATOM     17  C   UNL     1       6.696   4.084  14.057  0.00  0.00    +0.000 C 
ATOM     18  C   UNL     1       5.603   3.798  13.061  0.00  0.00    +0.000 C 
ATOM     19  C   UNL     1       6.909   4.374  12.598  0.00  0.00    +0.000 C 
ENDBRANCH  15  17
ENDBRANCH  12  13
ENDBRANCH  11  12
ENDBRANCH   4  11
TORSDOF 7
ENDMDL
