MODEL 1
REMARK VINA RESULT:      -5.8      0.000      0.000
REMARK  Name = 
REMARK  7 active torsions:
REMARK  status: ('A' for Active; 'I' for Inactive)
REMARK    1  A    between atoms: C_2  and  O_3
REMARK    2  A    between atoms: C_2  and  C_4
REMARK    3  A    between atoms: C_4  and  C_5
REMARK    4  A    between atoms: C_5  and  C_6
REMARK    5  A    between atoms: C_5  and  C_10
REMARK    6  A    between atoms: C_6  and  C_7
REMARK    7  A    between atoms: C_7  and  O_9
REMARK                            x       y       z     vdW  Elec       q    Type
REMARK                         _______ _______ _______ _____ _____    ______ ____
ROOT
ATOM      1  C   UNL     1       5.627   4.831  16.609  0.00  0.00    +0.000 C 
ENDROOT
BRANCH   1   2
ATOM      2  C   UNL     1       4.223   4.690  17.191  0.00  0.00    +0.000 A 
ATOM      3  C   UNL     1       3.466   5.754  17.797  0.00  0.00    +0.000 A 
ATOM      4  C   UNL     1       2.234   5.341  18.256  0.00  0.00    +0.000 A 
ATOM      5  S   UNL     1       1.983   3.676  17.996  0.00  0.00    +0.000 S 
ATOM      6  C   UNL     1       3.513   3.503  17.250  0.00  0.00    +0.000 A 
ENDBRANCH   1   2
BRANCH   1   7
ATOM      7  C   UNL     1       5.577   5.211  15.112  0.00  0.00    +0.000 C 
BRANCH   7   9
ATOM      8  O   UNL     1       7.827   5.369  14.213  0.00  0.00    +0.000 OA
ATOM      9  C   UNL     1       6.777   4.758  14.316  0.00  0.00    +0.000 C 
BRANCH   9  10
ATOM     10  O   UNL     1       6.579   3.556  13.728  0.00  0.00    +0.000 OA
ATOM     11  H   UNL     1       7.195   2.858  14.025  0.00  0.00    +0.000 HD
ENDBRANCH   9  10
ENDBRANCH   7   9
ENDBRANCH   1   7
BRANCH   1  12
ATOM     12  C   UNL     1       6.479   5.761  17.492  0.00  0.00    +0.000 C 
BRANCH  12  13
ATOM     13  C   UNL     1       7.550   5.026  18.250  0.00  0.00    +0.000 C 
ATOM     14  O   UNL     1       7.811   5.238  19.427  0.00  0.00    +0.000 OA
BRANCH  13  15
ATOM     15  O   UNL     1       8.172   4.063  17.538  0.00  0.00    +0.000 OA
ATOM     16  H   UNL     1       7.737   3.187  17.585  0.00  0.00    +0.000 HD
ENDBRANCH  13  15
ENDBRANCH  12  13
ENDBRANCH   1  12
TORSDOF 7
ENDMDL
MODEL 2
REMARK VINA RESULT:      -5.8      0.572      1.184
REMARK  Name = 
REMARK  7 active torsions:
REMARK  status: ('A' for Active; 'I' for Inactive)
REMARK    1  A    between atoms: C_2  and  O_3
REMARK    2  A    between atoms: C_2  and  C_4
REMARK    3  A    between atoms: C_4  and  C_5
REMARK    4  A    between atoms: C_5  and  C_6
REMARK    5  A    between atoms: C_5  and  C_10
REMARK    6  A    between atoms: C_6  and  C_7
REMARK    7  A    between atoms: C_7  and  O_9
REMARK                            x       y       z     vdW  Elec       q    Type
REMARK                         _______ _______ _______ _____ _____    ______ ____
ROOT
ATOM      1  C   UNL     1       5.582   4.523  16.705  0.00  0.00    +0.000 C 
ENDROOT
BRANCH   1   2
ATOM      2  C   UNL     1       4.225   4.146  17.292  0.00  0.00    +0.000 A 
ATOM      3  C   UNL     1       3.745   2.801  17.474  0.00  0.00    +0.000 A 
ATOM      4  C   UNL     1       2.475   2.753  18.008  0.00  0.00    +0.000 A 
ATOM      5  S   UNL     1       1.834   4.309  18.267  0.00  0.00    +0.000 S 
ATOM      6  C   UNL     1       3.260   5.056  17.686  0.00  0.00    +0.000 A 
ENDBRANCH   1   2
BRANCH   1   7
ATOM      7  C   UNL     1       5.456   4.936  15.222  0.00  0.00    +0.000 C 
BRANCH   7   9
ATOM      8  O   UNL     1       7.696   5.297  14.357  0.00  0.00    +0.000 OA
ATOM      9  C   UNL     1       6.675   4.632  14.386  0.00  0.00    +0.000 C 
BRANCH   9  10
ATOM     10  O   UNL     1       6.532   3.496  13.665  0.00  0.00    +0.000 OA
ATOM     11  H   UNL     1       7.001   3.503  12.807  0.00  0.00    +0.000 HD
ENDBRANCH   9  10
ENDBRANCH   7   9
ENDBRANCH   1   7
BRANCH   1  12
ATOM     12  C   UNL     1       6.289   5.548  17.611  0.00  0.00    +0.000 C 
BRANCH  12  13
ATOM     13  C   UNL     1       7.466   4.965  18.344  0.00  0.00    +0.000 C 
ATOM     14  O   UNL     1       7.734   5.229  19.509  0.00  0.00    +0.000 OA
BRANCH  13  15
ATOM     15  O   UNL     1       8.181   4.075  17.626  0.00  0.00    +0.000 OA
ATOM     16  H   UNL     1       7.734   3.766  16.811  0.00  0.00    +0.000 HD
ENDBRANCH  13  15
ENDBRANCH  12  13
ENDBRANCH   1  12
TORSDOF 7
ENDMDL
MODEL 3
REMARK VINA RESULT:      -5.8      0.829      1.205
REMARK  Name = 
REMARK  7 active torsions:
REMARK  status: ('A' for Active; 'I' for Inactive)
REMARK    1  A    between atoms: C_2  and  O_3
REMARK    2  A    between atoms: C_2  and  C_4
REMARK    3  A    between atoms: C_4  and  C_5
REMARK    4  A    between atoms: C_5  and  C_6
REMARK    5  A    between atoms: C_5  and  C_10
REMARK    6  A    between atoms: C_6  and  C_7
REMARK    7  A    between atoms: C_7  and  O_9
REMARK                            x       y       z     vdW  Elec       q    Type
REMARK                         _______ _______ _______ _____ _____    ______ ____
ROOT
ATOM      1  C   UNL     1       5.285   4.444  17.002  0.00  0.00    +0.000 C 
ENDROOT
BRANCH   1   2
ATOM      2  C   UNL     1       3.913   3.966  17.469  0.00  0.00    +0.000 A 
ATOM      3  C   UNL     1       2.775   4.815  17.706  0.00  0.00    +0.000 A 
ATOM      4  C   UNL     1       1.668   4.119  18.141  0.00  0.00    +0.000 A 
ATOM      5  S   UNL     1       1.986   2.453  18.299  0.00  0.00    +0.000 S 
ATOM      6  C   UNL     1       3.600   2.651  17.767  0.00  0.00    +0.000 A 
ENDBRANCH   1   2
BRANCH   1   7
ATOM      7  C   UNL     1       5.253   4.876  15.519  0.00  0.00    +0.000 C 
BRANCH   7   9
ATOM      8  O   UNL     1       7.560   5.223  14.844  0.00  0.00    +0.000 OA
ATOM      9  C   UNL     1       6.525   4.584  14.760  0.00  0.00    +0.000 C 
BRANCH   9  10
ATOM     10  O   UNL     1       6.411   3.493  13.968  0.00  0.00    +0.000 OA
ATOM     11  H   UNL     1       6.276   3.696  13.021  0.00  0.00    +0.000 HD
ENDBRANCH   9  10
ENDBRANCH   7   9
ENDBRANCH   1   7
BRANCH   1  12
ATOM     12  C   UNL     1       5.843   5.498  17.977  0.00  0.00    +0.000 C 
BRANCH  12  13
ATOM     13  C   UNL     1       7.104   5.048  18.663  0.00  0.00    +0.000 C 
ATOM     14  O   UNL     1       7.986   4.411  18.102  0.00  0.00    +0.000 OA
BRANCH  13  15
ATOM     15  O   UNL     1       7.213   5.452  19.945  0.00  0.00    +0.000 OA
ATOM     16  H   UNL     1       6.360   5.696  20.361  0.00  0.00    +0.000 HD
ENDBRANCH  13  15
ENDBRANCH  12  13
ENDBRANCH   1  12
TORSDOF 7
ENDMDL
MODEL 4
REMARK VINA RESULT:      -5.6      1.398      1.635
REMARK  Name = 
REMARK  7 active torsions:
REMARK  status: ('A' for Active; 'I' for Inactive)
REMARK    1  A    between atoms: C_2  and  O_3
REMARK    2  A    between atoms: C_2  and  C_4
REMARK    3  A    between atoms: C_4  and  C_5
REMARK    4  A    between atoms: C_5  and  C_6
REMARK    5  A    between atoms: C_5  and  C_10
REMARK    6  A    between atoms: C_6  and  C_7
REMARK    7  A    between atoms: C_7  and  O_9
REMARK                            x       y       z     vdW  Elec       q    Type
REMARK                         _______ _______ _______ _____ _____    ______ ____
ROOT
ATOM      1  C   UNL     1       5.687   4.857  16.990  0.00  0.00    +0.000 C 
ENDROOT
BRANCH   1   2
ATOM      2  C   UNL     1       4.644   4.023  17.730  0.00  0.00    +0.000 A 
ATOM      3  C   UNL     1       4.744   3.597  19.101  0.00  0.00    +0.000 A 
ATOM      4  C   UNL     1       3.668   2.838  19.507  0.00  0.00    +0.000 A 
ATOM      5  S   UNL     1       2.545   2.602  18.248  0.00  0.00    +0.000 S 
ATOM      6  C   UNL     1       3.484   3.532  17.159  0.00  0.00    +0.000 A 
ENDBRANCH   1   2
BRANCH   1   7
ATOM      7  C   UNL     1       5.389   4.910  15.475  0.00  0.00    +0.000 C 
BRANCH   7   9
ATOM      8  O   UNL     1       7.593   5.266  14.519  0.00  0.00    +0.000 OA
ATOM      9  C   UNL     1       6.576   4.597  14.597  0.00  0.00    +0.000 C 
BRANCH   9  10
ATOM     10  O   UNL     1       6.410   3.450  13.899  0.00  0.00    +0.000 OA
ATOM     11  H   UNL     1       5.590   2.964  14.114  0.00  0.00    +0.000 HD
ENDBRANCH   9  10
ENDBRANCH   7   9
ENDBRANCH   1   7
BRANCH   1  12
ATOM     12  C   UNL     1       5.855   6.227  17.671  0.00  0.00    +0.000 C 
BRANCH  12  13
ATOM     13  C   UNL     1       7.295   6.645  17.792  0.00  0.00    +0.000 C 
ATOM     14  O   UNL     1       7.978   6.433  18.785  0.00  0.00    +0.000 OA
BRANCH  13  15
ATOM     15  O   UNL     1       7.797   7.231  16.685  0.00  0.00    +0.000 OA
ATOM     16  H   UNL     1       8.207   6.606  16.053  0.00  0.00    +0.000 HD
ENDBRANCH  13  15
ENDBRANCH  12  13
ENDBRANCH   1  12
TORSDOF 7
ENDMDL
MODEL 5
REMARK VINA RESULT:      -5.6      1.563      3.517
REMARK  Name = 
REMARK  7 active torsions:
REMARK  status: ('A' for Active; 'I' for Inactive)
REMARK    1  A    between atoms: C_2  and  O_3
REMARK    2  A    between atoms: C_2  and  C_4
REMARK    3  A    between atoms: C_4  and  C_5
REMARK    4  A    between atoms: C_5  and  C_6
REMARK    5  A    between atoms: C_5  and  C_10
REMARK    6  A    between atoms: C_6  and  C_7
REMARK    7  A    between atoms: C_7  and  O_9
REMARK                            x       y       z     vdW  Elec       q    Type
REMARK                         _______ _______ _______ _____ _____    ______ ____
ROOT
ATOM      1  C   UNL     1       4.508   4.717  16.724  0.00  0.00    +0.000 C 
ENDROOT
BRANCH   1   2
ATOM      2  C   UNL     1       3.487   3.826  17.427  0.00  0.00    +0.000 A 
ATOM      3  C   UNL     1       3.714   2.464  17.832  0.00  0.00    +0.000 A 
ATOM      4  C   UNL     1       2.612   1.891  18.428  0.00  0.00    +0.000 A 
ATOM      5  S   UNL     1       1.288   2.962  18.482  0.00  0.00    +0.000 S 
ATOM      6  C   UNL     1       2.190   4.205  17.726  0.00  0.00    +0.000 A 
ENDBRANCH   1   2
BRANCH   1   7
ATOM      7  C   UNL     1       5.023   5.829  17.665  0.00  0.00    +0.000 C 
BRANCH   7   9
ATOM      8  O   UNL     1       6.500   4.797  19.294  0.00  0.00    +0.000 OA
ATOM      9  C   UNL     1       5.441   5.342  19.031  0.00  0.00    +0.000 C 
BRANCH   9  10
ATOM     10  O   UNL     1       4.508   5.602  19.976  0.00  0.00    +0.000 OA
ATOM     11  H   UNL     1       4.800   6.231  20.666  0.00  0.00    +0.000 HD
ENDBRANCH   9  10
ENDBRANCH   7   9
ENDBRANCH   1   7
BRANCH   1  12
ATOM     12  C   UNL     1       5.604   3.857  16.068  0.00  0.00    +0.000 C 
BRANCH  12  13
ATOM     13  C   UNL     1       6.837   4.646  15.726  0.00  0.00    +0.000 C 
ATOM     14  O   UNL     1       6.892   5.446  14.801  0.00  0.00    +0.000 OA
BRANCH  13  15
ATOM     15  O   UNL     1       7.876   4.442  16.561  0.00  0.00    +0.000 OA
ATOM     16  H   UNL     1       8.330   3.584  16.433  0.00  0.00    +0.000 HD
ENDBRANCH  13  15
ENDBRANCH  12  13
ENDBRANCH   1  12
TORSDOF 7
ENDMDL
MODEL 6
REMARK VINA RESULT:      -5.6      1.461      3.258
REMARK  Name = 
REMARK  7 active torsions:
REMARK  status: ('A' for Active; 'I' for Inactive)
REMARK    1  A    between atoms: C_2  and  O_3
REMARK    2  A    between atoms: C_2  and  C_4
REMARK    3  A    between atoms: C_4  and  C_5
REMARK    4  A    between atoms: C_5  and  C_6
REMARK    5  A    between atoms: C_5  and  C_10
REMARK    6  A    between atoms: C_6  and  C_7
REMARK    7  A    between atoms: C_7  and  O_9
REMARK                            x       y       z     vdW  Elec       q    Type
REMARK                         _______ _______ _______ _____ _____    ______ ____
ROOT
ATOM      1  C   UNL     1       5.304   5.006  16.571  0.00  0.00    +0.000 C 
ENDROOT
BRANCH   1   2
ATOM      2  C   UNL     1       4.466   4.152  17.518  0.00  0.00    +0.000 A 
ATOM      3  C   UNL     1       3.180   3.587  17.207  0.00  0.00    +0.000 A 
ATOM      4  C   UNL     1       2.639   2.875  18.255  0.00  0.00    +0.000 A 
ATOM      5  S   UNL     1       3.645   2.901  19.629  0.00  0.00    +0.000 S 
ATOM      6  C   UNL     1       4.820   3.847  18.821  0.00  0.00    +0.000 A 
ENDBRANCH   1   2
BRANCH   1   7
ATOM      7  C   UNL     1       5.608   6.391  17.186  0.00  0.00    +0.000 C 
BRANCH   7   9
ATOM      8  O   UNL     1       7.538   6.192  18.646  0.00  0.00    +0.000 OA
ATOM      9  C   UNL     1       7.045   6.585  17.602  0.00  0.00    +0.000 C 
BRANCH   9  10
ATOM     10  O   UNL     1       7.768   7.236  16.663  0.00  0.00    +0.000 OA
ATOM     11  H   UNL     1       8.581   6.768  16.385  0.00  0.00    +0.000 HD
ENDBRANCH   9  10
ENDBRANCH   7   9
ENDBRANCH   1   7
BRANCH   1  12
ATOM     12  C   UNL     1       6.538   4.219  16.093  0.00  0.00    +0.000 C 
BRANCH  12  13
ATOM     13  C   UNL     1       6.862   4.466  14.646  0.00  0.00    +0.000 C 
ATOM     14  O   UNL     1       7.565   5.391  14.260  0.00  0.00    +0.000 OA
BRANCH  13  15
ATOM     15  O   UNL     1       6.358   3.545  13.799  0.00  0.00    +0.000 OA
ATOM     16  H   UNL     1       6.586   2.621  14.031  0.00  0.00    +0.000 HD
ENDBRANCH  13  15
ENDBRANCH  12  13
ENDBRANCH   1  12
TORSDOF 7
ENDMDL
MODEL 7
REMARK VINA RESULT:      -5.6      1.113      3.295
REMARK  Name = 
REMARK  7 active torsions:
REMARK  status: ('A' for Active; 'I' for Inactive)
REMARK    1  A    between atoms: C_2  and  O_3
REMARK    2  A    between atoms: C_2  and  C_4
REMARK    3  A    between atoms: C_4  and  C_5
REMARK    4  A    between atoms: C_5  and  C_6
REMARK    5  A    between atoms: C_5  and  C_10
REMARK    6  A    between atoms: C_6  and  C_7
REMARK    7  A    between atoms: C_7  and  O_9
REMARK                            x       y       z     vdW  Elec       q    Type
REMARK                         _______ _______ _______ _____ _____    ______ ____
ROOT
ATOM      1  C   UNL     1       5.815   4.904  16.499  0.00  0.00    +0.000 C 
ENDROOT
BRANCH   1   2
ATOM      2  C   UNL     1       4.404   4.896  17.079  0.00  0.00    +0.000 A 
ATOM      3  C   UNL     1       3.765   6.015  17.722  0.00  0.00    +0.000 A 
ATOM      4  C   UNL     1       2.495   5.722  18.169  0.00  0.00    +0.000 A 
ATOM      5  S   UNL     1       2.066   4.105  17.853  0.00  0.00    +0.000 S 
ATOM      6  C   UNL     1       3.569   3.793  17.098  0.00  0.00    +0.000 A 
ENDBRANCH   1   2
BRANCH   1   7
ATOM      7  C   UNL     1       6.881   4.873  17.617  0.00  0.00    +0.000 C 
BRANCH   7   9
ATOM      8  O   UNL     1       8.065   6.559  18.903  0.00  0.00    +0.000 OA
ATOM      9  C   UNL     1       7.579   6.191  17.847  0.00  0.00    +0.000 C 
BRANCH   9  10
ATOM     10  O   UNL     1       7.640   6.942  16.724  0.00  0.00    +0.000 OA
ATOM     11  H   UNL     1       7.905   7.871  16.875  0.00  0.00    +0.000 HD
ENDBRANCH   9  10
ENDBRANCH   7   9
ENDBRANCH   1   7
BRANCH   1  12
ATOM     12  C   UNL     1       5.959   3.805  15.429  0.00  0.00    +0.000 C 
BRANCH  12  13
ATOM     13  C   UNL     1       6.626   4.297  14.174  0.00  0.00    +0.000 C 
ATOM     14  O   UNL     1       6.372   3.861  13.059  0.00  0.00    +0.000 OA
BRANCH  13  15
ATOM     15  O   UNL     1       7.499   5.306  14.369  0.00  0.00    +0.000 OA
ATOM     16  H   UNL     1       7.487   5.987  13.666  0.00  0.00    +0.000 HD
ENDBRANCH  13  15
ENDBRANCH  12  13
ENDBRANCH   1  12
TORSDOF 7
ENDMDL
MODEL 8
REMARK VINA RESULT:      -5.5      1.119      1.482
REMARK  Name = 
REMARK  7 active torsions:
REMARK  status: ('A' for Active; 'I' for Inactive)
REMARK    1  A    between atoms: C_2  and  O_3
REMARK    2  A    between atoms: C_2  and  C_4
REMARK    3  A    between atoms: C_4  and  C_5
REMARK    4  A    between atoms: C_5  and  C_6
REMARK    5  A    between atoms: C_5  and  C_10
REMARK    6  A    between atoms: C_6  and  C_7
REMARK    7  A    between atoms: C_7  and  O_9
REMARK                            x       y       z     vdW  Elec       q    Type
REMARK                         _______ _______ _______ _____ _____    ______ ____
ROOT
ATOM      1  C   UNL     1       5.466   5.281  16.708  0.00  0.00    +0.000 C 
ENDROOT
BRANCH   1   2
ATOM      2  C   UNL     1       4.182   4.644  17.232  0.00  0.00    +0.000 A 
ATOM      3  C   UNL     1       3.065   5.364  17.786  0.00  0.00    +0.000 A 
ATOM      4  C   UNL     1       2.045   4.536  18.199  0.00  0.00    +0.000 A 
ATOM      5  S   UNL     1       2.422   2.892  17.959  0.00  0.00    +0.000 S 
ATOM      6  C   UNL     1       3.945   3.282  17.281  0.00  0.00    +0.000 A 
ENDBRANCH   1   2
BRANCH   1   7
ATOM      7  C   UNL     1       5.419   5.454  15.173  0.00  0.00    +0.000 C 
BRANCH   7   9
ATOM      8  O   UNL     1       6.388   3.719  13.776  0.00  0.00    +0.000 OA
ATOM      9  C   UNL     1       6.522   4.737  14.433  0.00  0.00    +0.000 C 
BRANCH   9  10
ATOM     10  O   UNL     1       7.713   5.369  14.549  0.00  0.00    +0.000 OA
ATOM     11  H   UNL     1       8.407   4.841  14.992  0.00  0.00    +0.000 HD
ENDBRANCH   9  10
ENDBRANCH   7   9
ENDBRANCH   1   7
BRANCH   1  12
ATOM     12  C   UNL     1       5.789   6.561  17.500  0.00  0.00    +0.000 C 
BRANCH  12  13
ATOM     13  C   UNL     1       7.264   6.754  17.719  0.00  0.00    +0.000 C 
ATOM     14  O   UNL     1       7.864   6.324  18.696  0.00  0.00    +0.000 OA
BRANCH  13  15
ATOM     15  O   UNL     1       7.894   7.400  16.716  0.00  0.00    +0.000 OA
ATOM     16  H   UNL     1       7.762   8.370  16.720  0.00  0.00    +0.000 HD
ENDBRANCH  13  15
ENDBRANCH  12  13
ENDBRANCH   1  12
TORSDOF 7
ENDMDL
MODEL 9
REMARK VINA RESULT:      -5.5      1.161      3.258
REMARK  Name = 
REMARK  7 active torsions:
REMARK  status: ('A' for Active; 'I' for Inactive)
REMARK    1  A    between atoms: C_2  and  O_3
REMARK    2  A    between atoms: C_2  and  C_4
REMARK    3  A    between atoms: C_4  and  C_5
REMARK    4  A    between atoms: C_5  and  C_6
REMARK    5  A    between atoms: C_5  and  C_10
REMARK    6  A    between atoms: C_6  and  C_7
REMARK    7  A    between atoms: C_7  and  O_9
REMARK                            x       y       z     vdW  Elec       q    Type
REMARK                         _______ _______ _______ _____ _____    ______ ____
ROOT
ATOM      1  C   UNL     1       5.000   5.037  16.729  0.00  0.00    +0.000 C 
ENDROOT
BRANCH   1   2
ATOM      2  C   UNL     1       3.818   4.287  17.338  0.00  0.00    +0.000 A 
ATOM      3  C   UNL     1       2.592   4.894  17.786  0.00  0.00    +0.000 A 
ATOM      4  C   UNL     1       1.703   3.982  18.312  0.00  0.00    +0.000 A 
ATOM      5  S   UNL     1       2.336   2.400  18.306  0.00  0.00    +0.000 S 
ATOM      6  C   UNL     1       3.794   2.924  17.579  0.00  0.00    +0.000 A 
ENDBRANCH   1   2
BRANCH   1   7
ATOM      7  C   UNL     1       5.483   6.172  17.659  0.00  0.00    +0.000 C 
BRANCH   7   9
ATOM      8  O   UNL     1       6.360   5.057  19.630  0.00  0.00    +0.000 OA
ATOM      9  C   UNL     1       6.544   5.756  18.648  0.00  0.00    +0.000 C 
BRANCH   9  10
ATOM     10  O   UNL     1       7.768   6.227  18.316  0.00  0.00    +0.000 OA
ATOM     11  H   UNL     1       8.122   6.896  18.934  0.00  0.00    +0.000 HD
ENDBRANCH   9  10
ENDBRANCH   7   9
ENDBRANCH   1   7
BRANCH   1  12
ATOM     12  C   UNL     1       6.091   4.044  16.288  0.00  0.00    +0.000 C 
BRANCH  12  13
ATOM     13  C   UNL     1       6.730   4.423  14.980  0.00  0.00    +0.000 C 
ATOM     14  O   UNL     1       7.488   5.375  14.850  0.00  0.00    +0.000 OA
BRANCH  13  15
ATOM     15  O   UNL     1       6.441   3.590  13.959  0.00  0.00    +0.000 OA
ATOM     16  H   UNL     1       5.840   2.855  14.200  0.00  0.00    +0.000 HD
ENDBRANCH  13  15
ENDBRANCH  12  13
ENDBRANCH   1  12
TORSDOF 7
ENDMDL
