MODEL 1
REMARK VINA RESULT:      -7.1      0.000      0.000
REMARK  Name = 
REMARK  2 active torsions:
REMARK  status: ('A' for Active; 'I' for Inactive)
REMARK    1  A    between atoms: N_11  and  C_12
REMARK    2  A    between atoms: C_12  and  C_13
REMARK                            x       y       z     vdW  Elec       q    Type
REMARK                         _______ _______ _______ _____ _____    ______ ____
ROOT
ATOM      1  O   UNL     1       5.245   2.615  19.879  0.00  0.00    +0.000 OA
ATOM      2  C   UNL     1       4.434   3.524  19.726  0.00  0.00    +0.000 C 
ATOM      3  C   UNL     1       3.045   3.339  20.149  0.00  0.00    +0.000 A 
ATOM      4  C   UNL     1       2.687   2.646  21.360  0.00  0.00    +0.000 A 
ATOM      5  C   UNL     1       1.329   2.593  21.567  0.00  0.00    +0.000 A 
ATOM      6  S   UNL     1       0.470   3.331  20.294  0.00  0.00    +0.000 S 
ATOM      7  C   UNL     1       1.913   3.707  19.441  0.00  0.00    +0.000 A 
ATOM      8  S   UNL     1       1.804   4.395  17.827  0.00  0.00    +0.000 S 
ATOM      9  C   UNL     1       2.982   5.777  17.859  0.00  0.00    +0.000 C 
ATOM     10  C   UNL     1       3.868   5.885  19.096  0.00  0.00    +0.000 C 
ATOM     11  N   UNL     1       4.807   4.768  19.217  0.00  0.00    +0.000 N 
ENDROOT
BRANCH  11  12
ATOM     12  C   UNL     1       6.186   4.955  18.748  0.00  0.00    +0.000 C 
BRANCH  12  13
ATOM     13  C   UNL     1       6.326   4.873  17.239  0.00  0.00    +0.000 A 
ATOM     14  C   UNL     1       5.753   3.773  16.567  0.00  0.00    +0.000 A 
ATOM     15  C   UNL     1       5.902   3.606  15.187  0.00  0.00    +0.000 A 
ATOM     16  C   UNL     1       6.630   4.537  14.456  0.00  0.00    +0.000 A 
ATOM     17 CL   UNL     1       6.864   4.310  12.767  0.00  0.00    +0.000 Cl
ATOM     18  C   UNL     1       7.171   5.654  15.085  0.00  0.00    +0.000 A 
ATOM     19  C   UNL     1       7.010   5.827  16.465  0.00  0.00    +0.000 A 
ATOM     20 CL   UNL     1       7.652   7.282  17.142  0.00  0.00    +0.000 Cl
ENDBRANCH  12  13
ENDBRANCH  11  12
TORSDOF 2
ENDMDL
MODEL 2
REMARK VINA RESULT:      -6.7      1.136      1.226
REMARK  Name = 
REMARK  2 active torsions:
REMARK  status: ('A' for Active; 'I' for Inactive)
REMARK    1  A    between atoms: N_11  and  C_12
REMARK    2  A    between atoms: C_12  and  C_13
REMARK                            x       y       z     vdW  Elec       q    Type
REMARK                         _______ _______ _______ _____ _____    ______ ____
ROOT
ATOM      1  O   UNL     1       5.410   3.561  19.569  0.00  0.00    +0.000 OA
ATOM      2  C   UNL     1       4.383   4.232  19.518  0.00  0.00    +0.000 C 
ATOM      3  C   UNL     1       3.124   3.672  20.013  0.00  0.00    +0.000 A 
ATOM      4  C   UNL     1       3.048   2.862  21.202  0.00  0.00    +0.000 A 
ATOM      5  C   UNL     1       1.770   2.447  21.489  0.00  0.00    +0.000 A 
ATOM      6  S   UNL     1       0.657   2.984  20.315  0.00  0.00    +0.000 S 
ATOM      7  C   UNL     1       1.887   3.758  19.398  0.00  0.00    +0.000 A 
ATOM      8  S   UNL     1       1.484   4.457  17.836  0.00  0.00    +0.000 S 
ATOM      9  C   UNL     1       2.263   6.096  17.875  0.00  0.00    +0.000 C 
ATOM     10  C   UNL     1       3.180   6.385  19.060  0.00  0.00    +0.000 C 
ATOM     11  N   UNL     1       4.383   5.549  19.060  0.00  0.00    +0.000 N 
ENDROOT
BRANCH  11  12
ATOM     12  C   UNL     1       5.628   6.110  18.519  0.00  0.00    +0.000 C 
BRANCH  12  13
ATOM     13  C   UNL     1       5.952   5.618  17.120  0.00  0.00    +0.000 A 
ATOM     14  C   UNL     1       5.109   6.003  16.057  0.00  0.00    +0.000 A 
ATOM     15  C   UNL     1       5.316   5.532  14.757  0.00  0.00    +0.000 A 
ATOM     16  C   UNL     1       6.370   4.664  14.500  0.00  0.00    +0.000 A 
ATOM     17 CL   UNL     1       6.600   4.038  12.915  0.00  0.00    +0.000 Cl
ATOM     18  C   UNL     1       7.243   4.301  15.520  0.00  0.00    +0.000 A 
ATOM     19  C   UNL     1       7.043   4.784  16.819  0.00  0.00    +0.000 A 
ATOM     20 CL   UNL     1       8.222   4.337  18.001  0.00  0.00    +0.000 Cl
ENDBRANCH  12  13
ENDBRANCH  11  12
TORSDOF 2
ENDMDL
MODEL 3
REMARK VINA RESULT:      -6.7      1.626      2.836
REMARK  Name = 
REMARK  2 active torsions:
REMARK  status: ('A' for Active; 'I' for Inactive)
REMARK    1  A    between atoms: N_11  and  C_12
REMARK    2  A    between atoms: C_12  and  C_13
REMARK                            x       y       z     vdW  Elec       q    Type
REMARK                         _______ _______ _______ _____ _____    ______ ____
ROOT
ATOM      1  O   UNL     1       5.158   2.074  19.496  0.00  0.00    +0.000 OA
ATOM      2  C   UNL     1       4.471   3.089  19.418  0.00  0.00    +0.000 C 
ATOM      3  C   UNL     1       3.145   3.119  20.036  0.00  0.00    +0.000 A 
ATOM      4  C   UNL     1       2.869   2.512  21.314  0.00  0.00    +0.000 A 
ATOM      5  C   UNL     1       1.561   2.663  21.709  0.00  0.00    +0.000 A 
ATOM      6  S   UNL     1       0.642   3.491  20.537  0.00  0.00    +0.000 S 
ATOM      7  C   UNL     1       1.987   3.632  19.477  0.00  0.00    +0.000 A 
ATOM      8  S   UNL     1       1.746   4.293  17.866  0.00  0.00    +0.000 S 
ATOM      9  C   UNL     1       3.100   5.488  17.675  0.00  0.00    +0.000 C 
ATOM     10  C   UNL     1       4.161   5.493  18.771  0.00  0.00    +0.000 C 
ATOM     11  N   UNL     1       4.940   4.254  18.809  0.00  0.00    +0.000 N 
ENDROOT
BRANCH  11  12
ATOM     12  C   UNL     1       6.250   4.226  18.146  0.00  0.00    +0.000 C 
BRANCH  12  13
ATOM     13  C   UNL     1       6.908   5.591  18.056  0.00  0.00    +0.000 A 
ATOM     14  C   UNL     1       7.806   5.975  19.072  0.00  0.00    +0.000 A 
ATOM     15  C   UNL     1       8.396   7.244  19.081  0.00  0.00    +0.000 A 
ATOM     16  C   UNL     1       8.093   8.149  18.072  0.00  0.00    +0.000 A 
ATOM     17 CL   UNL     1       8.771   9.730  18.105  0.00  0.00    +0.000 Cl
ATOM     18  C   UNL     1       7.243   7.784  17.034  0.00  0.00    +0.000 A 
ATOM     19  C   UNL     1       6.663   6.509  17.019  0.00  0.00    +0.000 A 
ATOM     20 CL   UNL     1       5.682   6.121  15.651  0.00  0.00    +0.000 Cl
ENDBRANCH  12  13
ENDBRANCH  11  12
TORSDOF 2
ENDMDL
MODEL 4
REMARK VINA RESULT:      -6.3      5.647      7.215
REMARK  Name = 
REMARK  2 active torsions:
REMARK  status: ('A' for Active; 'I' for Inactive)
REMARK    1  A    between atoms: N_11  and  C_12
REMARK    2  A    between atoms: C_12  and  C_13
REMARK                            x       y       z     vdW  Elec       q    Type
REMARK                         _______ _______ _______ _____ _____    ______ ____
ROOT
ATOM      1  O   UNL     1       1.690   9.747  18.640  0.00  0.00    +0.000 OA
ATOM      2  C   UNL     1       0.808   9.666  19.490  0.00  0.00    +0.000 C 
ATOM      3  C   UNL     1      -0.378  10.517  19.392  0.00  0.00    +0.000 A 
ATOM      4  C   UNL     1      -1.020  10.815  18.136  0.00  0.00    +0.000 A 
ATOM      5  C   UNL     1      -2.119  11.628  18.273  0.00  0.00    +0.000 A 
ATOM      6  S   UNL     1      -2.367  12.080  19.898  0.00  0.00    +0.000 S 
ATOM      7  C   UNL     1      -0.985  11.207  20.427  0.00  0.00    +0.000 A 
ATOM      8  S   UNL     1      -0.473  11.343  22.104  0.00  0.00    +0.000 S 
ATOM      9  C   UNL     1      -0.165   9.626  22.609  0.00  0.00    +0.000 C 
ATOM     10  C   UNL     1      -0.214   8.574  21.504  0.00  0.00    +0.000 C 
ATOM     11  N   UNL     1       0.863   8.732  20.525  0.00  0.00    +0.000 N 
ENDROOT
BRANCH  11  12
ATOM     12  C   UNL     1       2.066   7.901  20.663  0.00  0.00    +0.000 C 
BRANCH  12  13
ATOM     13  C   UNL     1       1.932   6.535  20.014  0.00  0.00    +0.000 A 
ATOM     14  C   UNL     1       1.228   5.526  20.702  0.00  0.00    +0.000 A 
ATOM     15  C   UNL     1       1.125   4.230  20.187  0.00  0.00    +0.000 A 
ATOM     16  C   UNL     1       1.730   3.922  18.975  0.00  0.00    +0.000 A 
ATOM     17 CL   UNL     1       1.654   2.317  18.361  0.00  0.00    +0.000 Cl
ATOM     18  C   UNL     1       2.395   4.907  18.253  0.00  0.00    +0.000 A 
ATOM     19  C   UNL     1       2.486   6.208  18.763  0.00  0.00    +0.000 A 
ATOM     20 CL   UNL     1       3.268   7.379  17.761  0.00  0.00    +0.000 Cl
ENDBRANCH  12  13
ENDBRANCH  11  12
TORSDOF 2
ENDMDL
MODEL 5
REMARK VINA RESULT:      -6.0      4.618      6.475
REMARK  Name = 
REMARK  2 active torsions:
REMARK  status: ('A' for Active; 'I' for Inactive)
REMARK    1  A    between atoms: N_11  and  C_12
REMARK    2  A    between atoms: C_12  and  C_13
REMARK                            x       y       z     vdW  Elec       q    Type
REMARK                         _______ _______ _______ _____ _____    ______ ____
ROOT
ATOM      1  O   UNL     1       1.549   5.809  21.085  0.00  0.00    +0.000 OA
ATOM      2  C   UNL     1       2.015   5.648  19.960  0.00  0.00    +0.000 C 
ATOM      3  C   UNL     1       2.017   4.314  19.358  0.00  0.00    +0.000 A 
ATOM      4  C   UNL     1       0.916   3.395  19.501  0.00  0.00    +0.000 A 
ATOM      5  C   UNL     1       1.123   2.202  18.851  0.00  0.00    +0.000 A 
ATOM      6  S   UNL     1       2.654   2.153  18.102  0.00  0.00    +0.000 S 
ATOM      7  C   UNL     1       3.061   3.724  18.666  0.00  0.00    +0.000 A 
ATOM      8  S   UNL     1       4.685   4.341  18.395  0.00  0.00    +0.000 S 
ATOM      9  C   UNL     1       4.416   6.027  17.777  0.00  0.00    +0.000 C 
ATOM     10  C   UNL     1       2.983   6.549  17.828  0.00  0.00    +0.000 C 
ATOM     11  N   UNL     1       2.491   6.715  19.197  0.00  0.00    +0.000 N 
ENDROOT
BRANCH  11  12
ATOM     12  C   UNL     1       2.536   8.051  19.804  0.00  0.00    +0.000 C 
BRANCH  12  13
ATOM     13  C   UNL     1       1.292   8.878  19.534  0.00  0.00    +0.000 A 
ATOM     14  C   UNL     1       0.978   9.210  18.201  0.00  0.00    +0.000 A 
ATOM     15  C   UNL     1      -0.118  10.022  17.892  0.00  0.00    +0.000 A 
ATOM     16  C   UNL     1      -0.916  10.519  18.915  0.00  0.00    +0.000 A 
ATOM     17 CL   UNL     1      -2.233  11.563  18.548  0.00  0.00    +0.000 Cl
ATOM     18  C   UNL     1      -0.655  10.175  20.237  0.00  0.00    +0.000 A 
ATOM     19  C   UNL     1       0.435   9.350  20.544  0.00  0.00    +0.000 A 
ATOM     20 CL   UNL     1       0.633   8.918  22.206  0.00  0.00    +0.000 Cl
ENDBRANCH  12  13
ENDBRANCH  11  12
TORSDOF 2
ENDMDL
MODEL 6
REMARK VINA RESULT:      -5.9      2.308      2.965
REMARK  Name = 
REMARK  2 active torsions:
REMARK  status: ('A' for Active; 'I' for Inactive)
REMARK    1  A    between atoms: N_11  and  C_12
REMARK    2  A    between atoms: C_12  and  C_13
REMARK                            x       y       z     vdW  Elec       q    Type
REMARK                         _______ _______ _______ _____ _____    ______ ____
ROOT
ATOM      1  O   UNL     1       5.310   2.302  19.526  0.00  0.00    +0.000 OA
ATOM      2  C   UNL     1       4.549   3.258  19.410  0.00  0.00    +0.000 C 
ATOM      3  C   UNL     1       3.221   3.208  20.023  0.00  0.00    +0.000 A 
ATOM      4  C   UNL     1       2.985   2.627  21.321  0.00  0.00    +0.000 A 
ATOM      5  C   UNL     1       1.668   2.691  21.707  0.00  0.00    +0.000 A 
ATOM      6  S   UNL     1       0.694   3.405  20.504  0.00  0.00    +0.000 S 
ATOM      7  C   UNL     1       2.030   3.611  19.444  0.00  0.00    +0.000 A 
ATOM      8  S   UNL     1       1.748   4.196  17.810  0.00  0.00    +0.000 S 
ATOM      9  C   UNL     1       3.008   5.484  17.581  0.00  0.00    +0.000 C 
ATOM     10  C   UNL     1       4.059   5.608  18.680  0.00  0.00    +0.000 C 
ATOM     11  N   UNL     1       4.930   4.434  18.763  0.00  0.00    +0.000 N 
ENDROOT
BRANCH  11  12
ATOM     12  C   UNL     1       6.242   4.483  18.105  0.00  0.00    +0.000 C 
BRANCH  12  13
ATOM     13  C   UNL     1       6.886   5.858  18.147  0.00  0.00    +0.000 A 
ATOM     14  C   UNL     1       6.496   6.815  17.188  0.00  0.00    +0.000 A 
ATOM     15  C   UNL     1       7.098   8.077  17.134  0.00  0.00    +0.000 A 
ATOM     16  C   UNL     1       8.103   8.399  18.038  0.00  0.00    +0.000 A 
ATOM     17 CL   UNL     1       8.885   9.928  17.943  0.00  0.00    +0.000 Cl
ATOM     18  C   UNL     1       8.479   7.490  19.021  0.00  0.00    +0.000 A 
ATOM     19  C   UNL     1       7.866   6.232  19.083  0.00  0.00    +0.000 A 
ATOM     20 CL   UNL     1       8.347   5.201  20.384  0.00  0.00    +0.000 Cl
ENDBRANCH  12  13
ENDBRANCH  11  12
TORSDOF 2
ENDMDL
MODEL 7
REMARK VINA RESULT:      -5.9      5.188      6.955
REMARK  Name = 
REMARK  2 active torsions:
REMARK  status: ('A' for Active; 'I' for Inactive)
REMARK    1  A    between atoms: N_11  and  C_12
REMARK    2  A    between atoms: C_12  and  C_13
REMARK                            x       y       z     vdW  Elec       q    Type
REMARK                         _______ _______ _______ _____ _____    ______ ____
ROOT
ATOM      1  O   UNL     1       1.463   7.438  21.194  0.00  0.00    +0.000 OA
ATOM      2  C   UNL     1       1.889   6.939  20.157  0.00  0.00    +0.000 C 
ATOM      3  C   UNL     1       2.028   5.486  20.052  0.00  0.00    +0.000 A 
ATOM      4  C   UNL     1       1.060   4.571  20.601  0.00  0.00    +0.000 A 
ATOM      5  C   UNL     1       1.383   3.252  20.384  0.00  0.00    +0.000 A 
ATOM      6  S   UNL     1       2.868   3.097  19.562  0.00  0.00    +0.000 S 
ATOM      7  C   UNL     1       3.102   4.798  19.513  0.00  0.00    +0.000 A 
ATOM      8  S   UNL     1       4.620   5.439  18.901  0.00  0.00    +0.000 S 
ATOM      9  C   UNL     1       4.112   6.765  17.768  0.00  0.00    +0.000 C 
ATOM     10  C   UNL     1       2.629   7.124  17.767  0.00  0.00    +0.000 C 
ATOM     11  N   UNL     1       2.188   7.711  19.034  0.00  0.00    +0.000 N 
ENDROOT
BRANCH  11  12
ATOM     12  C   UNL     1       2.096   9.173  19.137  0.00  0.00    +0.000 C 
BRANCH  12  13
ATOM     13  C   UNL     1       0.683   9.701  18.967  0.00  0.00    +0.000 A 
ATOM     14  C   UNL     1       0.020   9.474  17.744  0.00  0.00    +0.000 A 
ATOM     15  C   UNL     1      -1.257   9.990  17.501  0.00  0.00    +0.000 A 
ATOM     16  C   UNL     1      -1.890  10.746  18.480  0.00  0.00    +0.000 A 
ATOM     17 CL   UNL     1      -3.438  11.429  18.169  0.00  0.00    +0.000 Cl
ATOM     18  C   UNL     1      -1.278  10.951  19.712  0.00  0.00    +0.000 A 
ATOM     19  C   UNL     1      -0.005  10.423  19.959  0.00  0.00    +0.000 A 
ATOM     20 CL   UNL     1       0.640  10.667  21.543  0.00  0.00    +0.000 Cl
ENDBRANCH  12  13
ENDBRANCH  11  12
TORSDOF 2
ENDMDL
MODEL 8
REMARK VINA RESULT:      -5.8      1.012      1.028
REMARK  Name = 
REMARK  2 active torsions:
REMARK  status: ('A' for Active; 'I' for Inactive)
REMARK    1  A    between atoms: N_11  and  C_12
REMARK    2  A    between atoms: C_12  and  C_13
REMARK                            x       y       z     vdW  Elec       q    Type
REMARK                         _______ _______ _______ _____ _____    ______ ____
ROOT
ATOM      1  O   UNL     1       5.371   3.129  19.576  0.00  0.00    +0.000 OA
ATOM      2  C   UNL     1       4.399   3.876  19.521  0.00  0.00    +0.000 C 
ATOM      3  C   UNL     1       3.126   3.456  20.109  0.00  0.00    +0.000 A 
ATOM      4  C   UNL     1       3.044   2.738  21.355  0.00  0.00    +0.000 A 
ATOM      5  C   UNL     1       1.752   2.449  21.726  0.00  0.00    +0.000 A 
ATOM      6  S   UNL     1       0.630   2.993  20.565  0.00  0.00    +0.000 S 
ATOM      7  C   UNL     1       1.870   3.600  19.543  0.00  0.00    +0.000 A 
ATOM      8  S   UNL     1       1.448   4.221  17.953  0.00  0.00    +0.000 S 
ATOM      9  C   UNL     1       2.354   5.790  17.840  0.00  0.00    +0.000 C 
ATOM     10  C   UNL     1       3.347   6.083  18.961  0.00  0.00    +0.000 C 
ATOM     11  N   UNL     1       4.479   5.155  18.969  0.00  0.00    +0.000 N 
ENDROOT
BRANCH  11  12
ATOM     12  C   UNL     1       5.736   5.573  18.337  0.00  0.00    +0.000 C 
BRANCH  12  13
ATOM     13  C   UNL     1       5.840   5.169  16.877  0.00  0.00    +0.000 A 
ATOM     14  C   UNL     1       6.389   3.909  16.563  0.00  0.00    +0.000 A 
ATOM     15  C   UNL     1       6.571   3.505  15.236  0.00  0.00    +0.000 A 
ATOM     16  C   UNL     1       6.209   4.359  14.202  0.00  0.00    +0.000 A 
ATOM     17 CL   UNL     1       6.480   3.892  12.569  0.00  0.00    +0.000 Cl
ATOM     18  C   UNL     1       5.627   5.591  14.481  0.00  0.00    +0.000 A 
ATOM     19  C   UNL     1       5.433   5.989  15.810  0.00  0.00    +0.000 A 
ATOM     20 CL   UNL     1       4.635   7.502  16.055  0.00  0.00    +0.000 Cl
ENDBRANCH  12  13
ENDBRANCH  11  12
TORSDOF 2
ENDMDL
MODEL 9
REMARK VINA RESULT:      -5.7      2.306      3.526
REMARK  Name = 
REMARK  2 active torsions:
REMARK  status: ('A' for Active; 'I' for Inactive)
REMARK    1  A    between atoms: N_11  and  C_12
REMARK    2  A    between atoms: C_12  and  C_13
REMARK                            x       y       z     vdW  Elec       q    Type
REMARK                         _______ _______ _______ _____ _____    ______ ____
ROOT
ATOM      1  O   UNL     1       5.150   6.690  17.756  0.00  0.00    +0.000 OA
ATOM      2  C   UNL     1       4.010   6.328  18.031  0.00  0.00    +0.000 C 
ATOM      3  C   UNL     1       2.990   7.325  18.360  0.00  0.00    +0.000 A 
ATOM      4  C   UNL     1       2.884   8.586  17.670  0.00  0.00    +0.000 A 
ATOM      5  C   UNL     1       1.853   9.368  18.133  0.00  0.00    +0.000 A 
ATOM      6  S   UNL     1       1.032   8.621  19.426  0.00  0.00    +0.000 S 
ATOM      7  C   UNL     1       2.070   7.253  19.391  0.00  0.00    +0.000 A 
ATOM      8  S   UNL     1       1.917   6.026  20.641  0.00  0.00    +0.000 S 
ATOM      9  C   UNL     1       1.932   4.459  19.723  0.00  0.00    +0.000 C 
ATOM     10  C   UNL     1       2.254   4.548  18.234  0.00  0.00    +0.000 C 
ATOM     11  N   UNL     1       3.627   4.988  17.978  0.00  0.00    +0.000 N 
ENDROOT
BRANCH  11  12
ATOM     12  C   UNL     1       4.649   3.972  17.693  0.00  0.00    +0.000 C 
BRANCH  12  13
ATOM     13  C   UNL     1       5.395   4.215  16.394  0.00  0.00    +0.000 A 
ATOM     14  C   UNL     1       4.668   4.205  15.186  0.00  0.00    +0.000 A 
ATOM     15  C   UNL     1       5.306   4.359  13.951  0.00  0.00    +0.000 A 
ATOM     16  C   UNL     1       6.685   4.522  13.906  0.00  0.00    +0.000 A 
ATOM     17 CL   UNL     1       7.484   4.657  12.389  0.00  0.00    +0.000 Cl
ATOM     18  C   UNL     1       7.423   4.578  15.083  0.00  0.00    +0.000 A 
ATOM     19  C   UNL     1       6.781   4.437  16.320  0.00  0.00    +0.000 A 
ATOM     20 CL   UNL     1       7.771   4.595  17.728  0.00  0.00    +0.000 Cl
ENDBRANCH  12  13
ENDBRANCH  11  12
TORSDOF 2
ENDMDL
