MODEL 1
REMARK VINA RESULT:      -8.2      0.000      0.000
REMARK  Name = 
REMARK  5 active torsions:
REMARK  status: ('A' for Active; 'I' for Inactive)
REMARK    1  A    between atoms: C_1  and  N_2
REMARK    2  A    between atoms: N_2  and  C_3
REMARK    3  A    between atoms: N_2  and  C_4
REMARK    4  A    between atoms: C_7  and  C_8
REMARK    5  A    between atoms: N_10  and  C_11
REMARK                            x       y       z     vdW  Elec       q    Type
REMARK                         _______ _______ _______ _____ _____    ______ ____
ROOT
ATOM      1  C   UNL     1       8.295   8.881  18.218  0.00  0.00    +0.000 A 
ATOM      2  C   UNL     1       8.321   7.544  18.592  0.00  0.00    +0.000 A 
ATOM      3  N   UNL     1       7.455   6.901  17.719  0.00  0.00    +0.000 N 
ATOM      4  N   UNL     1       6.910   7.835  16.889  0.00  0.00    +0.000 NA
ATOM      5  N   UNL     1       7.416   9.024  17.180  0.00  0.00    +0.000 NA
ENDROOT
BRANCH   3   6
ATOM      6  C   UNL     1       6.864   5.602  17.816  0.00  0.00    +0.000 A 
ATOM      7  C   UNL     1       7.503   4.670  17.015  0.00  0.00    +0.000 A 
ATOM      8  C   UNL     1       6.704   4.009  16.109  0.00  0.00    +0.000 A 
ATOM      9  N   UNL     1       5.355   4.092  16.109  0.00  0.00    +0.000 NA
ATOM     10  C   UNL     1       4.768   4.649  17.169  0.00  0.00    +0.000 A 
ATOM     11  C   UNL     1       3.431   4.350  17.372  0.00  0.00    +0.000 A 
ATOM     12  C   UNL     1       2.872   4.474  18.637  0.00  0.00    +0.000 A 
ATOM     13 CL   UNL     1       1.291   3.857  18.928  0.00  0.00    +0.000 Cl
ATOM     14  C   UNL     1       3.633   4.984  19.686  0.00  0.00    +0.000 A 
ATOM     15  C   UNL     1       4.922   5.491  19.423  0.00  0.00    +0.000 A 
ATOM     16  C   UNL     1       5.499   5.363  18.138  0.00  0.00    +0.000 A 
ENDBRANCH   3   6
BRANCH   1  20
ATOM     17  C   UNL     1      10.329  12.396  19.788  0.00  0.00    +0.000 A 
ATOM     18  C   UNL     1      10.283  12.097  18.411  0.00  0.00    +0.000 A 
ATOM     19  C   UNL     1       9.698  10.925  17.897  0.00  0.00    +0.000 A 
ATOM     20  C   UNL     1       9.097   9.993  18.734  0.00  0.00    +0.000 A 
ATOM     21  C   UNL     1       9.216  10.215  20.117  0.00  0.00    +0.000 A 
ATOM     22  C   UNL     1       9.815  11.386  20.627  0.00  0.00    +0.000 A 
BRANCH  17  24
ATOM     23  C   UNL     1      11.993  14.232  19.655  0.00  0.00    +0.000 C 
ATOM     24  N   UNL     1      10.819  13.599  20.263  0.00  0.00    +0.000 N 
ATOM     25  C   UNL     1      10.157  14.337  21.334  0.00  0.00    +0.000 C 
ENDBRANCH  17  24
ENDBRANCH   1  20
TORSDOF 3
ENDMDL
MODEL 2
REMARK VINA RESULT:      -8.1      5.511      7.324
REMARK  Name = 
REMARK  5 active torsions:
REMARK  status: ('A' for Active; 'I' for Inactive)
REMARK    1  A    between atoms: C_1  and  N_2
REMARK    2  A    between atoms: N_2  and  C_3
REMARK    3  A    between atoms: N_2  and  C_4
REMARK    4  A    between atoms: C_7  and  C_8
REMARK    5  A    between atoms: N_10  and  C_11
REMARK                            x       y       z     vdW  Elec       q    Type
REMARK                         _______ _______ _______ _____ _____    ______ ____
ROOT
ATOM      1  C   UNL     1       2.762   6.919  18.833  0.00  0.00    +0.000 A 
ATOM      2  C   UNL     1       3.675   6.655  17.822  0.00  0.00    +0.000 A 
ATOM      3  N   UNL     1       4.054   5.333  18.003  0.00  0.00    +0.000 N 
ATOM      4  N   UNL     1       3.415   4.852  19.108  0.00  0.00    +0.000 NA
ATOM      5  N   UNL     1       2.634   5.797  19.605  0.00  0.00    +0.000 NA
ENDROOT
BRANCH   3   6
ATOM      6  C   UNL     1       5.171   4.624  17.460  0.00  0.00    +0.000 A 
ATOM      7  C   UNL     1       6.180   4.436  18.390  0.00  0.00    +0.000 A 
ATOM      8  C   UNL     1       7.422   4.912  18.032  0.00  0.00    +0.000 A 
ATOM      9  N   UNL     1       7.717   5.356  16.790  0.00  0.00    +0.000 NA
ATOM     10  C   UNL     1       6.840   5.105  15.817  0.00  0.00    +0.000 A 
ATOM     11  C   UNL     1       7.316   5.160  14.517  0.00  0.00    +0.000 A 
ATOM     12  C   UNL     1       6.653   4.482  13.502  0.00  0.00    +0.000 A 
ATOM     13 CL   UNL     1       7.393   4.346  11.954  0.00  0.00    +0.000 Cl
ATOM     14  C   UNL     1       5.459   3.820  13.774  0.00  0.00    +0.000 A 
ATOM     15  C   UNL     1       4.868   3.952  15.047  0.00  0.00    +0.000 A 
ATOM     16  C   UNL     1       5.540   4.637  16.086  0.00  0.00    +0.000 A 
ENDBRANCH   3   6
BRANCH   1  20
ATOM     17  C   UNL     1       0.066  10.279  19.464  0.00  0.00    +0.000 A 
ATOM     18  C   UNL     1       0.682  10.023  18.222  0.00  0.00    +0.000 A 
ATOM     19  C   UNL     1       1.615   8.990  18.025  0.00  0.00    +0.000 A 
ATOM     20  C   UNL     1       1.966   8.129  19.058  0.00  0.00    +0.000 A 
ATOM     21  C   UNL     1       1.445   8.422  20.331  0.00  0.00    +0.000 A 
ATOM     22  C   UNL     1       0.519   9.468  20.525  0.00  0.00    +0.000 A 
BRANCH  17  24
ATOM     23  C   UNL     1      -1.699  11.706  18.460  0.00  0.00    +0.000 C 
ATOM     24  N   UNL     1      -0.923  11.236  19.611  0.00  0.00    +0.000 N 
ATOM     25  C   UNL     1      -1.298  11.770  20.916  0.00  0.00    +0.000 C 
ENDBRANCH  17  24
ENDBRANCH   1  20
TORSDOF 3
ENDMDL
MODEL 3
REMARK VINA RESULT:      -7.9      5.499      7.052
REMARK  Name = 
REMARK  5 active torsions:
REMARK  status: ('A' for Active; 'I' for Inactive)
REMARK    1  A    between atoms: C_1  and  N_2
REMARK    2  A    between atoms: N_2  and  C_3
REMARK    3  A    between atoms: N_2  and  C_4
REMARK    4  A    between atoms: C_7  and  C_8
REMARK    5  A    between atoms: N_10  and  C_11
REMARK                            x       y       z     vdW  Elec       q    Type
REMARK                         _______ _______ _______ _____ _____    ______ ____
ROOT
ATOM      1  C   UNL     1       2.820   6.776  18.883  0.00  0.00    +0.000 A 
ATOM      2  C   UNL     1       3.681   6.500  17.829  0.00  0.00    +0.000 A 
ATOM      3  N   UNL     1       4.139   5.211  18.055  0.00  0.00    +0.000 N 
ATOM      4  N   UNL     1       3.597   4.761  19.223  0.00  0.00    +0.000 NA
ATOM      5  N   UNL     1       2.800   5.694  19.720  0.00  0.00    +0.000 NA
ENDROOT
BRANCH   3   6
ATOM      6  C   UNL     1       5.255   4.527  17.478  0.00  0.00    +0.000 A 
ATOM      7  C   UNL     1       6.285   4.340  18.385  0.00  0.00    +0.000 A 
ATOM      8  C   UNL     1       7.513   4.841  18.010  0.00  0.00    +0.000 A 
ATOM      9  N   UNL     1       7.776   5.309  16.769  0.00  0.00    +0.000 NA
ATOM     10  C   UNL     1       6.884   5.060  15.811  0.00  0.00    +0.000 A 
ATOM     11  C   UNL     1       7.333   5.143  14.502  0.00  0.00    +0.000 A 
ATOM     12  C   UNL     1       6.660   4.472  13.490  0.00  0.00    +0.000 A 
ATOM     13 CL   UNL     1       7.370   4.372  11.925  0.00  0.00    +0.000 Cl
ATOM     14  C   UNL     1       5.481   3.787  13.774  0.00  0.00    +0.000 A 
ATOM     15  C   UNL     1       4.914   3.890  15.061  0.00  0.00    +0.000 A 
ATOM     16  C   UNL     1       5.597   4.568  16.097  0.00  0.00    +0.000 A 
ENDBRANCH   3   6
BRANCH   1  20
ATOM     17  C   UNL     1       0.663  10.495  19.571  0.00  0.00    +0.000 A 
ATOM     18  C   UNL     1       0.822   9.513  20.571  0.00  0.00    +0.000 A 
ATOM     19  C   UNL     1       1.447   8.274  20.340  0.00  0.00    +0.000 A 
ATOM     20  C   UNL     1       1.979   7.955  19.095  0.00  0.00    +0.000 A 
ATOM     21  C   UNL     1       1.746   8.873  18.055  0.00  0.00    +0.000 A 
ATOM     22  C   UNL     1       1.107  10.108  18.290  0.00  0.00    +0.000 A 
BRANCH  17  24
ATOM     23  C   UNL     1      -0.800  12.390  18.921  0.00  0.00    +0.000 C 
ATOM     24  N   UNL     1       0.136  11.744  19.845  0.00  0.00    +0.000 N 
ATOM     25  C   UNL     1       0.417  12.448  21.092  0.00  0.00    +0.000 C 
ENDBRANCH  17  24
ENDBRANCH   1  20
TORSDOF 3
ENDMDL
MODEL 4
REMARK VINA RESULT:      -7.8      6.606      9.880
REMARK  Name = 
REMARK  5 active torsions:
REMARK  status: ('A' for Active; 'I' for Inactive)
REMARK    1  A    between atoms: C_1  and  N_2
REMARK    2  A    between atoms: N_2  and  C_3
REMARK    3  A    between atoms: N_2  and  C_4
REMARK    4  A    between atoms: C_7  and  C_8
REMARK    5  A    between atoms: N_10  and  C_11
REMARK                            x       y       z     vdW  Elec       q    Type
REMARK                         _______ _______ _______ _____ _____    ______ ____
ROOT
ATOM      1  C   UNL     1       1.788   7.682  19.965  0.00  0.00    +0.000 A 
ATOM      2  C   UNL     1       1.565   8.511  18.874  0.00  0.00    +0.000 A 
ATOM      3  N   UNL     1       1.035   9.679  19.401  0.00  0.00    +0.000 N 
ATOM      4  N   UNL     1       0.914   9.525  20.750  0.00  0.00    +0.000 NA
ATOM      5  N   UNL     1       1.370   8.331  21.094  0.00  0.00    +0.000 NA
ENDROOT
BRANCH   3   6
ATOM      6  C   UNL     1       0.346  10.745  18.741  0.00  0.00    +0.000 A 
ATOM      7  C   UNL     1       0.928  11.979  18.984  0.00  0.00    +0.000 A 
ATOM      8  C   UNL     1       0.097  12.940  19.517  0.00  0.00    +0.000 A 
ATOM      9  N   UNL     1      -1.242  12.787  19.623  0.00  0.00    +0.000 NA
ATOM     10  C   UNL     1      -1.803  11.767  18.973  0.00  0.00    +0.000 A 
ATOM     11  C   UNL     1      -3.163  11.858  18.721  0.00  0.00    +0.000 A 
ATOM     12  C   UNL     1      -3.731  11.125  17.689  0.00  0.00    +0.000 A 
ATOM     13 CL   UNL     1      -5.359  11.441  17.224  0.00  0.00    +0.000 Cl
ATOM     14  C   UNL     1      -2.952  10.229  16.961  0.00  0.00    +0.000 A 
ATOM     15  C   UNL     1      -1.625   9.980  17.365  0.00  0.00    +0.000 A 
ATOM     16  C   UNL     1      -1.038  10.727  18.412  0.00  0.00    +0.000 A 
ENDBRANCH   3   6
BRANCH   1  20
ATOM     17  C   UNL     1       3.491   3.682  19.728  0.00  0.00    +0.000 A 
ATOM     18  C   UNL     1       2.402   3.995  20.568  0.00  0.00    +0.000 A 
ATOM     19  C   UNL     1       1.894   5.299  20.714  0.00  0.00    +0.000 A 
ATOM     20  C   UNL     1       2.428   6.365  20.001  0.00  0.00    +0.000 A 
ATOM     21  C   UNL     1       3.576   6.101  19.233  0.00  0.00    +0.000 A 
ATOM     22  C   UNL     1       4.090   4.794  19.101  0.00  0.00    +0.000 A 
BRANCH  17  24
ATOM     23  C   UNL     1       4.790   1.708  20.483  0.00  0.00    +0.000 C 
ATOM     24  N   UNL     1       3.910   2.380  19.523  0.00  0.00    +0.000 N 
ATOM     25  C   UNL     1       3.443   1.583  18.393  0.00  0.00    +0.000 C 
ENDBRANCH  17  24
ENDBRANCH   1  20
TORSDOF 3
ENDMDL
MODEL 5
REMARK VINA RESULT:      -7.7      6.338      8.184
REMARK  Name = 
REMARK  5 active torsions:
REMARK  status: ('A' for Active; 'I' for Inactive)
REMARK    1  A    between atoms: C_1  and  N_2
REMARK    2  A    between atoms: N_2  and  C_3
REMARK    3  A    between atoms: N_2  and  C_4
REMARK    4  A    between atoms: C_7  and  C_8
REMARK    5  A    between atoms: N_10  and  C_11
REMARK                            x       y       z     vdW  Elec       q    Type
REMARK                         _______ _______ _______ _____ _____    ______ ____
ROOT
ATOM      1  C   UNL     1       0.989   9.409  20.263  0.00  0.00    +0.000 A 
ATOM      2  C   UNL     1       1.516   8.149  20.513  0.00  0.00    +0.000 A 
ATOM      3  N   UNL     1       2.107   7.754  19.321  0.00  0.00    +0.000 N 
ATOM      4  N   UNL     1       1.898   8.732  18.394  0.00  0.00    +0.000 NA
ATOM      5  N   UNL     1       1.234   9.730  18.956  0.00  0.00    +0.000 NA
ENDROOT
BRANCH   3   6
ATOM      6  C   UNL     1       2.530   6.454  18.902  0.00  0.00    +0.000 A 
ATOM      7  C   UNL     1       1.818   5.442  19.524  0.00  0.00    +0.000 A 
ATOM      8  C   UNL     1       2.570   4.510  20.206  0.00  0.00    +0.000 A 
ATOM      9  N   UNL     1       3.918   4.443  20.128  0.00  0.00    +0.000 NA
ATOM     10  C   UNL     1       4.519   5.156  19.175  0.00  0.00    +0.000 A 
ATOM     11  C   UNL     1       5.800   4.766  18.817  0.00  0.00    +0.000 A 
ATOM     12  C   UNL     1       6.312   5.109  17.573  0.00  0.00    +0.000 A 
ATOM     13 CL   UNL     1       7.791   4.403  17.043  0.00  0.00    +0.000 Cl
ATOM     14  C   UNL     1       5.573   5.921  16.717  0.00  0.00    +0.000 A 
ATOM     15  C   UNL     1       4.368   6.494  17.175  0.00  0.00    +0.000 A 
ATOM     16  C   UNL     1       3.839   6.145  18.439  0.00  0.00    +0.000 A 
ENDBRANCH   3   6
BRANCH   1  20
ATOM     17  C   UNL     1      -1.276  12.088  22.842  0.00  0.00    +0.000 A 
ATOM     18  C   UNL     1      -0.488  12.553  21.769  0.00  0.00    +0.000 A 
ATOM     19  C   UNL     1       0.311  11.707  20.978  0.00  0.00    +0.000 A 
ATOM     20  C   UNL     1       0.345  10.335  21.197  0.00  0.00    +0.000 A 
ATOM     21  C   UNL     1      -0.352   9.857  22.322  0.00  0.00    +0.000 A 
ATOM     22  C   UNL     1      -1.140  10.712  23.119  0.00  0.00    +0.000 A 
BRANCH  17  24
ATOM     23  C   UNL     1      -1.732  14.287  23.897  0.00  0.00    +0.000 C 
ATOM     24  N   UNL     1      -2.130  12.922  23.541  0.00  0.00    +0.000 N 
ATOM     25  C   UNL     1      -3.488  12.521  23.894  0.00  0.00    +0.000 C 
ENDBRANCH  17  24
ENDBRANCH   1  20
TORSDOF 3
ENDMDL
MODEL 6
REMARK VINA RESULT:      -7.7      4.988      7.245
REMARK  Name = 
REMARK  5 active torsions:
REMARK  status: ('A' for Active; 'I' for Inactive)
REMARK    1  A    between atoms: C_1  and  N_2
REMARK    2  A    between atoms: N_2  and  C_3
REMARK    3  A    between atoms: N_2  and  C_4
REMARK    4  A    between atoms: C_7  and  C_8
REMARK    5  A    between atoms: N_10  and  C_11
REMARK                            x       y       z     vdW  Elec       q    Type
REMARK                         _______ _______ _______ _____ _____    ______ ____
ROOT
ATOM      1  C   UNL     1       2.606   6.725  19.623  0.00  0.00    +0.000 A 
ATOM      2  C   UNL     1       3.633   6.728  18.689  0.00  0.00    +0.000 A 
ATOM      3  N   UNL     1       4.084   5.417  18.634  0.00  0.00    +0.000 N 
ATOM      4  N   UNL     1       3.374   4.680  19.535  0.00  0.00    +0.000 NA
ATOM      5  N   UNL     1       2.481   5.458  20.126  0.00  0.00    +0.000 NA
ENDROOT
BRANCH   3   6
ATOM      6  C   UNL     1       5.298   4.895  18.085  0.00  0.00    +0.000 A 
ATOM      7  C   UNL     1       6.379   5.071  18.932  0.00  0.00    +0.000 A 
ATOM      8  C   UNL     1       7.455   5.747  18.400  0.00  0.00    +0.000 A 
ATOM      9  N   UNL     1       7.562   6.056  17.088  0.00  0.00    +0.000 NA
ATOM     10  C   UNL     1       6.707   5.479  16.244  0.00  0.00    +0.000 A 
ATOM     11  C   UNL     1       7.075   5.442  14.909  0.00  0.00    +0.000 A 
ATOM     12  C   UNL     1       6.523   4.494  14.058  0.00  0.00    +0.000 A 
ATOM     13 CL   UNL     1       7.176   4.294  12.477  0.00  0.00    +0.000 Cl
ATOM     14  C   UNL     1       5.531   3.636  14.525  0.00  0.00    +0.000 A 
ATOM     15  C   UNL     1       5.006   3.823  15.819  0.00  0.00    +0.000 A 
ATOM     16  C   UNL     1       5.568   4.784  16.693  0.00  0.00    +0.000 A 
ENDBRANCH   3   6
BRANCH   1  20
ATOM     17  C   UNL     1       0.271  10.181  20.871  0.00  0.00    +0.000 A 
ATOM     18  C   UNL     1       0.412   9.030  21.673  0.00  0.00    +0.000 A 
ATOM     19  C   UNL     1       1.097   7.877  21.250  0.00  0.00    +0.000 A 
ATOM     20  C   UNL     1       1.709   7.818  20.004  0.00  0.00    +0.000 A 
ATOM     21  C   UNL     1       1.500   8.911  19.144  0.00  0.00    +0.000 A 
ATOM     22  C   UNL     1       0.801  10.060  19.570  0.00  0.00    +0.000 A 
BRANCH  17  24
ATOM     23  C   UNL     1      -0.295  12.577  20.559  0.00  0.00    +0.000 C 
ATOM     24  N   UNL     1      -0.319  11.339  21.344  0.00  0.00    +0.000 N 
ATOM     25  C   UNL     1      -1.057  11.375  22.602  0.00  0.00    +0.000 C 
ENDBRANCH  17  24
ENDBRANCH   1  20
TORSDOF 3
ENDMDL
MODEL 7
REMARK VINA RESULT:      -7.6      0.732      1.317
REMARK  Name = 
REMARK  5 active torsions:
REMARK  status: ('A' for Active; 'I' for Inactive)
REMARK    1  A    between atoms: C_1  and  N_2
REMARK    2  A    between atoms: N_2  and  C_3
REMARK    3  A    between atoms: N_2  and  C_4
REMARK    4  A    between atoms: C_7  and  C_8
REMARK    5  A    between atoms: N_10  and  C_11
REMARK                            x       y       z     vdW  Elec       q    Type
REMARK                         _______ _______ _______ _____ _____    ______ ____
ROOT
ATOM      1  C   UNL     1       7.844   8.810  17.949  0.00  0.00    +0.000 A 
ATOM      2  C   UNL     1       8.057   7.482  18.292  0.00  0.00    +0.000 A 
ATOM      3  N   UNL     1       7.201   6.751  17.481  0.00  0.00    +0.000 N 
ATOM      4  N   UNL     1       6.482   7.623  16.719  0.00  0.00    +0.000 NA
ATOM      5  N   UNL     1       6.869   8.860  16.991  0.00  0.00    +0.000 NA
ENDROOT
BRANCH   3   6
ATOM      6  C   UNL     1       6.776   5.390  17.600  0.00  0.00    +0.000 A 
ATOM      7  C   UNL     1       7.478   4.542  16.760  0.00  0.00    +0.000 A 
ATOM      8  C   UNL     1       6.717   3.790  15.893  0.00  0.00    +0.000 A 
ATOM      9  N   UNL     1       5.369   3.711  15.966  0.00  0.00    +0.000 NA
ATOM     10  C   UNL     1       4.778   4.192  17.059  0.00  0.00    +0.000 A 
ATOM     11  C   UNL     1       3.499   3.735  17.331  0.00  0.00    +0.000 A 
ATOM     12  C   UNL     1       2.998   3.790  18.625  0.00  0.00    +0.000 A 
ATOM     13 CL   UNL     1       1.520   2.988  18.995  0.00  0.00    +0.000 Cl
ATOM     14  C   UNL     1       3.747   4.388  19.635  0.00  0.00    +0.000 A 
ATOM     15  C   UNL     1       4.951   5.046  19.308  0.00  0.00    +0.000 A 
ATOM     16  C   UNL     1       5.469   4.988  17.993  0.00  0.00    +0.000 A 
ENDBRANCH   3   6
BRANCH   1  20
ATOM     17  C   UNL     1      10.246  12.259  19.086  0.00  0.00    +0.000 A 
ATOM     18  C   UNL     1      10.201  11.078  19.855  0.00  0.00    +0.000 A 
ATOM     19  C   UNL     1       9.370   9.988  19.542  0.00  0.00    +0.000 A 
ATOM     20  C   UNL     1       8.551  10.004  18.419  0.00  0.00    +0.000 A 
ATOM     21  C   UNL     1       8.501  11.206  17.691  0.00  0.00    +0.000 A 
ATOM     22  C   UNL     1       9.327  12.301  18.017  0.00  0.00    +0.000 A 
BRANCH  17  24
ATOM     23  C   UNL     1      10.978  14.143  20.525  0.00  0.00    +0.000 C 
ATOM     24  N   UNL     1      11.143  13.278  19.354  0.00  0.00    +0.000 N 
ATOM     25  C   UNL     1      12.333  13.498  18.539  0.00  0.00    +0.000 C 
ENDBRANCH  17  24
ENDBRANCH   1  20
TORSDOF 3
ENDMDL
MODEL 8
REMARK VINA RESULT:      -7.5      5.666      7.293
REMARK  Name = 
REMARK  5 active torsions:
REMARK  status: ('A' for Active; 'I' for Inactive)
REMARK    1  A    between atoms: C_1  and  N_2
REMARK    2  A    between atoms: N_2  and  C_3
REMARK    3  A    between atoms: N_2  and  C_4
REMARK    4  A    between atoms: C_7  and  C_8
REMARK    5  A    between atoms: N_10  and  C_11
REMARK                            x       y       z     vdW  Elec       q    Type
REMARK                         _______ _______ _______ _____ _____    ______ ____
ROOT
ATOM      1  C   UNL     1       2.826   7.566  18.391  0.00  0.00    +0.000 A 
ATOM      2  C   UNL     1       3.500   6.378  18.639  0.00  0.00    +0.000 A 
ATOM      3  N   UNL     1       4.435   6.266  17.620  0.00  0.00    +0.000 N 
ATOM      4  N   UNL     1       4.287   7.330  16.782  0.00  0.00    +0.000 NA
ATOM      5  N   UNL     1       3.328   8.117  17.243  0.00  0.00    +0.000 NA
ENDROOT
BRANCH   3   6
ATOM      6  C   UNL     1       5.187   5.125  17.197  0.00  0.00    +0.000 A 
ATOM      7  C   UNL     1       6.052   4.670  18.178  0.00  0.00    +0.000 A 
ATOM      8  C   UNL     1       7.379   4.587  17.817  0.00  0.00    +0.000 A 
ATOM      9  N   UNL     1       7.813   4.740  16.546  0.00  0.00    +0.000 NA
ATOM     10  C   UNL     1       6.900   4.738  15.575  0.00  0.00    +0.000 A 
ATOM     11  C   UNL     1       7.350   4.459  14.294  0.00  0.00    +0.000 A 
ATOM     12  C   UNL     1       6.469   3.978  13.334  0.00  0.00    +0.000 A 
ATOM     13 CL   UNL     1       7.087   3.394  11.837  0.00  0.00    +0.000 Cl
ATOM     14  C   UNL     1       5.114   3.862  13.631  0.00  0.00    +0.000 A 
ATOM     15  C   UNL     1       4.629   4.354  14.860  0.00  0.00    +0.000 A 
ATOM     16  C   UNL     1       5.522   4.839  15.844  0.00  0.00    +0.000 A 
ENDBRANCH   3   6
BRANCH   1  20
ATOM     17  C   UNL     1       0.075   9.814  20.908  0.00  0.00    +0.000 A 
ATOM     18  C   UNL     1       0.725   8.643  21.350  0.00  0.00    +0.000 A 
ATOM     19  C   UNL     1       1.554   7.864  20.523  0.00  0.00    +0.000 A 
ATOM     20  C   UNL     1       1.805   8.229  19.205  0.00  0.00    +0.000 A 
ATOM     21  C   UNL     1       1.092   9.335  18.708  0.00  0.00    +0.000 A 
ATOM     22  C   UNL     1       0.252  10.105  19.540  0.00  0.00    +0.000 A 
BRANCH  17  24
ATOM     23  C   UNL     1      -1.324  11.828  21.282  0.00  0.00    +0.000 C 
ATOM     24  N   UNL     1      -0.654  10.618  21.765  0.00  0.00    +0.000 N 
ATOM     25  C   UNL     1      -0.858  10.271  23.168  0.00  0.00    +0.000 C 
ENDBRANCH  17  24
ENDBRANCH   1  20
TORSDOF 3
ENDMDL
MODEL 9
REMARK VINA RESULT:      -7.5      6.942      9.920
REMARK  Name = 
REMARK  5 active torsions:
REMARK  status: ('A' for Active; 'I' for Inactive)
REMARK    1  A    between atoms: C_1  and  N_2
REMARK    2  A    between atoms: N_2  and  C_3
REMARK    3  A    between atoms: N_2  and  C_4
REMARK    4  A    between atoms: C_7  and  C_8
REMARK    5  A    between atoms: N_10  and  C_11
REMARK                            x       y       z     vdW  Elec       q    Type
REMARK                         _______ _______ _______ _____ _____    ______ ____
ROOT
ATOM      1  C   UNL     1       1.653   8.567  18.978  0.00  0.00    +0.000 A 
ATOM      2  C   UNL     1       1.176   9.544  18.115  0.00  0.00    +0.000 A 
ATOM      3  N   UNL     1       0.528  10.465  18.924  0.00  0.00    +0.000 N 
ATOM      4  N   UNL     1       0.587  10.022  20.212  0.00  0.00    +0.000 NA
ATOM      5  N   UNL     1       1.267   8.886  20.250  0.00  0.00    +0.000 NA
ENDROOT
BRANCH   3   6
ATOM      6  C   UNL     1      -0.395  11.499  18.568  0.00  0.00    +0.000 A 
ATOM      7  C   UNL     1       0.015  12.746  19.008  0.00  0.00    +0.000 A 
ATOM      8  C   UNL     1      -0.880  13.426  19.805  0.00  0.00    +0.000 A 
ATOM      9  N   UNL     1      -2.155  13.023  20.001  0.00  0.00    +0.000 NA
ATOM     10  C   UNL     1      -2.629  12.062  19.208  0.00  0.00    +0.000 A 
ATOM     11  C   UNL     1      -4.007  11.957  19.108  0.00  0.00    +0.000 A 
ATOM     12  C   UNL     1      -4.583  11.346  18.002  0.00  0.00    +0.000 A 
ATOM     13 CL   UNL     1      -6.285  11.453  17.767  0.00  0.00    +0.000 Cl
ATOM     14  C   UNL     1      -3.773  10.756  17.035  0.00  0.00    +0.000 A 
ATOM     15  C   UNL     1      -2.383  10.673  17.252  0.00  0.00    +0.000 A 
ATOM     16  C   UNL     1      -1.790  11.299  18.373  0.00  0.00    +0.000 A 
ENDBRANCH   3   6
BRANCH   1  20
ATOM     17  C   UNL     1       3.901   5.034  17.783  0.00  0.00    +0.000 A 
ATOM     18  C   UNL     1       3.028   5.041  18.891  0.00  0.00    +0.000 A 
ATOM     19  C   UNL     1       2.358   6.194  19.336  0.00  0.00    +0.000 A 
ATOM     20  C   UNL     1       2.499   7.409  18.675  0.00  0.00    +0.000 A 
ATOM     21  C   UNL     1       3.438   7.456  17.630  0.00  0.00    +0.000 A 
ATOM     22  C   UNL     1       4.117   6.298  17.198  0.00  0.00    +0.000 A 
BRANCH  17  24
ATOM     23  C   UNL     1       4.003   2.555  17.755  0.00  0.00    +0.000 C 
ATOM     24  N   UNL     1       4.471   3.869  17.304  0.00  0.00    +0.000 N 
ATOM     25  C   UNL     1       5.507   3.878  16.276  0.00  0.00    +0.000 C 
ENDBRANCH  17  24
ENDBRANCH   1  20
TORSDOF 3
ENDMDL
