MODEL 1
REMARK VINA RESULT:      -7.2      0.000      0.000
REMARK  Name = 
REMARK  10 active torsions:
REMARK  status: ('A' for Active; 'I' for Inactive)
REMARK    1  A    between atoms: C_1  and  C_2
REMARK    2  A    between atoms: C_2  and  O_3
REMARK    3  A    between atoms: C_2  and  C_4
REMARK    4  A    between atoms: C_4  and  C_5
REMARK    5  A    between atoms: N_7  and  C_8
REMARK    6  A    between atoms: C_10  and  C_11
REMARK    7  A    between atoms: C_11  and  O_12
REMARK    8  A    between atoms: C_13  and  O_14
REMARK    9  A    between atoms: C_15  and  O_16
REMARK   10  A    between atoms: C_17  and  O_18
REMARK                            x       y       z     vdW  Elec       q    Type
REMARK                         _______ _______ _______ _____ _____    ______ ____
ROOT
ATOM      1  C   UNL     1       5.432   4.755  17.298  0.00  0.00    +0.000 C 
ATOM      2  O   UNL     1       4.780   3.497  17.539  0.00  0.00    +0.000 OA
ATOM      3  C   UNL     1       4.034   3.470  18.764  0.00  0.00    +0.000 C 
ATOM      4  C   UNL     1       2.931   4.542  18.714  0.00  0.00    +0.000 C 
ATOM      5  C   UNL     1       3.600   5.909  18.595  0.00  0.00    +0.000 C 
ATOM      6  C   UNL     1       4.481   5.969  17.335  0.00  0.00    +0.000 C 
ENDROOT
BRANCH   1   9
ATOM      7  C   UNL     1       6.555   4.282  13.921  0.00  0.00    +0.000 A 
ATOM      8  C   UNL     1       5.717   3.873  14.933  0.00  0.00    +0.000 A 
ATOM      9  N   UNL     1       6.079   4.663  15.992  0.00  0.00    +0.000 N 
ATOM     10  N   UNL     1       7.137   5.427  15.688  0.00  0.00    +0.000 NA
ATOM     11  N   UNL     1       7.427   5.222  14.409  0.00  0.00    +0.000 NA
BRANCH   7  12
ATOM     12  C   UNL     1       6.568   3.894  12.487  0.00  0.00    +0.000 C 
BRANCH  12  14
ATOM     13  C   UNL     1       4.364   3.255  11.326  0.00  0.00    +0.000 C 
ATOM     14  C   UNL     1       5.560   2.784  12.146  0.00  0.00    +0.000 C 
BRANCH  14  15
ATOM     15  O   UNL     1       6.189   1.696  11.469  0.00  0.00    +0.000 OA
ATOM     16  H   UNL     1       6.811   2.070  10.814  0.00  0.00    +0.000 HD
ENDBRANCH  14  15
ENDBRANCH  12  14
ENDBRANCH   7  12
ENDBRANCH   1   9
BRANCH   4  17
ATOM     17  O   UNL     1       2.083   4.384  17.564  0.00  0.00    +0.000 OA
ATOM     18  H   UNL     1       2.361   5.057  16.904  0.00  0.00    +0.000 HD
ENDBRANCH   4  17
BRANCH   5  19
ATOM     19  O   UNL     1       2.601   6.934  18.537  0.00  0.00    +0.000 OA
ATOM     20  H   UNL     1       2.359   7.021  17.591  0.00  0.00    +0.000 HD
ENDBRANCH   5  19
BRANCH   6  21
ATOM     21  O   UNL     1       5.230   7.195  17.294  0.00  0.00    +0.000 OA
ATOM     22  H   UNL     1       5.519   7.366  16.380  0.00  0.00    +0.000 HD
ENDBRANCH   6  21
BRANCH   3  23
ATOM     23  C   UNL     1       3.461   2.056  18.909  0.00  0.00    +0.000 C 
BRANCH  23  24
ATOM     24  O   UNL     1       2.708   1.716  17.743  0.00  0.00    +0.000 OA
ATOM     25  H   UNL     1       1.881   1.319  18.073  0.00  0.00    +0.000 HD
ENDBRANCH  23  24
ENDBRANCH   3  23
TORSDOF 9
ENDMDL
MODEL 2
REMARK VINA RESULT:      -6.7      3.009      6.149
REMARK  Name = 
REMARK  10 active torsions:
REMARK  status: ('A' for Active; 'I' for Inactive)
REMARK    1  A    between atoms: C_1  and  C_2
REMARK    2  A    between atoms: C_2  and  O_3
REMARK    3  A    between atoms: C_2  and  C_4
REMARK    4  A    between atoms: C_4  and  C_5
REMARK    5  A    between atoms: N_7  and  C_8
REMARK    6  A    between atoms: C_10  and  C_11
REMARK    7  A    between atoms: C_11  and  O_12
REMARK    8  A    between atoms: C_13  and  O_14
REMARK    9  A    between atoms: C_15  and  O_16
REMARK   10  A    between atoms: C_17  and  O_18
REMARK                            x       y       z     vdW  Elec       q    Type
REMARK                         _______ _______ _______ _____ _____    ______ ____
ROOT
ATOM      1  C   UNL     1       5.664   3.713  17.318  0.00  0.00    +0.000 C 
ATOM      2  O   UNL     1       6.017   4.661  18.340  0.00  0.00    +0.000 OA
ATOM      3  C   UNL     1       7.356   5.158  18.214  0.00  0.00    +0.000 C 
ATOM      4  C   UNL     1       7.507   5.880  16.864  0.00  0.00    +0.000 C 
ATOM      5  C   UNL     1       7.272   4.863  15.750  0.00  0.00    +0.000 C 
ATOM      6  C   UNL     1       5.874   4.235  15.882  0.00  0.00    +0.000 C 
ENDROOT
BRANCH   1   9
ATOM      7  C   UNL     1       2.380   2.672  18.329  0.00  0.00    +0.000 A 
ATOM      8  C   UNL     1       3.739   2.546  18.497  0.00  0.00    +0.000 A 
ATOM      9  N   UNL     1       4.263   3.357  17.524  0.00  0.00    +0.000 N 
ATOM     10  N   UNL     1       3.298   3.861  16.743  0.00  0.00    +0.000 NA
ATOM     11  N   UNL     1       2.132   3.469  17.240  0.00  0.00    +0.000 NA
BRANCH   7  12
ATOM     12  C   UNL     1       1.269   2.140  19.159  0.00  0.00    +0.000 C 
BRANCH  12  14
ATOM     13  C   UNL     1       1.706   2.684  21.635  0.00  0.00    +0.000 C 
ATOM     14  C   UNL     1       0.930   3.029  20.368  0.00  0.00    +0.000 C 
BRANCH  14  15
ATOM     15  O   UNL     1       1.117   4.412  20.069  0.00  0.00    +0.000 OA
ATOM     16  H   UNL     1       1.381   4.863  20.895  0.00  0.00    +0.000 HD
ENDBRANCH  14  15
ENDBRANCH  12  14
ENDBRANCH   7  12
ENDBRANCH   1   9
BRANCH   4  17
ATOM     17  O   UNL     1       6.529   6.921  16.700  0.00  0.00    +0.000 OA
ATOM     18  H   UNL     1       6.247   7.198  17.600  0.00  0.00    +0.000 HD
ENDBRANCH   4  17
BRANCH   5  19
ATOM     19  O   UNL     1       7.398   5.502  14.475  0.00  0.00    +0.000 OA
ATOM     20  H   UNL     1       7.925   4.891  13.918  0.00  0.00    +0.000 HD
ENDBRANCH   5  19
BRANCH   6  21
ATOM     21  O   UNL     1       5.701   3.170  14.932  0.00  0.00    +0.000 OA
ATOM     22  H   UNL     1       6.573   2.872  14.618  0.00  0.00    +0.000 HD
ENDBRANCH   6  21
BRANCH   3  23
ATOM     23  C   UNL     1       7.599   6.096  19.403  0.00  0.00    +0.000 C 
BRANCH  23  24
ATOM     24  O   UNL     1       8.029   5.340  20.535  0.00  0.00    +0.000 OA
ATOM     25  H   UNL     1       8.057   4.412  20.236  0.00  0.00    +0.000 HD
ENDBRANCH  23  24
ENDBRANCH   3  23
TORSDOF 9
ENDMDL
MODEL 3
REMARK VINA RESULT:      -6.5      1.233      1.280
REMARK  Name = 
REMARK  10 active torsions:
REMARK  status: ('A' for Active; 'I' for Inactive)
REMARK    1  A    between atoms: C_1  and  C_2
REMARK    2  A    between atoms: C_2  and  O_3
REMARK    3  A    between atoms: C_2  and  C_4
REMARK    4  A    between atoms: C_4  and  C_5
REMARK    5  A    between atoms: N_7  and  C_8
REMARK    6  A    between atoms: C_10  and  C_11
REMARK    7  A    between atoms: C_11  and  O_12
REMARK    8  A    between atoms: C_13  and  O_14
REMARK    9  A    between atoms: C_15  and  O_16
REMARK   10  A    between atoms: C_17  and  O_18
REMARK                            x       y       z     vdW  Elec       q    Type
REMARK                         _______ _______ _______ _____ _____    ______ ____
ROOT
ATOM      1  C   UNL     1       5.060   3.941  18.012  0.00  0.00    +0.000 C 
ATOM      2  O   UNL     1       3.938   3.099  17.698  0.00  0.00    +0.000 OA
ATOM      3  C   UNL     1       3.035   2.925  18.798  0.00  0.00    +0.000 C 
ATOM      4  C   UNL     1       2.465   4.293  19.212  0.00  0.00    +0.000 C 
ATOM      5  C   UNL     1       3.623   5.170  19.682  0.00  0.00    +0.000 C 
ATOM      6  C   UNL     1       4.668   5.326  18.564  0.00  0.00    +0.000 C 
ENDROOT
BRANCH   1   9
ATOM      7  C   UNL     1       6.503   4.242  14.738  0.00  0.00    +0.000 A 
ATOM      8  C   UNL     1       5.471   3.762  15.511  0.00  0.00    +0.000 A 
ATOM      9  N   UNL     1       5.844   4.091  16.788  0.00  0.00    +0.000 N 
ATOM     10  N   UNL     1       7.067   4.636  16.811  0.00  0.00    +0.000 NA
ATOM     11  N   UNL     1       7.476   4.759  15.554  0.00  0.00    +0.000 NA
BRANCH   7  12
ATOM     12  C   UNL     1       6.627   4.308  13.259  0.00  0.00    +0.000 C 
BRANCH  12  14
ATOM     13  C   UNL     1       4.749   3.423  11.740  0.00  0.00    +0.000 C 
ATOM     14  C   UNL     1       6.006   3.098  12.540  0.00  0.00    +0.000 C 
BRANCH  14  15
ATOM     15  O   UNL     1       6.951   2.457  11.684  0.00  0.00    +0.000 OA
ATOM     16  H   UNL     1       6.484   2.197  10.865  0.00  0.00    +0.000 HD
ENDBRANCH  14  15
ENDBRANCH  12  14
ENDBRANCH   7  12
ENDBRANCH   1   9
BRANCH   4  17
ATOM     17  O   UNL     1       1.843   4.970  18.107  0.00  0.00    +0.000 OA
ATOM     18  H   UNL     1       0.877   4.796  18.167  0.00  0.00    +0.000 HD
ENDBRANCH   4  17
BRANCH   5  19
ATOM     19  O   UNL     1       3.130   6.457  20.069  0.00  0.00    +0.000 OA
ATOM     20  H   UNL     1       2.152   6.393  20.036  0.00  0.00    +0.000 HD
ENDBRANCH   5  19
BRANCH   6  21
ATOM     21  O   UNL     1       5.830   6.022  19.045  0.00  0.00    +0.000 OA
ATOM     22  H   UNL     1       5.887   5.925  20.012  0.00  0.00    +0.000 HD
ENDBRANCH   6  21
BRANCH   3  23
ATOM     23  C   UNL     1       1.941   1.958  18.331  0.00  0.00    +0.000 C 
BRANCH  23  24
ATOM     24  O   UNL     1       0.663   2.427  18.764  0.00  0.00    +0.000 OA
ATOM     25  H   UNL     1       0.029   1.731  18.509  0.00  0.00    +0.000 HD
ENDBRANCH  23  24
ENDBRANCH   3  23
TORSDOF 9
ENDMDL
MODEL 4
REMARK VINA RESULT:      -6.2      4.246      6.687
REMARK  Name = 
REMARK  10 active torsions:
REMARK  status: ('A' for Active; 'I' for Inactive)
REMARK    1  A    between atoms: C_1  and  C_2
REMARK    2  A    between atoms: C_2  and  O_3
REMARK    3  A    between atoms: C_2  and  C_4
REMARK    4  A    between atoms: C_4  and  C_5
REMARK    5  A    between atoms: N_7  and  C_8
REMARK    6  A    between atoms: C_10  and  C_11
REMARK    7  A    between atoms: C_11  and  O_12
REMARK    8  A    between atoms: C_13  and  O_14
REMARK    9  A    between atoms: C_15  and  O_16
REMARK   10  A    between atoms: C_17  and  O_18
REMARK                            x       y       z     vdW  Elec       q    Type
REMARK                         _______ _______ _______ _____ _____    ______ ____
ROOT
ATOM      1  C   UNL     1       2.772   5.647  18.150  0.00  0.00    +0.000 C 
ATOM      2  O   UNL     1       1.780   4.720  18.625  0.00  0.00    +0.000 OA
ATOM      3  C   UNL     1       2.076   3.356  18.294  0.00  0.00    +0.000 C 
ATOM      4  C   UNL     1       3.411   2.951  18.941  0.00  0.00    +0.000 C 
ATOM      5  C   UNL     1       4.512   3.831  18.354  0.00  0.00    +0.000 C 
ATOM      6  C   UNL     1       4.207   5.317  18.609  0.00  0.00    +0.000 C 
ENDROOT
BRANCH   1   9
ATOM      7  C   UNL     1       1.711   9.019  18.781  0.00  0.00    +0.000 A 
ATOM      8  C   UNL     1       2.217   8.111  17.878  0.00  0.00    +0.000 A 
ATOM      9  N   UNL     1       2.385   6.973  18.623  0.00  0.00    +0.000 N 
ATOM     10  N   UNL     1       2.106   7.194  19.915  0.00  0.00    +0.000 NA
ATOM     11  N   UNL     1       1.666   8.441  20.024  0.00  0.00    +0.000 NA
BRANCH   7  12
ATOM     12  C   UNL     1       1.202  10.395  18.555  0.00  0.00    +0.000 C 
BRANCH  12  14
ATOM     13  C   UNL     1      -1.170   9.979  17.651  0.00  0.00    +0.000 C 
ATOM     14  C   UNL     1      -0.313  10.532  18.785  0.00  0.00    +0.000 C 
BRANCH  14  15
ATOM     15  O   UNL     1      -0.713   9.921  20.011  0.00  0.00    +0.000 OA
ATOM     16  H   UNL     1      -1.442  10.455  20.387  0.00  0.00    +0.000 HD
ENDBRANCH  14  15
ENDBRANCH  12  14
ENDBRANCH   7  12
ENDBRANCH   1   9
BRANCH   4  17
ATOM     17  O   UNL     1       3.406   3.172  20.362  0.00  0.00    +0.000 OA
ATOM     18  H   UNL     1       2.611   3.711  20.569  0.00  0.00    +0.000 HD
ENDBRANCH   4  17
BRANCH   5  19
ATOM     19  O   UNL     1       5.773   3.488  18.940  0.00  0.00    +0.000 OA
ATOM     20  H   UNL     1       6.265   2.994  18.250  0.00  0.00    +0.000 HD
ENDBRANCH   5  19
BRANCH   6  21
ATOM     21  O   UNL     1       5.156   6.157  17.931  0.00  0.00    +0.000 OA
ATOM     22  H   UNL     1       5.646   6.685  18.586  0.00  0.00    +0.000 HD
ENDBRANCH   6  21
BRANCH   3  23
ATOM     23  C   UNL     1       0.904   2.509  18.804  0.00  0.00    +0.000 C 
BRANCH  23  24
ATOM     24  O   UNL     1       0.426   3.038  20.041  0.00  0.00    +0.000 OA
ATOM     25  H   UNL     1       1.222   3.212  20.577  0.00  0.00    +0.000 HD
ENDBRANCH  23  24
ENDBRANCH   3  23
TORSDOF 9
ENDMDL
MODEL 5
REMARK VINA RESULT:      -6.2      2.668      6.138
REMARK  Name = 
REMARK  10 active torsions:
REMARK  status: ('A' for Active; 'I' for Inactive)
REMARK    1  A    between atoms: C_1  and  C_2
REMARK    2  A    between atoms: C_2  and  O_3
REMARK    3  A    between atoms: C_2  and  C_4
REMARK    4  A    between atoms: C_4  and  C_5
REMARK    5  A    between atoms: N_7  and  C_8
REMARK    6  A    between atoms: C_10  and  C_11
REMARK    7  A    between atoms: C_11  and  O_12
REMARK    8  A    between atoms: C_13  and  O_14
REMARK    9  A    between atoms: C_15  and  O_16
REMARK   10  A    between atoms: C_17  and  O_18
REMARK                            x       y       z     vdW  Elec       q    Type
REMARK                         _______ _______ _______ _____ _____    ______ ____
ROOT
ATOM      1  C   UNL     1       4.581   5.032  17.024  0.00  0.00    +0.000 C 
ATOM      2  O   UNL     1       5.160   4.488  15.825  0.00  0.00    +0.000 OA
ATOM      3  C   UNL     1       6.221   5.292  15.294  0.00  0.00    +0.000 C 
ATOM      4  C   UNL     1       7.354   5.394  16.330  0.00  0.00    +0.000 C 
ATOM      5  C   UNL     1       6.804   6.094  17.570  0.00  0.00    +0.000 C 
ATOM      6  C   UNL     1       5.606   5.315  18.141  0.00  0.00    +0.000 C 
ENDROOT
BRANCH   1   9
ATOM      7  C   UNL     1       2.387   2.705  18.657  0.00  0.00    +0.000 A 
ATOM      8  C   UNL     1       3.632   3.289  18.611  0.00  0.00    +0.000 A 
ATOM      9  N   UNL     1       3.579   4.077  17.491  0.00  0.00    +0.000 N 
ATOM     10  N   UNL     1       2.423   3.907  16.834  0.00  0.00    +0.000 NA
ATOM     11  N   UNL     1       1.669   3.085  17.552  0.00  0.00    +0.000 NA
BRANCH   7  12
ATOM     12  C   UNL     1       1.783   1.846  19.708  0.00  0.00    +0.000 C 
BRANCH  12  14
ATOM     13  C   UNL     1       2.161   3.081  21.932  0.00  0.00    +0.000 C 
ATOM     14  C   UNL     1       1.162   2.643  20.866  0.00  0.00    +0.000 C 
BRANCH  14  15
ATOM     15  O   UNL     1       0.454   3.789  20.393  0.00  0.00    +0.000 OA
ATOM     16  H   UNL     1       0.059   4.237  21.167  0.00  0.00    +0.000 HD
ENDBRANCH  14  15
ENDBRANCH  12  14
ENDBRANCH   7  12
ENDBRANCH   1   9
BRANCH   4  17
ATOM     17  O   UNL     1       7.817   4.098  16.745  0.00  0.00    +0.000 OA
ATOM     18  H   UNL     1       7.626   3.472  16.011  0.00  0.00    +0.000 HD
ENDBRANCH   4  17
BRANCH   5  19
ATOM     19  O   UNL     1       7.831   6.199  18.563  0.00  0.00    +0.000 OA
ATOM     20  H   UNL     1       8.098   7.143  18.574  0.00  0.00    +0.000 HD
ENDBRANCH   5  19
BRANCH   6  21
ATOM     21  O   UNL     1       4.989   6.042  19.216  0.00  0.00    +0.000 OA
ATOM     22  H   UNL     1       4.448   6.764  18.848  0.00  0.00    +0.000 HD
ENDBRANCH   6  21
BRANCH   3  23
ATOM     23  C   UNL     1       6.682   4.622  13.994  0.00  0.00    +0.000 C 
BRANCH  23  24
ATOM     24  O   UNL     1       6.343   3.235  14.018  0.00  0.00    +0.000 OA
ATOM     25  H   UNL     1       6.855   2.827  13.294  0.00  0.00    +0.000 HD
ENDBRANCH  23  24
ENDBRANCH   3  23
TORSDOF 9
ENDMDL
MODEL 6
REMARK VINA RESULT:      -6.2      3.273      6.158
REMARK  Name = 
REMARK  10 active torsions:
REMARK  status: ('A' for Active; 'I' for Inactive)
REMARK    1  A    between atoms: C_1  and  C_2
REMARK    2  A    between atoms: C_2  and  O_3
REMARK    3  A    between atoms: C_2  and  C_4
REMARK    4  A    between atoms: C_4  and  C_5
REMARK    5  A    between atoms: N_7  and  C_8
REMARK    6  A    between atoms: C_10  and  C_11
REMARK    7  A    between atoms: C_11  and  O_12
REMARK    8  A    between atoms: C_13  and  O_14
REMARK    9  A    between atoms: C_15  and  O_16
REMARK   10  A    between atoms: C_17  and  O_18
REMARK                            x       y       z     vdW  Elec       q    Type
REMARK                         _______ _______ _______ _____ _____    ______ ____
ROOT
ATOM      1  C   UNL     1       5.678   3.879  17.665  0.00  0.00    +0.000 C 
ATOM      2  O   UNL     1       6.413   4.644  18.636  0.00  0.00    +0.000 OA
ATOM      3  C   UNL     1       7.454   5.442  18.057  0.00  0.00    +0.000 C 
ATOM      4  C   UNL     1       6.837   6.449  17.070  0.00  0.00    +0.000 C 
ATOM      5  C   UNL     1       6.162   5.664  15.948  0.00  0.00    +0.000 C 
ATOM      6  C   UNL     1       5.085   4.726  16.521  0.00  0.00    +0.000 C 
ENDROOT
BRANCH   1   9
ATOM      7  C   UNL     1       3.106   2.574  19.804  0.00  0.00    +0.000 A 
ATOM      8  C   UNL     1       4.241   3.344  19.691  0.00  0.00    +0.000 A 
ATOM      9  N   UNL     1       4.611   3.185  18.381  0.00  0.00    +0.000 N 
ATOM     10  N   UNL     1       3.824   2.295  17.760  0.00  0.00    +0.000 NA
ATOM     11  N   UNL     1       2.878   1.929  18.615  0.00  0.00    +0.000 NA
BRANCH   7  12
ATOM     12  C   UNL     1       2.166   2.436  20.945  0.00  0.00    +0.000 C 
BRANCH  12  14
ATOM     13  C   UNL     1       1.095   4.737  20.529  0.00  0.00    +0.000 C 
ATOM     14  C   UNL     1       0.871   3.248  20.771  0.00  0.00    +0.000 C 
BRANCH  14  15
ATOM     15  O   UNL     1       0.060   2.722  19.721  0.00  0.00    +0.000 OA
ATOM     16  H   UNL     1       0.187   3.287  18.934  0.00  0.00    +0.000 HD
ENDBRANCH  14  15
ENDBRANCH  12  14
ENDBRANCH   7  12
ENDBRANCH   1   9
BRANCH   4  17
ATOM     17  O   UNL     1       5.823   7.256  17.692  0.00  0.00    +0.000 OA
ATOM     18  H   UNL     1       5.667   8.029  17.105  0.00  0.00    +0.000 HD
ENDBRANCH   4  17
BRANCH   5  19
ATOM     19  O   UNL     1       5.568   6.570  15.012  0.00  0.00    +0.000 OA
ATOM     20  H   UNL     1       6.093   6.489  14.188  0.00  0.00    +0.000 HD
ENDBRANCH   5  19
BRANCH   6  21
ATOM     21  O   UNL     1       4.550   3.876  15.493  0.00  0.00    +0.000 OA
ATOM     22  H   UNL     1       4.704   2.945  15.732  0.00  0.00    +0.000 HD
ENDBRANCH   6  21
BRANCH   3  23
ATOM     23  C   UNL     1       8.181   6.137  19.214  0.00  0.00    +0.000 C 
BRANCH  23  24
ATOM     24  O   UNL     1       7.913   5.449  20.437  0.00  0.00    +0.000 OA
ATOM     25  H   UNL     1       8.443   5.907  21.117  0.00  0.00    +0.000 HD
ENDBRANCH  23  24
ENDBRANCH   3  23
TORSDOF 9
ENDMDL
MODEL 7
REMARK VINA RESULT:      -6.1      3.683      7.007
REMARK  Name = 
REMARK  10 active torsions:
REMARK  status: ('A' for Active; 'I' for Inactive)
REMARK    1  A    between atoms: C_1  and  C_2
REMARK    2  A    between atoms: C_2  and  O_3
REMARK    3  A    between atoms: C_2  and  C_4
REMARK    4  A    between atoms: C_4  and  C_5
REMARK    5  A    between atoms: N_7  and  C_8
REMARK    6  A    between atoms: C_10  and  C_11
REMARK    7  A    between atoms: C_11  and  O_12
REMARK    8  A    between atoms: C_13  and  O_14
REMARK    9  A    between atoms: C_15  and  O_16
REMARK   10  A    between atoms: C_17  and  O_18
REMARK                            x       y       z     vdW  Elec       q    Type
REMARK                         _______ _______ _______ _____ _____    ______ ____
ROOT
ATOM      1  C   UNL     1       3.268   5.688  17.765  0.00  0.00    +0.000 C 
ATOM      2  O   UNL     1       2.800   4.406  18.216  0.00  0.00    +0.000 OA
ATOM      3  C   UNL     1       3.436   3.305  17.553  0.00  0.00    +0.000 C 
ATOM      4  C   UNL     1       4.949   3.349  17.828  0.00  0.00    +0.000 C 
ATOM      5  C   UNL     1       5.504   4.643  17.238  0.00  0.00    +0.000 C 
ATOM      6  C   UNL     1       4.798   5.862  17.857  0.00  0.00    +0.000 C 
ENDROOT
BRANCH   1   9
ATOM      7  C   UNL     1       1.790   7.884  20.192  0.00  0.00    +0.000 A 
ATOM      8  C   UNL     1       2.246   6.619  19.896  0.00  0.00    +0.000 A 
ATOM      9  N   UNL     1       2.598   6.702  18.575  0.00  0.00    +0.000 N 
ATOM     10  N   UNL     1       2.280   7.900  18.063  0.00  0.00    +0.000 NA
ATOM     11  N   UNL     1       1.806   8.646  19.052  0.00  0.00    +0.000 NA
BRANCH   7  12
ATOM     12  C   UNL     1       1.387   8.464  21.498  0.00  0.00    +0.000 C 
BRANCH  12  14
ATOM     13  C   UNL     1      -0.513   9.537  22.859  0.00  0.00    +0.000 C 
ATOM     14  C   UNL     1      -0.100   8.851  21.561  0.00  0.00    +0.000 C 
BRANCH  14  15
ATOM     15  O   UNL     1      -0.473   9.677  20.459  0.00  0.00    +0.000 OA
ATOM     16  H   UNL     1       0.010  10.523  20.542  0.00  0.00    +0.000 HD
ENDBRANCH  14  15
ENDBRANCH  12  14
ENDBRANCH   7  12
ENDBRANCH   1   9
BRANCH   4  17
ATOM     17  O   UNL     1       5.237   3.368  19.237  0.00  0.00    +0.000 OA
ATOM     18  H   UNL     1       4.375   3.417  19.708  0.00  0.00    +0.000 HD
ENDBRANCH   4  17
BRANCH   5  19
ATOM     19  O   UNL     1       6.913   4.723  17.483  0.00  0.00    +0.000 OA
ATOM     20  H   UNL     1       7.062   5.592  17.912  0.00  0.00    +0.000 HD
ENDBRANCH   5  19
BRANCH   6  21
ATOM     21  O   UNL     1       5.205   7.075  17.201  0.00  0.00    +0.000 OA
ATOM     22  H   UNL     1       4.602   7.259  16.460  0.00  0.00    +0.000 HD
ENDBRANCH   6  21
BRANCH   3  23
ATOM     23  C   UNL     1       2.786   2.024  18.088  0.00  0.00    +0.000 C 
BRANCH  23  24
ATOM     24  O   UNL     1       3.783   1.018  18.278  0.00  0.00    +0.000 OA
ATOM     25  H   UNL     1       4.355   1.064  17.489  0.00  0.00    +0.000 HD
ENDBRANCH  23  24
ENDBRANCH   3  23
TORSDOF 9
ENDMDL
MODEL 8
REMARK VINA RESULT:      -6.1      2.156      2.891
REMARK  Name = 
REMARK  10 active torsions:
REMARK  status: ('A' for Active; 'I' for Inactive)
REMARK    1  A    between atoms: C_1  and  C_2
REMARK    2  A    between atoms: C_2  and  O_3
REMARK    3  A    between atoms: C_2  and  C_4
REMARK    4  A    between atoms: C_4  and  C_5
REMARK    5  A    between atoms: N_7  and  C_8
REMARK    6  A    between atoms: C_10  and  C_11
REMARK    7  A    between atoms: C_11  and  O_12
REMARK    8  A    between atoms: C_13  and  O_14
REMARK    9  A    between atoms: C_15  and  O_16
REMARK   10  A    between atoms: C_17  and  O_18
REMARK                            x       y       z     vdW  Elec       q    Type
REMARK                         _______ _______ _______ _____ _____    ______ ____
ROOT
ATOM      1  C   UNL     1       4.327   4.528  18.868  0.00  0.00    +0.000 C 
ATOM      2  O   UNL     1       4.727   3.175  19.150  0.00  0.00    +0.000 OA
ATOM      3  C   UNL     1       4.285   2.711  20.433  0.00  0.00    +0.000 C 
ATOM      4  C   UNL     1       2.748   2.742  20.486  0.00  0.00    +0.000 C 
ATOM      5  C   UNL     1       2.295   4.191  20.325  0.00  0.00    +0.000 C 
ATOM      6  C   UNL     1       2.810   4.771  18.997  0.00  0.00    +0.000 C 
ENDROOT
BRANCH   1   9
ATOM      7  C   UNL     1       5.297   4.756  15.418  0.00  0.00    +0.000 A 
ATOM      8  C   UNL     1       5.094   3.951  16.515  0.00  0.00    +0.000 A 
ATOM      9  N   UNL     1       4.773   4.835  17.512  0.00  0.00    +0.000 N 
ATOM     10  N   UNL     1       4.878   6.102  17.087  0.00  0.00    +0.000 NA
ATOM     11  N   UNL     1       5.175   6.070  15.794  0.00  0.00    +0.000 NA
BRANCH   7  12
ATOM     12  C   UNL     1       5.545   4.382  14.002  0.00  0.00    +0.000 C 
BRANCH  12  14
ATOM     13  C   UNL     1       7.287   4.487  12.113  0.00  0.00    +0.000 C 
ATOM     14  C   UNL     1       7.033   4.411  13.615  0.00  0.00    +0.000 C 
BRANCH  14  15
ATOM     15  O   UNL     1       7.721   5.483  14.259  0.00  0.00    +0.000 OA
ATOM     16  H   UNL     1       7.757   6.234  13.633  0.00  0.00    +0.000 HD
ENDBRANCH  14  15
ENDBRANCH  12  14
ENDBRANCH   7  12
ENDBRANCH   1   9
BRANCH   4  17
ATOM     17  O   UNL     1       2.159   1.992  19.410  0.00  0.00    +0.000 OA
ATOM     18  H   UNL     1       1.628   1.271  19.816  0.00  0.00    +0.000 HD
ENDBRANCH   4  17
BRANCH   5  19
ATOM     19  O   UNL     1       0.865   4.259  20.362  0.00  0.00    +0.000 OA
ATOM     20  H   UNL     1       0.624   4.359  21.307  0.00  0.00    +0.000 HD
ENDBRANCH   5  19
BRANCH   6  21
ATOM     21  O   UNL     1       2.518   6.175  18.905  0.00  0.00    +0.000 OA
ATOM     22  H   UNL     1       3.329   6.686  19.079  0.00  0.00    +0.000 HD
ENDBRANCH   6  21
BRANCH   3  23
ATOM     23  C   UNL     1       4.842   1.293  20.611  0.00  0.00    +0.000 C 
BRANCH  23  24
ATOM     24  O   UNL     1       5.676   1.242  21.770  0.00  0.00    +0.000 OA
ATOM     25  H   UNL     1       5.122   1.567  22.505  0.00  0.00    +0.000 HD
ENDBRANCH  23  24
ENDBRANCH   3  23
TORSDOF 9
ENDMDL
MODEL 9
REMARK VINA RESULT:      -6.1      3.346      6.524
REMARK  Name = 
REMARK  10 active torsions:
REMARK  status: ('A' for Active; 'I' for Inactive)
REMARK    1  A    between atoms: C_1  and  C_2
REMARK    2  A    between atoms: C_2  and  O_3
REMARK    3  A    between atoms: C_2  and  C_4
REMARK    4  A    between atoms: C_4  and  C_5
REMARK    5  A    between atoms: N_7  and  C_8
REMARK    6  A    between atoms: C_10  and  C_11
REMARK    7  A    between atoms: C_11  and  O_12
REMARK    8  A    between atoms: C_13  and  O_14
REMARK    9  A    between atoms: C_15  and  O_16
REMARK   10  A    between atoms: C_17  and  O_18
REMARK                            x       y       z     vdW  Elec       q    Type
REMARK                         _______ _______ _______ _____ _____    ______ ____
ROOT
ATOM      1  C   UNL     1       6.142   4.600  18.354  0.00  0.00    +0.000 C 
ATOM      2  O   UNL     1       6.625   5.890  18.767  0.00  0.00    +0.000 OA
ATOM      3  C   UNL     1       7.751   6.344  18.004  0.00  0.00    +0.000 C 
ATOM      4  C   UNL     1       7.348   6.472  16.525  0.00  0.00    +0.000 C 
ATOM      5  C   UNL     1       6.957   5.087  16.016  0.00  0.00    +0.000 C 
ATOM      6  C   UNL     1       5.801   4.512  16.852  0.00  0.00    +0.000 C 
ENDROOT
BRANCH   1   9
ATOM      7  C   UNL     1       3.018   4.336  20.104  0.00  0.00    +0.000 A 
ATOM      8  C   UNL     1       3.925   5.151  19.466  0.00  0.00    +0.000 A 
ATOM      9  N   UNL     1       4.958   4.305  19.156  0.00  0.00    +0.000 N 
ATOM     10  N   UNL     1       4.752   3.082  19.664  0.00  0.00    +0.000 NA
ATOM     11  N   UNL     1       3.551   3.078  20.228  0.00  0.00    +0.000 NA
BRANCH   7  12
ATOM     12  C   UNL     1       1.638   4.634  20.566  0.00  0.00    +0.000 C 
BRANCH  12  14
ATOM     13  C   UNL     1       0.661   2.738  19.129  0.00  0.00    +0.000 C 
ATOM     14  C   UNL     1       0.694   3.423  20.492  0.00  0.00    +0.000 C 
BRANCH  14  15
ATOM     15  O   UNL     1       1.004   2.454  21.493  0.00  0.00    +0.000 OA
ATOM     16  H   UNL     1       1.883   2.676  21.861  0.00  0.00    +0.000 HD
ENDBRANCH  14  15
ENDBRANCH  12  14
ENDBRANCH   7  12
ENDBRANCH   1   9
BRANCH   4  17
ATOM     17  O   UNL     1       6.203   7.324  16.354  0.00  0.00    +0.000 OA
ATOM     18  H   UNL     1       5.620   6.896  15.688  0.00  0.00    +0.000 HD
ENDBRANCH   4  17
BRANCH   5  19
ATOM     19  O   UNL     1       6.567   5.167  14.640  0.00  0.00    +0.000 OA
ATOM     20  H   UNL     1       5.618   5.414  14.644  0.00  0.00    +0.000 HD
ENDBRANCH   5  19
BRANCH   6  21
ATOM     21  O   UNL     1       5.528   3.151  16.479  0.00  0.00    +0.000 OA
ATOM     22  H   UNL     1       6.368   2.678  16.346  0.00  0.00    +0.000 HD
ENDBRANCH   6  21
BRANCH   3  23
ATOM     23  C   UNL     1       8.186   7.687  18.604  0.00  0.00    +0.000 C 
BRANCH  23  24
ATOM     24  O   UNL     1       8.162   8.698  17.596  0.00  0.00    +0.000 OA
ATOM     25  H   UNL     1       8.729   9.417  17.933  0.00  0.00    +0.000 HD
ENDBRANCH  23  24
ENDBRANCH   3  23
TORSDOF 9
ENDMDL
