MODEL 1
REMARK VINA RESULT:      -6.2      0.000      0.000
REMARK  Name = 
REMARK  2 active torsions:
REMARK  status: ('A' for Active; 'I' for Inactive)
REMARK    1  A    between atoms: C_2  and  C_3
REMARK    2  A    between atoms: C_8  and  C_10
REMARK                            x       y       z     vdW  Elec       q    Type
REMARK                         _______ _______ _______ _____ _____    ______ ____
ROOT
ATOM      1  C   UNL     1       6.794   4.918  14.777  0.00  0.00    +0.000 A 
ATOM      2  C   UNL     1       7.316   5.036  16.063  0.00  0.00    +0.000 A 
ATOM      3  C   UNL     1       6.515   4.710  17.162  0.00  0.00    +0.000 A 
ATOM      4  C   UNL     1       5.208   4.279  16.944  0.00  0.00    +0.000 A 
ATOM      5  N   UNL     1       4.424   3.963  18.057  0.00  0.00    +0.000 N 
ATOM      6  C   UNL     1       3.105   3.544  18.014  0.00  0.00    +0.000 C 
ATOM      7  O   UNL     1       2.435   3.422  16.994  0.00  0.00    +0.000 OA
ATOM      8  N   UNL     1       4.704   4.161  15.704  0.00  0.00    +0.000 NA
ATOM      9  C   UNL     1       5.491   4.476  14.652  0.00  0.00    +0.000 A 
ATOM     10  H   UNL     1       4.846   4.039  18.970  0.00  0.00    +0.000 HD
ENDROOT
BRANCH   6  11
ATOM     11  C   UNL     1       2.523   3.237  19.322  0.00  0.00    +0.000 A 
ATOM     12  C   UNL     1       1.194   3.384  19.682  0.00  0.00    +0.000 A 
ATOM     13  C   UNL     1       0.932   2.957  21.014  0.00  0.00    +0.000 A 
ATOM     14  C   UNL     1       2.073   2.511  21.641  0.00  0.00    +0.000 A 
ATOM     15  S   UNL     1       3.446   2.619  20.630  0.00  0.00    +0.000 S 
ENDBRANCH   6  11
BRANCH   1  17
ATOM     16  N   UNL     1       8.186   5.506  12.676  0.00  0.00    +0.000 NA
ATOM     17  C   UNL     1       7.561   5.241  13.619  0.00  0.00    +0.000 C 
ENDBRANCH   1  17
TORSDOF 2
ENDMDL
MODEL 2
REMARK VINA RESULT:      -6.2      0.824      1.055
REMARK  Name = 
REMARK  2 active torsions:
REMARK  status: ('A' for Active; 'I' for Inactive)
REMARK    1  A    between atoms: C_2  and  C_3
REMARK    2  A    between atoms: C_8  and  C_10
REMARK                            x       y       z     vdW  Elec       q    Type
REMARK                         _______ _______ _______ _____ _____    ______ ____
ROOT
ATOM      1  C   UNL     1       6.826   4.962  14.922  0.00  0.00    +0.000 A 
ATOM      2  C   UNL     1       7.299   5.217  16.207  0.00  0.00    +0.000 A 
ATOM      3  C   UNL     1       6.509   4.875  17.310  0.00  0.00    +0.000 A 
ATOM      4  C   UNL     1       5.263   4.290  17.096  0.00  0.00    +0.000 A 
ATOM      5  N   UNL     1       4.489   3.960  18.211  0.00  0.00    +0.000 N 
ATOM      6  C   UNL     1       3.224   3.397  18.171  0.00  0.00    +0.000 C 
ATOM      7  O   UNL     1       2.599   3.137  17.148  0.00  0.00    +0.000 OA
ATOM      8  N   UNL     1       4.808   4.039  15.857  0.00  0.00    +0.000 NA
ATOM      9  C   UNL     1       5.583   4.371  14.802  0.00  0.00    +0.000 A 
ATOM     10  H   UNL     1       4.875   4.140  19.126  0.00  0.00    +0.000 HD
ENDROOT
BRANCH   6  11
ATOM     11  C   UNL     1       2.644   3.111  19.485  0.00  0.00    +0.000 A 
ATOM     12  C   UNL     1       3.325   2.644  20.596  0.00  0.00    +0.000 A 
ATOM     13  C   UNL     1       2.488   2.508  21.740  0.00  0.00    +0.000 A 
ATOM     14  C   UNL     1       1.186   2.859  21.464  0.00  0.00    +0.000 A 
ATOM     15  S   UNL     1       0.980   3.338  19.836  0.00  0.00    +0.000 S 
ENDBRANCH   6  11
BRANCH   1  17
ATOM     16  N   UNL     1       8.205   5.561  12.816  0.00  0.00    +0.000 NA
ATOM     17  C   UNL     1       7.584   5.292  13.760  0.00  0.00    +0.000 C 
ENDBRANCH   1  17
TORSDOF 2
ENDMDL
MODEL 3
REMARK VINA RESULT:      -6.2      2.777      7.114
REMARK  Name = 
REMARK  2 active torsions:
REMARK  status: ('A' for Active; 'I' for Inactive)
REMARK    1  A    between atoms: C_2  and  C_3
REMARK    2  A    between atoms: C_8  and  C_10
REMARK                            x       y       z     vdW  Elec       q    Type
REMARK                         _______ _______ _______ _____ _____    ______ ____
ROOT
ATOM      1  C   UNL     1       2.960   3.261  19.656  0.00  0.00    +0.000 A 
ATOM      2  C   UNL     1       2.216   3.268  18.478  0.00  0.00    +0.000 A 
ATOM      3  C   UNL     1       2.861   3.505  17.259  0.00  0.00    +0.000 A 
ATOM      4  C   UNL     1       4.236   3.734  17.254  0.00  0.00    +0.000 A 
ATOM      5  N   UNL     1       4.859   3.972  16.026  0.00  0.00    +0.000 N 
ATOM      6  C   UNL     1       6.207   4.238  15.850  0.00  0.00    +0.000 C 
ATOM      7  O   UNL     1       7.032   4.331  16.753  0.00  0.00    +0.000 OA
ATOM      8  N   UNL     1       4.955   3.723  18.388  0.00  0.00    +0.000 NA
ATOM      9  C   UNL     1       4.319   3.490  19.557  0.00  0.00    +0.000 A 
ATOM     10  H   UNL     1       4.291   3.946  15.194  0.00  0.00    +0.000 HD
ENDROOT
BRANCH   6  11
ATOM     11  C   UNL     1       6.615   4.411  14.455  0.00  0.00    +0.000 A 
ATOM     12  C   UNL     1       7.568   5.297  13.984  0.00  0.00    +0.000 A 
ATOM     13  C   UNL     1       7.772   5.196  12.579  0.00  0.00    +0.000 A 
ATOM     14  C   UNL     1       6.953   4.245  12.012  0.00  0.00    +0.000 A 
ATOM     15  S   UNL     1       5.944   3.494  13.169  0.00  0.00    +0.000 S 
ENDBRANCH   6  11
BRANCH   1  17
ATOM     16  N   UNL     1       1.862   2.843  21.962  0.00  0.00    +0.000 NA
ATOM     17  C   UNL     1       2.357   3.031  20.927  0.00  0.00    +0.000 C 
ENDBRANCH   1  17
TORSDOF 2
ENDMDL
MODEL 4
REMARK VINA RESULT:      -6.1      1.476      1.939
REMARK  Name = 
REMARK  2 active torsions:
REMARK  status: ('A' for Active; 'I' for Inactive)
REMARK    1  A    between atoms: C_2  and  C_3
REMARK    2  A    between atoms: C_8  and  C_10
REMARK                            x       y       z     vdW  Elec       q    Type
REMARK                         _______ _______ _______ _____ _____    ______ ____
ROOT
ATOM      1  C   UNL     1       6.839   4.937  14.756  0.00  0.00    +0.000 A 
ATOM      2  C   UNL     1       5.569   4.491  14.399  0.00  0.00    +0.000 A 
ATOM      3  C   UNL     1       4.666   4.117  15.400  0.00  0.00    +0.000 A 
ATOM      4  C   UNL     1       5.062   4.196  16.733  0.00  0.00    +0.000 A 
ATOM      5  N   UNL     1       4.145   3.813  17.717  0.00  0.00    +0.000 N 
ATOM      6  C   UNL     1       4.388   3.810  19.080  0.00  0.00    +0.000 C 
ATOM      7  O   UNL     1       5.452   4.114  19.609  0.00  0.00    +0.000 OA
ATOM      8  N   UNL     1       6.285   4.630  17.079  0.00  0.00    +0.000 NA
ATOM      9  C   UNL     1       7.145   4.991  16.102  0.00  0.00    +0.000 A 
ATOM     10  H   UNL     1       3.228   3.518  17.419  0.00  0.00    +0.000 HD
ENDROOT
BRANCH   6  11
ATOM     11  C   UNL     1       3.245   3.403  19.899  0.00  0.00    +0.000 A 
ATOM     12  C   UNL     1       3.291   2.610  21.033  0.00  0.00    +0.000 A 
ATOM     13  C   UNL     1       2.013   2.430  21.634  0.00  0.00    +0.000 A 
ATOM     14  C   UNL     1       1.022   3.077  20.930  0.00  0.00    +0.000 A 
ATOM     15  S   UNL     1       1.634   3.883  19.553  0.00  0.00    +0.000 S 
ENDBRANCH   6  11
BRANCH   1  17
ATOM     16  N   UNL     1       8.587   5.648  12.985  0.00  0.00    +0.000 NA
ATOM     17  C   UNL     1       7.803   5.327  13.780  0.00  0.00    +0.000 C 
ENDBRANCH   1  17
TORSDOF 2
ENDMDL
MODEL 5
REMARK VINA RESULT:      -6.0      1.342      1.647
REMARK  Name = 
REMARK  2 active torsions:
REMARK  status: ('A' for Active; 'I' for Inactive)
REMARK    1  A    between atoms: C_2  and  C_3
REMARK    2  A    between atoms: C_8  and  C_10
REMARK                            x       y       z     vdW  Elec       q    Type
REMARK                         _______ _______ _______ _____ _____    ______ ____
ROOT
ATOM      1  C   UNL     1       6.869   5.041  14.748  0.00  0.00    +0.000 A 
ATOM      2  C   UNL     1       5.857   4.136  14.435  0.00  0.00    +0.000 A 
ATOM      3  C   UNL     1       4.927   3.778  15.417  0.00  0.00    +0.000 A 
ATOM      4  C   UNL     1       5.039   4.334  16.690  0.00  0.00    +0.000 A 
ATOM      5  N   UNL     1       4.102   3.960  17.657  0.00  0.00    +0.000 N 
ATOM      6  C   UNL     1       4.086   4.401  18.970  0.00  0.00    +0.000 C 
ATOM      7  O   UNL     1       4.910   5.157  19.471  0.00  0.00    +0.000 OA
ATOM      8  N   UNL     1       6.011   5.210  16.992  0.00  0.00    +0.000 NA
ATOM      9  C   UNL     1       6.900   5.549  16.032  0.00  0.00    +0.000 A 
ATOM     10  H   UNL     1       3.371   3.320  17.385  0.00  0.00    +0.000 HD
ENDROOT
BRANCH   6  11
ATOM     11  C   UNL     1       2.971   3.888  19.769  0.00  0.00    +0.000 A 
ATOM     12  C   UNL     1       1.642   4.258  19.653  0.00  0.00    +0.000 A 
ATOM     13  C   UNL     1       0.790   3.546  20.544  0.00  0.00    +0.000 A 
ATOM     14  C   UNL     1       1.497   2.662  21.329  0.00  0.00    +0.000 A 
ATOM     15  S   UNL     1       3.172   2.705  20.995  0.00  0.00    +0.000 S 
ENDBRANCH   6  11
BRANCH   1  17
ATOM     16  N   UNL     1       8.643   5.763  13.008  0.00  0.00    +0.000 NA
ATOM     17  C   UNL     1       7.848   5.439  13.790  0.00  0.00    +0.000 C 
ENDBRANCH   1  17
TORSDOF 2
ENDMDL
MODEL 6
REMARK VINA RESULT:      -5.9      2.875      7.068
REMARK  Name = 
REMARK  2 active torsions:
REMARK  status: ('A' for Active; 'I' for Inactive)
REMARK    1  A    between atoms: C_2  and  C_3
REMARK    2  A    between atoms: C_8  and  C_10
REMARK                            x       y       z     vdW  Elec       q    Type
REMARK                         _______ _______ _______ _____ _____    ______ ____
ROOT
ATOM      1  C   UNL     1       2.692   3.160  19.723  0.00  0.00    +0.000 A 
ATOM      2  C   UNL     1       1.976   3.021  18.536  0.00  0.00    +0.000 A 
ATOM      3  C   UNL     1       2.630   3.209  17.313  0.00  0.00    +0.000 A 
ATOM      4  C   UNL     1       3.984   3.536  17.312  0.00  0.00    +0.000 A 
ATOM      5  N   UNL     1       4.616   3.723  16.081  0.00  0.00    +0.000 N 
ATOM      6  C   UNL     1       5.945   4.073  15.907  0.00  0.00    +0.000 C 
ATOM      7  O   UNL     1       6.741   4.295  16.813  0.00  0.00    +0.000 OA
ATOM      8  N   UNL     1       4.677   3.667  18.456  0.00  0.00    +0.000 NA
ATOM      9  C   UNL     1       4.033   3.479  19.629  0.00  0.00    +0.000 A 
ATOM     10  H   UNL     1       4.070   3.591  15.243  0.00  0.00    +0.000 HD
ENDROOT
BRANCH   6  11
ATOM     11  C   UNL     1       6.371   4.166  14.509  0.00  0.00    +0.000 A 
ATOM     12  C   UNL     1       5.876   3.424  13.451  0.00  0.00    +0.000 A 
ATOM     13  C   UNL     1       6.463   3.779  12.203  0.00  0.00    +0.000 A 
ATOM     14  C   UNL     1       7.404   4.774  12.348  0.00  0.00    +0.000 A 
ATOM     15  S   UNL     1       7.580   5.261  13.976  0.00  0.00    +0.000 S 
ENDBRANCH   6  11
BRANCH   1  17
ATOM     16  N   UNL     1       1.581   2.841  22.038  0.00  0.00    +0.000 NA
ATOM     17  C   UNL     1       2.078   2.985  20.998  0.00  0.00    +0.000 C 
ENDBRANCH   1  17
TORSDOF 2
ENDMDL
MODEL 7
REMARK VINA RESULT:      -5.9      1.007      1.075
REMARK  Name = 
REMARK  2 active torsions:
REMARK  status: ('A' for Active; 'I' for Inactive)
REMARK    1  A    between atoms: C_2  and  C_3
REMARK    2  A    between atoms: C_8  and  C_10
REMARK                            x       y       z     vdW  Elec       q    Type
REMARK                         _______ _______ _______ _____ _____    ______ ____
ROOT
ATOM      1  C   UNL     1       6.477   5.061  14.680  0.00  0.00    +0.000 A 
ATOM      2  C   UNL     1       5.821   6.108  15.325  0.00  0.00    +0.000 A 
ATOM      3  C   UNL     1       4.937   5.824  16.371  0.00  0.00    +0.000 A 
ATOM      4  C   UNL     1       4.730   4.497  16.742  0.00  0.00    +0.000 A 
ATOM      5  N   UNL     1       3.840   4.236  17.787  0.00  0.00    +0.000 N 
ATOM      6  C   UNL     1       3.506   2.977  18.260  0.00  0.00    +0.000 C 
ATOM      7  O   UNL     1       3.925   1.918  17.805  0.00  0.00    +0.000 OA
ATOM      8  N   UNL     1       5.364   3.487  16.124  0.00  0.00    +0.000 NA
ATOM      9  C   UNL     1       6.218   3.776  15.117  0.00  0.00    +0.000 A 
ATOM     10  H   UNL     1       3.402   5.021  18.244  0.00  0.00    +0.000 HD
ENDROOT
BRANCH   6  11
ATOM     11  C   UNL     1       2.578   2.981  19.393  0.00  0.00    +0.000 A 
ATOM     12  C   UNL     1       1.228   3.280  19.345  0.00  0.00    +0.000 A 
ATOM     13  C   UNL     1       0.587   3.151  20.610  0.00  0.00    +0.000 A 
ATOM     14  C   UNL     1       1.473   2.773  21.594  0.00  0.00    +0.000 A 
ATOM     15  S   UNL     1       3.062   2.588  20.992  0.00  0.00    +0.000 S 
ENDBRANCH   6  11
BRANCH   1  17
ATOM     16  N   UNL     1       8.122   5.476  12.727  0.00  0.00    +0.000 NA
ATOM     17  C   UNL     1       7.385   5.289  13.604  0.00  0.00    +0.000 C 
ENDBRANCH   1  17
TORSDOF 2
ENDMDL
MODEL 8
REMARK VINA RESULT:      -5.8      6.091      8.083
REMARK  Name = 
REMARK  2 active torsions:
REMARK  status: ('A' for Active; 'I' for Inactive)
REMARK    1  A    between atoms: C_2  and  C_3
REMARK    2  A    between atoms: C_8  and  C_10
REMARK                            x       y       z     vdW  Elec       q    Type
REMARK                         _______ _______ _______ _____ _____    ______ ____
ROOT
ATOM      1  C   UNL     1       6.561   5.497  17.250  0.00  0.00    +0.000 A 
ATOM      2  C   UNL     1       7.406   5.230  18.324  0.00  0.00    +0.000 A 
ATOM      3  C   UNL     1       8.151   6.271  18.888  0.00  0.00    +0.000 A 
ATOM      4  C   UNL     1       8.032   7.554  18.356  0.00  0.00    +0.000 A 
ATOM      5  N   UNL     1       8.788   8.579  18.932  0.00  0.00    +0.000 N 
ATOM      6  C   UNL     1       8.803   9.898  18.510  0.00  0.00    +0.000 C 
ATOM      7  O   UNL     1       8.176  10.340  17.552  0.00  0.00    +0.000 OA
ATOM      8  N   UNL     1       7.214   7.814  17.323  0.00  0.00    +0.000 NA
ATOM      9  C   UNL     1       6.498   6.798  16.791  0.00  0.00    +0.000 A 
ATOM     10  H   UNL     1       9.371   8.350  19.723  0.00  0.00    +0.000 HD
ENDROOT
BRANCH   6  11
ATOM     11  C   UNL     1       9.651  10.782  19.310  0.00  0.00    +0.000 A 
ATOM     12  C   UNL     1      10.876  11.304  18.933  0.00  0.00    +0.000 A 
ATOM     13  C   UNL     1      11.435  12.169  19.916  0.00  0.00    +0.000 A 
ATOM     14  C   UNL     1      10.627  12.269  21.026  0.00  0.00    +0.000 A 
ATOM     15  S   UNL     1       9.214  11.318  20.881  0.00  0.00    +0.000 S 
ENDBRANCH   6  11
BRANCH   1  17
ATOM     16  N   UNL     1       5.148   3.643  16.126  0.00  0.00    +0.000 NA
ATOM     17  C   UNL     1       5.781   4.475  16.632  0.00  0.00    +0.000 C 
ENDBRANCH   1  17
TORSDOF 2
ENDMDL
MODEL 9
REMARK VINA RESULT:      -5.8      6.214      8.108
REMARK  Name = 
REMARK  2 active torsions:
REMARK  status: ('A' for Active; 'I' for Inactive)
REMARK    1  A    between atoms: C_2  and  C_3
REMARK    2  A    between atoms: C_8  and  C_10
REMARK                            x       y       z     vdW  Elec       q    Type
REMARK                         _______ _______ _______ _____ _____    ______ ____
ROOT
ATOM      1  C   UNL     1       6.369   5.486  17.404  0.00  0.00    +0.000 A 
ATOM      2  C   UNL     1       7.265   5.235  18.441  0.00  0.00    +0.000 A 
ATOM      3  C   UNL     1       8.057   6.279  18.933  0.00  0.00    +0.000 A 
ATOM      4  C   UNL     1       7.933   7.547  18.369  0.00  0.00    +0.000 A 
ATOM      5  N   UNL     1       8.736   8.573  18.872  0.00  0.00    +0.000 N 
ATOM      6  C   UNL     1       8.751   9.879  18.409  0.00  0.00    +0.000 C 
ATOM      7  O   UNL     1       8.083  10.304  17.473  0.00  0.00    +0.000 OA
ATOM      8  N   UNL     1       7.066   7.791  17.372  0.00  0.00    +0.000 NA
ATOM      9  C   UNL     1       6.305   6.774  16.910  0.00  0.00    +0.000 A 
ATOM     10  H   UNL     1       9.356   8.357  19.638  0.00  0.00    +0.000 HD
ENDROOT
BRANCH   6  11
ATOM     11  C   UNL     1       9.657  10.770  19.137  0.00  0.00    +0.000 A 
ATOM     12  C   UNL     1       9.591  11.082  20.484  0.00  0.00    +0.000 A 
ATOM     13  C   UNL     1      10.643  11.945  20.903  0.00  0.00    +0.000 A 
ATOM     14  C   UNL     1      11.474  12.282  19.858  0.00  0.00    +0.000 A 
ATOM     15  S   UNL     1      10.977  11.569  18.387  0.00  0.00    +0.000 S 
ENDBRANCH   6  11
BRANCH   1  17
ATOM     16  N   UNL     1       4.867   3.626  16.415  0.00  0.00    +0.000 NA
ATOM     17  C   UNL     1       5.540   4.462  16.860  0.00  0.00    +0.000 C 
ENDBRANCH   1  17
TORSDOF 2
ENDMDL
