MODEL 1
REMARK VINA RESULT:      -7.9      0.000      0.000
REMARK  Name = 
REMARK  7 active torsions:
REMARK  status: ('A' for Active; 'I' for Inactive)
REMARK    1  A    between atoms: C_1  and  C_2
REMARK    2  A    between atoms: C_2  and  C_3
REMARK    3  A    between atoms: C_3  and  N_4
REMARK    4  A    between atoms: C_7  and  C_8
REMARK    5  A    between atoms: C_8  and  C_9
REMARK    6  A    between atoms: N_19  and  C_20
REMARK    7  A    between atoms: C_23  and  C_24
REMARK                            x       y       z     vdW  Elec       q    Type
REMARK                         _______ _______ _______ _____ _____    ______ ____
ROOT
ATOM      1  N   UNL     1       8.151   7.798  18.815  0.00  0.00    +0.000 N 
ATOM      2  C   UNL     1       7.687   6.625  18.227  0.00  0.00    +0.000 A 
ATOM      3  N   UNL     1       6.914   5.857  18.986  0.00  0.00    +0.000 NA
ATOM      4  C   UNL     1       6.368   4.808  18.372  0.00  0.00    +0.000 A 
ATOM      5  N   UNL     1       6.558   4.522  17.089  0.00  0.00    +0.000 NA
ATOM      6  C   UNL     1       7.372   5.333  16.418  0.00  0.00    +0.000 A 
ATOM      7  N   UNL     1       7.612   5.100  15.066  0.00  0.00    +0.000 N 
ATOM      8  N   UNL     1       7.967   6.384  16.952  0.00  0.00    +0.000 NA
ATOM      9  H   UNL     1       7.575   7.948  19.638  0.00  0.00    +0.000 HD
ATOM     10  H   UNL     1       8.316   5.721  14.696  0.00  0.00    +0.000 HD
ENDROOT
BRANCH   7  11
ATOM     11  C   UNL     1       6.740   4.506  14.146  0.00  0.00    +0.000 A 
ATOM     12  C   UNL     1       7.185   4.055  12.895  0.00  0.00    +0.000 A 
ATOM     13  C   UNL     1       6.284   3.589  11.937  0.00  0.00    +0.000 A 
ATOM     14  C   UNL     1       4.919   3.574  12.220  0.00  0.00    +0.000 A 
ATOM     15  C   UNL     1       4.468   3.978  13.481  0.00  0.00    +0.000 A 
ATOM     16  C   UNL     1       5.377   4.426  14.443  0.00  0.00    +0.000 A 
BRANCH  14  17
ATOM     17  C   UNL     1       3.987   3.168  11.214  0.00  0.00    +0.000 C 
ATOM     18  N   UNL     1       3.235   2.831  10.392  0.00  0.00    +0.000 NA
ENDBRANCH  14  17
ENDBRANCH   7  11
BRANCH   1  19
ATOM     19  C   UNL     1       8.217   8.917  17.886  0.00  0.00    +0.000 C 
BRANCH  19  21
ATOM     20  C   UNL     1       8.716  11.383  17.859  0.00  0.00    +0.000 C 
ATOM     21  C   UNL     1       9.045  10.042  18.495  0.00  0.00    +0.000 C 
ENDBRANCH  19  21
ENDBRANCH   1  19
BRANCH   4  22
ATOM     22  C   UNL     1       5.364   3.965  19.130  0.00  0.00    +0.000 C 
BRANCH  22  23
ATOM     23  C   UNL     1       3.975   3.948  18.527  0.00  0.00    +0.000 A 
ATOM     24  C   UNL     1       3.290   5.147  18.246  0.00  0.00    +0.000 A 
ATOM     25 CL   UNL     1       4.035   6.699  18.422  0.00  0.00    +0.000 Cl
ATOM     26  C   UNL     1       1.969   5.138  17.781  0.00  0.00    +0.000 A 
ATOM     27  C   UNL     1       1.308   3.935  17.561  0.00  0.00    +0.000 A 
ATOM     28  C   UNL     1       1.979   2.737  17.786  0.00  0.00    +0.000 A 
ATOM     29  C   UNL     1       3.295   2.740  18.268  0.00  0.00    +0.000 A 
ATOM     30 CL   UNL     1       4.036   1.194  18.504  0.00  0.00    +0.000 Cl
ENDBRANCH  22  23
ENDBRANCH   4  22
TORSDOF 6
ENDMDL
MODEL 2
REMARK VINA RESULT:      -7.8      4.157      7.136
REMARK  Name = 
REMARK  7 active torsions:
REMARK  status: ('A' for Active; 'I' for Inactive)
REMARK    1  A    between atoms: C_1  and  C_2
REMARK    2  A    between atoms: C_2  and  C_3
REMARK    3  A    between atoms: C_3  and  N_4
REMARK    4  A    between atoms: C_7  and  C_8
REMARK    5  A    between atoms: C_8  and  C_9
REMARK    6  A    between atoms: N_19  and  C_20
REMARK    7  A    between atoms: C_23  and  C_24
REMARK                            x       y       z     vdW  Elec       q    Type
REMARK                         _______ _______ _______ _____ _____    ______ ____
ROOT
ATOM      1  N   UNL     1       5.976   5.940  16.542  0.00  0.00    +0.000 N 
ATOM      2  C   UNL     1       4.656   6.136  16.936  0.00  0.00    +0.000 A 
ATOM      3  N   UNL     1       3.920   5.040  17.084  0.00  0.00    +0.000 NA
ATOM      4  C   UNL     1       2.702   5.230  17.589  0.00  0.00    +0.000 A 
ATOM      5  N   UNL     1       2.224   6.420  17.937  0.00  0.00    +0.000 NA
ATOM      6  C   UNL     1       3.024   7.462  17.725  0.00  0.00    +0.000 A 
ATOM      7  N   UNL     1       2.593   8.739  18.074  0.00  0.00    +0.000 N 
ATOM      8  N   UNL     1       4.238   7.366  17.214  0.00  0.00    +0.000 NA
ATOM      9  H   UNL     1       6.176   4.958  16.704  0.00  0.00    +0.000 HD
ATOM     10  H   UNL     1       3.245   9.450  17.776  0.00  0.00    +0.000 HD
ENDROOT
BRANCH   7  11
ATOM     11  C   UNL     1       1.706   9.078  19.102  0.00  0.00    +0.000 A 
ATOM     12  C   UNL     1       0.833  10.170  18.992  0.00  0.00    +0.000 A 
ATOM     13  C   UNL     1       0.052  10.577  20.074  0.00  0.00    +0.000 A 
ATOM     14  C   UNL     1       0.141   9.895  21.288  0.00  0.00    +0.000 A 
ATOM     15  C   UNL     1       0.974   8.777  21.395  0.00  0.00    +0.000 A 
ATOM     16  C   UNL     1       1.740   8.363  20.303  0.00  0.00    +0.000 A 
BRANCH  14  17
ATOM     17  C   UNL     1      -0.601  10.356  22.420  0.00  0.00    +0.000 C 
ATOM     18  N   UNL     1      -1.211  10.723  23.342  0.00  0.00    +0.000 NA
ENDBRANCH  14  17
ENDBRANCH   7  11
BRANCH   1  19
ATOM     19  C   UNL     1       6.904   6.875  17.164  0.00  0.00    +0.000 C 
BRANCH  19  21
ATOM     20  C   UNL     1       7.799   4.713  18.085  0.00  0.00    +0.000 C 
ATOM     21  C   UNL     1       7.604   6.199  18.336  0.00  0.00    +0.000 C 
ENDBRANCH  19  21
ENDBRANCH   1  19
BRANCH   4  22
ATOM     22  C   UNL     1       1.857   4.018  17.918  0.00  0.00    +0.000 C 
BRANCH  22  23
ATOM     23  C   UNL     1       2.194   3.356  19.238  0.00  0.00    +0.000 A 
ATOM     24  C   UNL     1       1.651   3.830  20.449  0.00  0.00    +0.000 A 
ATOM     25 CL   UNL     1       0.460   5.085  20.498  0.00  0.00    +0.000 Cl
ATOM     26  C   UNL     1       2.035   3.286  21.680  0.00  0.00    +0.000 A 
ATOM     27  C   UNL     1       2.949   2.239  21.733  0.00  0.00    +0.000 A 
ATOM     28  C   UNL     1       3.464   1.722  20.549  0.00  0.00    +0.000 A 
ATOM     29  C   UNL     1       3.096   2.274  19.315  0.00  0.00    +0.000 A 
ATOM     30 CL   UNL     1       3.789   1.548  17.905  0.00  0.00    +0.000 Cl
ENDBRANCH  22  23
ENDBRANCH   4  22
TORSDOF 6
ENDMDL
MODEL 3
REMARK VINA RESULT:      -7.8      3.528      6.377
REMARK  Name = 
REMARK  7 active torsions:
REMARK  status: ('A' for Active; 'I' for Inactive)
REMARK    1  A    between atoms: C_1  and  C_2
REMARK    2  A    between atoms: C_2  and  C_3
REMARK    3  A    between atoms: C_3  and  N_4
REMARK    4  A    between atoms: C_7  and  C_8
REMARK    5  A    between atoms: C_8  and  C_9
REMARK    6  A    between atoms: N_19  and  C_20
REMARK    7  A    between atoms: C_23  and  C_24
REMARK                            x       y       z     vdW  Elec       q    Type
REMARK                         _______ _______ _______ _____ _____    ______ ____
ROOT
ATOM      1  N   UNL     1       7.343   6.271  16.799  0.00  0.00    +0.000 N 
ATOM      2  C   UNL     1       6.074   6.088  17.339  0.00  0.00    +0.000 A 
ATOM      3  N   UNL     1       5.889   4.969  18.032  0.00  0.00    +0.000 NA
ATOM      4  C   UNL     1       4.716   4.868  18.655  0.00  0.00    +0.000 A 
ATOM      5  N   UNL     1       3.774   5.804  18.613  0.00  0.00    +0.000 NA
ATOM      6  C   UNL     1       4.039   6.875  17.870  0.00  0.00    +0.000 A 
ATOM      7  N   UNL     1       3.101   7.901  17.785  0.00  0.00    +0.000 N 
ATOM      8  N   UNL     1       5.168   7.049  17.206  0.00  0.00    +0.000 NA
ATOM      9  H   UNL     1       7.952   5.614  17.278  0.00  0.00    +0.000 HD
ATOM     10  H   UNL     1       3.376   8.608  17.119  0.00  0.00    +0.000 HD
ENDROOT
BRANCH   7  11
ATOM     11  C   UNL     1       2.169   8.273  18.761  0.00  0.00    +0.000 A 
ATOM     12  C   UNL     1       1.358   9.407  18.610  0.00  0.00    +0.000 A 
ATOM     13  C   UNL     1       0.531   9.842  19.647  0.00  0.00    +0.000 A 
ATOM     14  C   UNL     1       0.511   9.145  20.855  0.00  0.00    +0.000 A 
ATOM     15  C   UNL     1       1.280   7.987  21.000  0.00  0.00    +0.000 A 
ATOM     16  C   UNL     1       2.093   7.545  19.952  0.00  0.00    +0.000 A 
BRANCH  14  17
ATOM     17  C   UNL     1      -0.278   9.631  21.944  0.00  0.00    +0.000 C 
ATOM     18  N   UNL     1      -0.915  10.035  22.831  0.00  0.00    +0.000 NA
ENDBRANCH  14  17
ENDBRANCH   7  11
BRANCH   1  19
ATOM     19  C   UNL     1       7.781   7.660  16.825  0.00  0.00    +0.000 C 
BRANCH  19  21
ATOM     20  C   UNL     1       8.583   9.505  18.335  0.00  0.00    +0.000 C 
ATOM     21  C   UNL     1       8.217   8.033  18.237  0.00  0.00    +0.000 C 
ENDBRANCH  19  21
ENDBRANCH   1  19
BRANCH   4  22
ATOM     22  C   UNL     1       4.484   3.691  19.577  0.00  0.00    +0.000 C 
BRANCH  22  23
ATOM     23  C   UNL     1       3.077   3.130  19.540  0.00  0.00    +0.000 A 
ATOM     24  C   UNL     1       2.678   2.235  18.527  0.00  0.00    +0.000 A 
ATOM     25 CL   UNL     1       3.790   1.604  17.362  0.00  0.00    +0.000 Cl
ATOM     26  C   UNL     1       1.354   1.791  18.430  0.00  0.00    +0.000 A 
ATOM     27  C   UNL     1       0.402   2.206  19.355  0.00  0.00    +0.000 A 
ATOM     28  C   UNL     1       0.782   3.051  20.393  0.00  0.00    +0.000 A 
ATOM     29  C   UNL     1       2.102   3.513  20.484  0.00  0.00    +0.000 A 
ATOM     30 CL   UNL     1       2.467   4.553  21.818  0.00  0.00    +0.000 Cl
ENDBRANCH  22  23
ENDBRANCH   4  22
TORSDOF 6
ENDMDL
MODEL 4
REMARK VINA RESULT:      -7.7      3.435      6.394
REMARK  Name = 
REMARK  7 active torsions:
REMARK  status: ('A' for Active; 'I' for Inactive)
REMARK    1  A    between atoms: C_1  and  C_2
REMARK    2  A    between atoms: C_2  and  C_3
REMARK    3  A    between atoms: C_3  and  N_4
REMARK    4  A    between atoms: C_7  and  C_8
REMARK    5  A    between atoms: C_8  and  C_9
REMARK    6  A    between atoms: N_19  and  C_20
REMARK    7  A    between atoms: C_23  and  C_24
REMARK                            x       y       z     vdW  Elec       q    Type
REMARK                         _______ _______ _______ _____ _____    ______ ____
ROOT
ATOM      1  N   UNL     1       7.217   5.730  16.212  0.00  0.00    +0.000 N 
ATOM      2  C   UNL     1       5.886   5.663  16.613  0.00  0.00    +0.000 A 
ATOM      3  N   UNL     1       5.407   4.447  16.848  0.00  0.00    +0.000 NA
ATOM      4  C   UNL     1       4.176   4.404  17.358  0.00  0.00    +0.000 A 
ATOM      5  N   UNL     1       3.452   5.484  17.631  0.00  0.00    +0.000 NA
ATOM      6  C   UNL     1       4.005   6.657  17.335  0.00  0.00    +0.000 A 
ATOM      7  N   UNL     1       3.308   7.832  17.600  0.00  0.00    +0.000 N 
ATOM      8  N   UNL     1       5.211   6.790  16.812  0.00  0.00    +0.000 NA
ATOM      9  H   UNL     1       7.626   4.829  16.438  0.00  0.00    +0.000 HD
ATOM     10  H   UNL     1       3.789   8.644  17.244  0.00  0.00    +0.000 HD
ENDROOT
BRANCH   7  11
ATOM     11  C   UNL     1       2.370   8.043  18.617  0.00  0.00    +0.000 A 
ATOM     12  C   UNL     1       1.519   9.158  18.615  0.00  0.00    +0.000 A 
ATOM     13  C   UNL     1       0.684   9.427  19.700  0.00  0.00    +0.000 A 
ATOM     14  C   UNL     1       0.695   8.580  20.809  0.00  0.00    +0.000 A 
ATOM     15  C   UNL     1       1.505   7.441  20.803  0.00  0.00    +0.000 A 
ATOM     16  C   UNL     1       2.326   7.166  19.705  0.00  0.00    +0.000 A 
BRANCH  14  17
ATOM     17  C   UNL     1      -0.103   8.895  21.953  0.00  0.00    +0.000 C 
ATOM     18  N   UNL     1      -0.760   9.153  22.879  0.00  0.00    +0.000 NA
ENDBRANCH  14  17
ENDBRANCH   7  11
BRANCH   1  19
ATOM     19  C   UNL     1       7.920   6.886  16.752  0.00  0.00    +0.000 C 
BRANCH  19  21
ATOM     20  C   UNL     1       8.113   5.650  18.935  0.00  0.00    +0.000 C 
ATOM     21  C   UNL     1       7.713   6.953  18.261  0.00  0.00    +0.000 C 
ENDBRANCH  19  21
ENDBRANCH   1  19
BRANCH   4  22
ATOM     22  C   UNL     1       3.615   3.065  17.784  0.00  0.00    +0.000 C 
BRANCH  22  23
ATOM     23  C   UNL     1       2.811   3.099  19.069  0.00  0.00    +0.000 A 
ATOM     24  C   UNL     1       3.358   2.633  20.281  0.00  0.00    +0.000 A 
ATOM     25 CL   UNL     1       5.011   2.139  20.418  0.00  0.00    +0.000 Cl
ATOM     26  C   UNL     1       2.589   2.571  21.449  0.00  0.00    +0.000 A 
ATOM     27  C   UNL     1       1.265   2.995  21.444  0.00  0.00    +0.000 A 
ATOM     28  C   UNL     1       0.716   3.505  20.271  0.00  0.00    +0.000 A 
ATOM     29  C   UNL     1       1.477   3.553  19.095  0.00  0.00    +0.000 A 
ATOM     30 CL   UNL     1       0.698   4.212  17.697  0.00  0.00    +0.000 Cl
ENDBRANCH  22  23
ENDBRANCH   4  22
TORSDOF 6
ENDMDL
MODEL 5
REMARK VINA RESULT:      -7.6      4.401      7.416
REMARK  Name = 
REMARK  7 active torsions:
REMARK  status: ('A' for Active; 'I' for Inactive)
REMARK    1  A    between atoms: C_1  and  C_2
REMARK    2  A    between atoms: C_2  and  C_3
REMARK    3  A    between atoms: C_3  and  N_4
REMARK    4  A    between atoms: C_7  and  C_8
REMARK    5  A    between atoms: C_8  and  C_9
REMARK    6  A    between atoms: N_19  and  C_20
REMARK    7  A    between atoms: C_23  and  C_24
REMARK                            x       y       z     vdW  Elec       q    Type
REMARK                         _______ _______ _______ _____ _____    ______ ____
ROOT
ATOM      1  N   UNL     1       5.875   6.427  16.752  0.00  0.00    +0.000 N 
ATOM      2  C   UNL     1       4.537   6.600  17.094  0.00  0.00    +0.000 A 
ATOM      3  N   UNL     1       3.824   5.490  17.245  0.00  0.00    +0.000 NA
ATOM      4  C   UNL     1       2.583   5.663  17.701  0.00  0.00    +0.000 A 
ATOM      5  N   UNL     1       2.065   6.849  17.999  0.00  0.00    +0.000 NA
ATOM      6  C   UNL     1       2.846   7.905  17.787  0.00  0.00    +0.000 A 
ATOM      7  N   UNL     1       2.372   9.180  18.085  0.00  0.00    +0.000 N 
ATOM      8  N   UNL     1       4.080   7.825  17.322  0.00  0.00    +0.000 NA
ATOM      9  H   UNL     1       6.092   5.454  16.947  0.00  0.00    +0.000 HD
ATOM     10  H   UNL     1       3.017   9.899  17.791  0.00  0.00    +0.000 HD
ENDROOT
BRANCH   7  11
ATOM     11  C   UNL     1       1.441   9.523  19.071  0.00  0.00    +0.000 A 
ATOM     12  C   UNL     1       0.411  10.442  18.824  0.00  0.00    +0.000 A 
ATOM     13  C   UNL     1      -0.427  10.877  19.852  0.00  0.00    +0.000 A 
ATOM     14  C   UNL     1      -0.238  10.397  21.148  0.00  0.00    +0.000 A 
ATOM     15  C   UNL     1       0.756   9.446  21.398  0.00  0.00    +0.000 A 
ATOM     16  C   UNL     1       1.580   9.001  20.360  0.00  0.00    +0.000 A 
BRANCH  14  17
ATOM     17  C   UNL     1      -1.045  10.897  22.217  0.00  0.00    +0.000 C 
ATOM     18  N   UNL     1      -1.706  11.295  23.089  0.00  0.00    +0.000 NA
ENDBRANCH  14  17
ENDBRANCH   7  11
BRANCH   1  19
ATOM     19  C   UNL     1       6.757   7.401  17.380  0.00  0.00    +0.000 C 
BRANCH  19  21
ATOM     20  C   UNL     1       7.552   5.182  18.259  0.00  0.00    +0.000 C 
ATOM     21  C   UNL     1       7.816   6.678  18.203  0.00  0.00    +0.000 C 
ENDBRANCH  19  21
ENDBRANCH   1  19
BRANCH   4  22
ATOM     22  C   UNL     1       1.756   4.439  18.033  0.00  0.00    +0.000 C 
BRANCH  22  23
ATOM     23  C   UNL     1       2.172   3.725  19.303  0.00  0.00    +0.000 A 
ATOM     24  C   UNL     1       2.916   2.528  19.253  0.00  0.00    +0.000 A 
ATOM     25 CL   UNL     1       3.529   1.883  17.769  0.00  0.00    +0.000 Cl
ATOM     26  C   UNL     1       3.218   1.812  20.417  0.00  0.00    +0.000 A 
ATOM     27  C   UNL     1       2.809   2.283  21.660  0.00  0.00    +0.000 A 
ATOM     28  C   UNL     1       2.115   3.486  21.740  0.00  0.00    +0.000 A 
ATOM     29  C   UNL     1       1.795   4.198  20.576  0.00  0.00    +0.000 A 
ATOM     30 CL   UNL     1       0.937   5.686  20.791  0.00  0.00    +0.000 Cl
ENDBRANCH  22  23
ENDBRANCH   4  22
TORSDOF 6
ENDMDL
MODEL 6
REMARK VINA RESULT:      -7.6      0.341      1.752
REMARK  Name = 
REMARK  7 active torsions:
REMARK  status: ('A' for Active; 'I' for Inactive)
REMARK    1  A    between atoms: C_1  and  C_2
REMARK    2  A    between atoms: C_2  and  C_3
REMARK    3  A    between atoms: C_3  and  N_4
REMARK    4  A    between atoms: C_7  and  C_8
REMARK    5  A    between atoms: C_8  and  C_9
REMARK    6  A    between atoms: N_19  and  C_20
REMARK    7  A    between atoms: C_23  and  C_24
REMARK                            x       y       z     vdW  Elec       q    Type
REMARK                         _______ _______ _______ _____ _____    ______ ____
ROOT
ATOM      1  N   UNL     1       8.175   7.866  18.738  0.00  0.00    +0.000 N 
ATOM      2  C   UNL     1       7.717   6.683  18.165  0.00  0.00    +0.000 A 
ATOM      3  N   UNL     1       6.958   5.915  18.938  0.00  0.00    +0.000 NA
ATOM      4  C   UNL     1       6.417   4.855  18.338  0.00  0.00    +0.000 A 
ATOM      5  N   UNL     1       6.598   4.560  17.055  0.00  0.00    +0.000 NA
ATOM      6  C   UNL     1       7.399   5.372  16.370  0.00  0.00    +0.000 A 
ATOM      7  N   UNL     1       7.630   5.129  15.019  0.00  0.00    +0.000 N 
ATOM      8  N   UNL     1       7.989   6.434  16.890  0.00  0.00    +0.000 NA
ATOM      9  H   UNL     1       7.605   8.019  19.564  0.00  0.00    +0.000 HD
ATOM     10  H   UNL     1       8.326   5.753  14.638  0.00  0.00    +0.000 HD
ENDROOT
BRANCH   7  11
ATOM     11  C   UNL     1       6.757   4.518  14.112  0.00  0.00    +0.000 A 
ATOM     12  C   UNL     1       7.189   4.087  12.849  0.00  0.00    +0.000 A 
ATOM     13  C   UNL     1       6.282   3.604  11.905  0.00  0.00    +0.000 A 
ATOM     14  C   UNL     1       4.923   3.551  12.215  0.00  0.00    +0.000 A 
ATOM     15  C   UNL     1       4.486   3.935  13.486  0.00  0.00    +0.000 A 
ATOM     16  C   UNL     1       5.402   4.400  14.434  0.00  0.00    +0.000 A 
BRANCH  14  17
ATOM     17  C   UNL     1       3.983   3.128  11.224  0.00  0.00    +0.000 C 
ATOM     18  N   UNL     1       3.222   2.788  10.410  0.00  0.00    +0.000 NA
ENDBRANCH  14  17
ENDBRANCH   7  11
BRANCH   1  19
ATOM     19  C   UNL     1       8.222   8.977  17.798  0.00  0.00    +0.000 C 
BRANCH  19  21
ATOM     20  C   UNL     1       9.981  10.691  18.346  0.00  0.00    +0.000 C 
ATOM     21  C   UNL     1       8.534  10.268  18.546  0.00  0.00    +0.000 C 
ENDBRANCH  19  21
ENDBRANCH   1  19
BRANCH   4  22
ATOM     22  C   UNL     1       5.427   4.011  19.112  0.00  0.00    +0.000 C 
BRANCH  22  23
ATOM     23  C   UNL     1       4.014   4.038  18.565  0.00  0.00    +0.000 A 
ATOM     24  C   UNL     1       3.408   2.870  18.060  0.00  0.00    +0.000 A 
ATOM     25 CL   UNL     1       4.164   1.317  18.167  0.00  0.00    +0.000 Cl
ATOM     26  C   UNL     1       2.141   2.908  17.464  0.00  0.00    +0.000 A 
ATOM     27  C   UNL     1       1.438   4.105  17.380  0.00  0.00    +0.000 A 
ATOM     28  C   UNL     1       1.995   5.263  17.915  0.00  0.00    +0.000 A 
ATOM     29  C   UNL     1       3.270   5.233  18.497  0.00  0.00    +0.000 A 
ATOM     30 CL   UNL     1       3.862   6.728  19.137  0.00  0.00    +0.000 Cl
ENDBRANCH  22  23
ENDBRANCH   4  22
TORSDOF 6
ENDMDL
MODEL 7
REMARK VINA RESULT:      -7.5      3.355      6.353
REMARK  Name = 
REMARK  7 active torsions:
REMARK  status: ('A' for Active; 'I' for Inactive)
REMARK    1  A    between atoms: C_1  and  C_2
REMARK    2  A    between atoms: C_2  and  C_3
REMARK    3  A    between atoms: C_3  and  N_4
REMARK    4  A    between atoms: C_7  and  C_8
REMARK    5  A    between atoms: C_8  and  C_9
REMARK    6  A    between atoms: N_19  and  C_20
REMARK    7  A    between atoms: C_23  and  C_24
REMARK                            x       y       z     vdW  Elec       q    Type
REMARK                         _______ _______ _______ _____ _____    ______ ____
ROOT
ATOM      1  N   UNL     1       6.859   4.572  16.020  0.00  0.00    +0.000 N 
ATOM      2  C   UNL     1       5.549   4.707  16.473  0.00  0.00    +0.000 A 
ATOM      3  N   UNL     1       4.914   3.579  16.768  0.00  0.00    +0.000 NA
ATOM      4  C   UNL     1       3.713   3.727  17.326  0.00  0.00    +0.000 A 
ATOM      5  N   UNL     1       3.161   4.906  17.589  0.00  0.00    +0.000 NA
ATOM      6  C   UNL     1       3.861   5.979  17.232  0.00  0.00    +0.000 A 
ATOM      7  N   UNL     1       3.349   7.249  17.483  0.00  0.00    +0.000 N 
ATOM      8  N   UNL     1       5.050   5.923  16.658  0.00  0.00    +0.000 NA
ATOM      9  H   UNL     1       7.145   3.628  16.260  0.00  0.00    +0.000 HD
ATOM     10  H   UNL     1       3.924   7.973  17.080  0.00  0.00    +0.000 HD
ENDROOT
BRANCH   7  11
ATOM     11  C   UNL     1       2.494   7.620  18.527  0.00  0.00    +0.000 A 
ATOM     12  C   UNL     1       1.786   8.831  18.504  0.00  0.00    +0.000 A 
ATOM     13  C   UNL     1       1.044   9.251  19.609  0.00  0.00    +0.000 A 
ATOM     14  C   UNL     1       1.007   8.461  20.758  0.00  0.00    +0.000 A 
ATOM     15  C   UNL     1       1.671   7.230  20.776  0.00  0.00    +0.000 A 
ATOM     16  C   UNL     1       2.397   6.807  19.660  0.00  0.00    +0.000 A 
BRANCH  14  17
ATOM     17  C   UNL     1       0.310   8.924  21.918  0.00  0.00    +0.000 C 
ATOM     18  N   UNL     1      -0.252   9.294  22.868  0.00  0.00    +0.000 NA
ENDBRANCH  14  17
ENDBRANCH   7  11
BRANCH   1  19
ATOM     19  C   UNL     1       7.740   5.631  16.492  0.00  0.00    +0.000 C 
BRANCH  19  21
ATOM     20  C   UNL     1       8.020   7.048  18.552  0.00  0.00    +0.000 C 
ATOM     21  C   UNL     1       7.744   5.652  18.016  0.00  0.00    +0.000 C 
ENDBRANCH  19  21
ENDBRANCH   1  19
BRANCH   4  22
ATOM     22  C   UNL     1       2.986   2.494  17.820  0.00  0.00    +0.000 C 
BRANCH  22  23
ATOM     23  C   UNL     1       2.519   2.572  19.259  0.00  0.00    +0.000 A 
ATOM     24  C   UNL     1       1.198   2.949  19.575  0.00  0.00    +0.000 A 
ATOM     25 CL   UNL     1      -0.008   3.195  18.358  0.00  0.00    +0.000 Cl
ATOM     26  C   UNL     1       0.789   3.119  20.903  0.00  0.00    +0.000 A 
ATOM     27  C   UNL     1       1.678   2.893  21.948  0.00  0.00    +0.000 A 
ATOM     28  C   UNL     1       2.974   2.475  21.664  0.00  0.00    +0.000 A 
ATOM     29  C   UNL     1       3.394   2.320  20.336  0.00  0.00    +0.000 A 
ATOM     30 CL   UNL     1       5.023   1.787  20.097  0.00  0.00    +0.000 Cl
ENDBRANCH  22  23
ENDBRANCH   4  22
TORSDOF 6
ENDMDL
MODEL 8
REMARK VINA RESULT:      -7.5      3.553      6.250
REMARK  Name = 
REMARK  7 active torsions:
REMARK  status: ('A' for Active; 'I' for Inactive)
REMARK    1  A    between atoms: C_1  and  C_2
REMARK    2  A    between atoms: C_2  and  C_3
REMARK    3  A    between atoms: C_3  and  N_4
REMARK    4  A    between atoms: C_7  and  C_8
REMARK    5  A    between atoms: C_8  and  C_9
REMARK    6  A    between atoms: N_19  and  C_20
REMARK    7  A    between atoms: C_23  and  C_24
REMARK                            x       y       z     vdW  Elec       q    Type
REMARK                         _______ _______ _______ _____ _____    ______ ____
ROOT
ATOM      1  N   UNL     1       7.383   6.380  16.808  0.00  0.00    +0.000 N 
ATOM      2  C   UNL     1       6.105   6.195  17.328  0.00  0.00    +0.000 A 
ATOM      3  N   UNL     1       5.908   5.071  18.008  0.00  0.00    +0.000 NA
ATOM      4  C   UNL     1       4.725   4.967  18.613  0.00  0.00    +0.000 A 
ATOM      5  N   UNL     1       3.786   5.905  18.565  0.00  0.00    +0.000 NA
ATOM      6  C   UNL     1       4.064   6.982  17.836  0.00  0.00    +0.000 A 
ATOM      7  N   UNL     1       3.130   8.011  17.746  0.00  0.00    +0.000 N 
ATOM      8  N   UNL     1       5.203   7.160  17.190  0.00  0.00    +0.000 NA
ATOM      9  H   UNL     1       7.983   5.717  17.290  0.00  0.00    +0.000 HD
ATOM     10  H   UNL     1       3.416   8.723  17.091  0.00  0.00    +0.000 HD
ENDROOT
BRANCH   7  11
ATOM     11  C   UNL     1       2.185   8.376  18.711  0.00  0.00    +0.000 A 
ATOM     12  C   UNL     1       1.365   9.503  18.550  0.00  0.00    +0.000 A 
ATOM     13  C   UNL     1       0.524   9.933  19.577  0.00  0.00    +0.000 A 
ATOM     14  C   UNL     1       0.497   9.237  20.786  0.00  0.00    +0.000 A 
ATOM     15  C   UNL     1       1.275   8.086  20.941  0.00  0.00    +0.000 A 
ATOM     16  C   UNL     1       2.102   7.650  19.903  0.00  0.00    +0.000 A 
BRANCH  14  17
ATOM     17  C   UNL     1      -0.307   9.718  21.866  0.00  0.00    +0.000 C 
ATOM     18  N   UNL     1      -0.955  10.108  22.752  0.00  0.00    +0.000 NA
ENDBRANCH  14  17
ENDBRANCH   7  11
BRANCH   1  19
ATOM     19  C   UNL     1       7.824   7.768  16.853  0.00  0.00    +0.000 C 
BRANCH  19  21
ATOM     20  C   UNL     1       8.638   9.587  18.388  0.00  0.00    +0.000 C 
ATOM     21  C   UNL     1       8.280   8.115  18.265  0.00  0.00    +0.000 C 
ENDBRANCH  19  21
ENDBRANCH   1  19
BRANCH   4  22
ATOM     22  C   UNL     1       4.477   3.782  19.521  0.00  0.00    +0.000 C 
BRANCH  22  23
ATOM     23  C   UNL     1       3.065   3.235  19.470  0.00  0.00    +0.000 A 
ATOM     24  C   UNL     1       2.131   3.541  20.480  0.00  0.00    +0.000 A 
ATOM     25 CL   UNL     1       2.476   4.668  21.746  0.00  0.00    +0.000 Cl
ATOM     26  C   UNL     1       0.857   2.960  20.491  0.00  0.00    +0.000 A 
ATOM     27  C   UNL     1       0.475   2.081  19.483  0.00  0.00    +0.000 A 
ATOM     28  C   UNL     1       1.362   1.800  18.450  0.00  0.00    +0.000 A 
ATOM     29  C   UNL     1       2.645   2.365  18.443  0.00  0.00    +0.000 A 
ATOM     30 CL   UNL     1       3.664   1.953  17.107  0.00  0.00    +0.000 Cl
ENDBRANCH  22  23
ENDBRANCH   4  22
TORSDOF 6
ENDMDL
MODEL 9
REMARK VINA RESULT:      -7.1      7.245      9.647
REMARK  Name = 
REMARK  7 active torsions:
REMARK  status: ('A' for Active; 'I' for Inactive)
REMARK    1  A    between atoms: C_1  and  C_2
REMARK    2  A    between atoms: C_2  and  C_3
REMARK    3  A    between atoms: C_3  and  N_4
REMARK    4  A    between atoms: C_7  and  C_8
REMARK    5  A    between atoms: C_8  and  C_9
REMARK    6  A    between atoms: N_19  and  C_20
REMARK    7  A    between atoms: C_23  and  C_24
REMARK                            x       y       z     vdW  Elec       q    Type
REMARK                         _______ _______ _______ _____ _____    ______ ____
ROOT
ATOM      1  N   UNL     1      -2.484  11.065  17.684  0.00  0.00    +0.000 N 
ATOM      2  C   UNL     1      -1.251  10.753  18.250  0.00  0.00    +0.000 A 
ATOM      3  N   UNL     1      -1.076  11.126  19.513  0.00  0.00    +0.000 NA
ATOM      4  C   UNL     1       0.052  10.705  20.084  0.00  0.00    +0.000 A 
ATOM      5  N   UNL     1       0.958   9.957  19.465  0.00  0.00    +0.000 NA
ATOM      6  C   UNL     1       0.709   9.658  18.193  0.00  0.00    +0.000 A 
ATOM      7  N   UNL     1       1.611   8.872  17.482  0.00  0.00    +0.000 N 
ATOM      8  N   UNL     1      -0.375  10.048  17.545  0.00  0.00    +0.000 NA
ATOM      9  H   UNL     1      -3.101  11.292  18.459  0.00  0.00    +0.000 HD
ATOM     10  H   UNL     1       1.360   8.797  16.508  0.00  0.00    +0.000 HD
ENDROOT
BRANCH   7  11
ATOM     11  C   UNL     1       2.455   7.882  18.000  0.00  0.00    +0.000 A 
ATOM     12  C   UNL     1       3.667   7.549  17.377  0.00  0.00    +0.000 A 
ATOM     13  C   UNL     1       4.433   6.471  17.826  0.00  0.00    +0.000 A 
ATOM     14  C   UNL     1       3.988   5.708  18.905  0.00  0.00    +0.000 A 
ATOM     15  C   UNL     1       2.805   6.060  19.562  0.00  0.00    +0.000 A 
ATOM     16  C   UNL     1       2.052   7.151  19.120  0.00  0.00    +0.000 A 
BRANCH  14  17
ATOM     17  C   UNL     1       4.731   4.559  19.319  0.00  0.00    +0.000 C 
ATOM     18  N   UNL     1       5.330   3.621  19.662  0.00  0.00    +0.000 NA
ENDBRANCH  14  17
ENDBRANCH   7  11
BRANCH   1  19
ATOM     19  C   UNL     1      -2.974  10.037  16.776  0.00  0.00    +0.000 C 
BRANCH  19  21
ATOM     20  C   UNL     1      -3.884  10.009  14.431  0.00  0.00    +0.000 C 
ATOM     21  C   UNL     1      -2.757  10.481  15.335  0.00  0.00    +0.000 C 
ENDBRANCH  19  21
ENDBRANCH   1  19
BRANCH   4  22
ATOM     22  C   UNL     1       0.259  10.968  21.560  0.00  0.00    +0.000 C 
BRANCH  22  23
ATOM     23  C   UNL     1      -0.069  12.381  21.999  0.00  0.00    +0.000 A 
ATOM     24  C   UNL     1       0.734  13.470  21.604  0.00  0.00    +0.000 A 
ATOM     25 CL   UNL     1       2.041  13.294  20.483  0.00  0.00    +0.000 Cl
ATOM     26  C   UNL     1       0.494  14.762  22.086  0.00  0.00    +0.000 A 
ATOM     27  C   UNL     1      -0.567  15.006  22.951  0.00  0.00    +0.000 A 
ATOM     28  C   UNL     1      -1.403  13.957  23.318  0.00  0.00    +0.000 A 
ATOM     29  C   UNL     1      -1.157  12.657  22.853  0.00  0.00    +0.000 A 
ATOM     30 CL   UNL     1      -2.264  11.430  23.365  0.00  0.00    +0.000 Cl
ENDBRANCH  22  23
ENDBRANCH   4  22
TORSDOF 6
ENDMDL
