MODEL 1
REMARK VINA RESULT:      -7.3      0.000      0.000
REMARK  Name = 
REMARK  12 active torsions:
REMARK  status: ('A' for Active; 'I' for Inactive)
REMARK    1  A    between atoms: C_1  and  C_2
REMARK    2  A    between atoms: C_2  and  N_3
REMARK    3  A    between atoms: C_2  and  C_22
REMARK    4  A    between atoms: C_4  and  C_6
REMARK    5  A    between atoms: C_6  and  C_7
REMARK    6  A    between atoms: C_7  and  S_8
REMARK    7  A    between atoms: S_8  and  C_9
REMARK    8  A    between atoms: C_9  and  C_10
REMARK    9  A    between atoms: C_10  and  C_11
REMARK   10  A    between atoms: N_13  and  C_14
REMARK   11  A    between atoms: C_14  and  C_15
REMARK   12  A    between atoms: C_14  and  C_16
REMARK                            x       y       z     vdW  Elec       q    Type
REMARK                         _______ _______ _______ _____ _____    ______ ____
ROOT
ATOM      1  S   UNL     1       2.716   2.202  21.437  0.00  0.00    +0.000 S 
ENDROOT
BRANCH   1   2
ATOM      2  C   UNL     1       3.861   2.393  20.015  0.00  0.00    +0.000 C 
BRANCH   2   3
ATOM      3  C   UNL     1       3.148   2.052  18.703  0.00  0.00    +0.000 C 
BRANCH   3   5
ATOM      4  N   UNL     1       4.631   3.697  17.707  0.00  0.00    +0.000 N 
ATOM      5  C   UNL     1       3.384   3.114  17.642  0.00  0.00    +0.000 C 
ATOM      6  O   UNL     1       2.546   3.417  16.798  0.00  0.00    +0.000 OA
ATOM      7  H   UNL     1       5.252   3.455  18.468  0.00  0.00    +0.000 HD
BRANCH   4   9
ATOM      8  C   UNL     1       5.512   4.131  15.432  0.00  0.00    +0.000 C 
ATOM      9  C   UNL     1       5.065   4.730  16.769  0.00  0.00    +0.000 C 
BRANCH   9  10
ATOM     10  C   UNL     1       6.165   5.573  17.390  0.00  0.00    +0.000 A 
ATOM     11  C   UNL     1       6.478   6.829  16.845  0.00  0.00    +0.000 A 
ATOM     12  C   UNL     1       7.471   7.628  17.417  0.00  0.00    +0.000 A 
ATOM     13  C   UNL     1       8.165   7.182  18.541  0.00  0.00    +0.000 A 
ATOM     14  C   UNL     1       7.875   5.935  19.085  0.00  0.00    +0.000 A 
ATOM     15  C   UNL     1       6.885   5.133  18.513  0.00  0.00    +0.000 A 
ENDBRANCH   9  10
ENDBRANCH   4   9
ENDBRANCH   3   5
ENDBRANCH   2   3
ENDBRANCH   1   2
BRANCH   1  16
ATOM     16  C   UNL     1       2.347   3.968  21.774  0.00  0.00    +0.000 C 
BRANCH  16  17
ATOM     17  C   UNL     1       1.579   4.586  20.604  0.00  0.00    +0.000 C 
BRANCH  17  18
ATOM     18  C   UNL     1       2.133   5.953  20.223  0.00  0.00    +0.000 C 
ATOM     19  O   UNL     1       3.209   6.101  19.655  0.00  0.00    +0.000 OA
ATOM     20  N   UNL     1       1.294   7.003  20.546  0.00  0.00    +0.000 N 
ATOM     21  H   UNL     1       0.542   6.828  21.199  0.00  0.00    +0.000 HD
BRANCH  20  22
ATOM     22  C   UNL     1       1.679   8.395  20.314  0.00  0.00    +0.000 C 
ATOM     23  C   UNL     1       1.634   8.730  18.823  0.00  0.00    +0.000 C 
BRANCH  22  24
ATOM     24  C   UNL     1       0.800   9.345  21.110  0.00  0.00    +0.000 A 
ATOM     25  C   UNL     1       0.488  10.615  20.599  0.00  0.00    +0.000 A 
ATOM     26  C   UNL     1      -0.271  11.517  21.347  0.00  0.00    +0.000 A 
ATOM     27  C   UNL     1      -0.734  11.161  22.611  0.00  0.00    +0.000 A 
ATOM     28  C   UNL     1      -0.465   9.892  23.117  0.00  0.00    +0.000 A 
ATOM     29  C   UNL     1       0.290   8.987  22.369  0.00  0.00    +0.000 A 
ENDBRANCH  22  24
ENDBRANCH  20  22
ENDBRANCH  17  18
ENDBRANCH  16  17
ENDBRANCH   1  16
TORSDOF 10
ENDMDL
MODEL 2
REMARK VINA RESULT:      -7.0      0.899      1.612
REMARK  Name = 
REMARK  12 active torsions:
REMARK  status: ('A' for Active; 'I' for Inactive)
REMARK    1  A    between atoms: C_1  and  C_2
REMARK    2  A    between atoms: C_2  and  N_3
REMARK    3  A    between atoms: C_2  and  C_22
REMARK    4  A    between atoms: C_4  and  C_6
REMARK    5  A    between atoms: C_6  and  C_7
REMARK    6  A    between atoms: C_7  and  S_8
REMARK    7  A    between atoms: S_8  and  C_9
REMARK    8  A    between atoms: C_9  and  C_10
REMARK    9  A    between atoms: C_10  and  C_11
REMARK   10  A    between atoms: N_13  and  C_14
REMARK   11  A    between atoms: C_14  and  C_15
REMARK   12  A    between atoms: C_14  and  C_16
REMARK                            x       y       z     vdW  Elec       q    Type
REMARK                         _______ _______ _______ _____ _____    ______ ____
ROOT
ATOM      1  S   UNL     1       4.062   2.345  20.163  0.00  0.00    +0.000 S 
ENDROOT
BRANCH   1   2
ATOM      2  C   UNL     1       2.894   1.815  18.850  0.00  0.00    +0.000 C 
BRANCH   2   3
ATOM      3  C   UNL     1       3.525   1.997  17.466  0.00  0.00    +0.000 C 
BRANCH   3   5
ATOM      4  N   UNL     1       4.883   3.865  16.714  0.00  0.00    +0.000 N 
ATOM      5  C   UNL     1       3.617   3.464  17.078  0.00  0.00    +0.000 C 
ATOM      6  O   UNL     1       2.649   4.219  17.077  0.00  0.00    +0.000 OA
ATOM      7  H   UNL     1       5.653   3.215  16.802  0.00  0.00    +0.000 HD
BRANCH   4   9
ATOM      8  C   UNL     1       5.622   5.289  14.826  0.00  0.00    +0.000 C 
ATOM      9  C   UNL     1       5.184   5.232  16.292  0.00  0.00    +0.000 C 
BRANCH   9  10
ATOM     10  C   UNL     1       6.232   5.844  17.204  0.00  0.00    +0.000 A 
ATOM     11  C   UNL     1       6.664   5.146  18.344  0.00  0.00    +0.000 A 
ATOM     12  C   UNL     1       7.644   5.683  19.182  0.00  0.00    +0.000 A 
ATOM     13  C   UNL     1       8.206   6.925  18.892  0.00  0.00    +0.000 A 
ATOM     14  C   UNL     1       7.781   7.635  17.773  0.00  0.00    +0.000 A 
ATOM     15  C   UNL     1       6.799   7.101  16.936  0.00  0.00    +0.000 A 
ENDBRANCH   9  10
ENDBRANCH   4   9
ENDBRANCH   3   5
ENDBRANCH   2   3
ENDBRANCH   1   2
BRANCH   1  16
ATOM     16  C   UNL     1       2.867   3.009  21.388  0.00  0.00    +0.000 C 
BRANCH  16  17
ATOM     17  C   UNL     1       1.870   3.949  20.707  0.00  0.00    +0.000 C 
BRANCH  17  18
ATOM     18  C   UNL     1       2.518   5.269  20.310  0.00  0.00    +0.000 C 
ATOM     19  O   UNL     1       3.722   5.387  20.111  0.00  0.00    +0.000 OA
ATOM     20  N   UNL     1       1.619   6.308  20.162  0.00  0.00    +0.000 N 
ATOM     21  H   UNL     1       0.692   6.195  20.552  0.00  0.00    +0.000 HD
BRANCH  20  22
ATOM     22  C   UNL     1       2.057   7.666  19.844  0.00  0.00    +0.000 C 
ATOM     23  C   UNL     1       2.031   7.906  18.334  0.00  0.00    +0.000 C 
BRANCH  22  24
ATOM     24  C   UNL     1       1.212   8.698  20.572  0.00  0.00    +0.000 A 
ATOM     25  C   UNL     1       0.916   8.535  21.934  0.00  0.00    +0.000 A 
ATOM     26  C   UNL     1       0.093   9.447  22.599  0.00  0.00    +0.000 A 
ATOM     27  C   UNL     1      -0.440  10.536  21.913  0.00  0.00    +0.000 A 
ATOM     28  C   UNL     1      -0.126  10.732  20.570  0.00  0.00    +0.000 A 
ATOM     29  C   UNL     1       0.700   9.824  19.906  0.00  0.00    +0.000 A 
ENDBRANCH  22  24
ENDBRANCH  20  22
ENDBRANCH  17  18
ENDBRANCH  16  17
ENDBRANCH   1  16
TORSDOF 10
ENDMDL
MODEL 3
REMARK VINA RESULT:      -6.9      1.209      1.667
REMARK  Name = 
REMARK  12 active torsions:
REMARK  status: ('A' for Active; 'I' for Inactive)
REMARK    1  A    between atoms: C_1  and  C_2
REMARK    2  A    between atoms: C_2  and  N_3
REMARK    3  A    between atoms: C_2  and  C_22
REMARK    4  A    between atoms: C_4  and  C_6
REMARK    5  A    between atoms: C_6  and  C_7
REMARK    6  A    between atoms: C_7  and  S_8
REMARK    7  A    between atoms: S_8  and  C_9
REMARK    8  A    between atoms: C_9  and  C_10
REMARK    9  A    between atoms: C_10  and  C_11
REMARK   10  A    between atoms: N_13  and  C_14
REMARK   11  A    between atoms: C_14  and  C_15
REMARK   12  A    between atoms: C_14  and  C_16
REMARK                            x       y       z     vdW  Elec       q    Type
REMARK                         _______ _______ _______ _____ _____    ______ ____
ROOT
ATOM      1  S   UNL     1       1.747   2.804  21.125  0.00  0.00    +0.000 S 
ENDROOT
BRANCH   1   2
ATOM      2  C   UNL     1       3.384   2.616  20.317  0.00  0.00    +0.000 C 
BRANCH   2   3
ATOM      3  C   UNL     1       3.233   1.945  18.949  0.00  0.00    +0.000 C 
BRANCH   3   5
ATOM      4  N   UNL     1       4.711   3.476  17.780  0.00  0.00    +0.000 N 
ATOM      5  C   UNL     1       3.447   2.931  17.812  0.00  0.00    +0.000 C 
ATOM      6  O   UNL     1       2.577   3.207  16.991  0.00  0.00    +0.000 OA
ATOM      7  H   UNL     1       5.362   3.263  18.524  0.00  0.00    +0.000 HD
BRANCH   4   9
ATOM      8  C   UNL     1       5.677   3.733  15.513  0.00  0.00    +0.000 C 
ATOM      9  C   UNL     1       5.128   4.435  16.758  0.00  0.00    +0.000 C 
BRANCH   9  10
ATOM     10  C   UNL     1       6.142   5.408  17.335  0.00  0.00    +0.000 A 
ATOM     11  C   UNL     1       6.237   6.709  16.816  0.00  0.00    +0.000 A 
ATOM     12  C   UNL     1       7.148   7.625  17.349  0.00  0.00    +0.000 A 
ATOM     13  C   UNL     1       7.975   7.252  18.407  0.00  0.00    +0.000 A 
ATOM     14  C   UNL     1       7.901   5.962  18.925  0.00  0.00    +0.000 A 
ATOM     15  C   UNL     1       6.994   5.045  18.391  0.00  0.00    +0.000 A 
ENDBRANCH   9  10
ENDBRANCH   4   9
ENDBRANCH   3   5
ENDBRANCH   2   3
ENDBRANCH   1   2
BRANCH   1  16
ATOM     16  C   UNL     1       1.214   4.391  20.375  0.00  0.00    +0.000 C 
BRANCH  16  17
ATOM     17  C   UNL     1       2.231   5.494  20.678  0.00  0.00    +0.000 C 
BRANCH  17  18
ATOM     18  C   UNL     1       2.287   6.532  19.566  0.00  0.00    +0.000 C 
ATOM     19  O   UNL     1       2.600   6.257  18.413  0.00  0.00    +0.000 OA
ATOM     20  N   UNL     1       1.918   7.802  19.970  0.00  0.00    +0.000 N 
ATOM     21  H   UNL     1       1.889   7.996  20.962  0.00  0.00    +0.000 HD
BRANCH  20  22
ATOM     22  C   UNL     1       1.967   8.944  19.058  0.00  0.00    +0.000 C 
ATOM     23  C   UNL     1       2.359   8.498  17.649  0.00  0.00    +0.000 C 
BRANCH  22  24
ATOM     24  C   UNL     1       0.643   9.689  19.043  0.00  0.00    +0.000 A 
ATOM     25  C   UNL     1      -0.148   9.699  17.883  0.00  0.00    +0.000 A 
ATOM     26  C   UNL     1      -1.339  10.428  17.840  0.00  0.00    +0.000 A 
ATOM     27  C   UNL     1      -1.758  11.149  18.955  0.00  0.00    +0.000 A 
ATOM     28  C   UNL     1      -1.002  11.120  20.125  0.00  0.00    +0.000 A 
ATOM     29  C   UNL     1       0.186  10.389  20.172  0.00  0.00    +0.000 A 
ENDBRANCH  22  24
ENDBRANCH  20  22
ENDBRANCH  17  18
ENDBRANCH  16  17
ENDBRANCH   1  16
TORSDOF 10
ENDMDL
MODEL 4
REMARK VINA RESULT:      -6.9      5.245      8.503
REMARK  Name = 
REMARK  12 active torsions:
REMARK  status: ('A' for Active; 'I' for Inactive)
REMARK    1  A    between atoms: C_1  and  C_2
REMARK    2  A    between atoms: C_2  and  N_3
REMARK    3  A    between atoms: C_2  and  C_22
REMARK    4  A    between atoms: C_4  and  C_6
REMARK    5  A    between atoms: C_6  and  C_7
REMARK    6  A    between atoms: C_7  and  S_8
REMARK    7  A    between atoms: S_8  and  C_9
REMARK    8  A    between atoms: C_9  and  C_10
REMARK    9  A    between atoms: C_10  and  C_11
REMARK   10  A    between atoms: N_13  and  C_14
REMARK   11  A    between atoms: C_14  and  C_15
REMARK   12  A    between atoms: C_14  and  C_16
REMARK                            x       y       z     vdW  Elec       q    Type
REMARK                         _______ _______ _______ _____ _____    ______ ____
ROOT
ATOM      1  S   UNL     1       7.329   7.175  17.318  0.00  0.00    +0.000 S 
ENDROOT
BRANCH   1   2
ATOM      2  C   UNL     1       7.562   5.537  18.111  0.00  0.00    +0.000 C 
BRANCH   2   3
ATOM      3  C   UNL     1       6.393   4.607  17.774  0.00  0.00    +0.000 C 
BRANCH   3   5
ATOM      4  N   UNL     1       4.086   5.289  17.440  0.00  0.00    +0.000 N 
ATOM      5  C   UNL     1       5.087   5.106  18.369  0.00  0.00    +0.000 C 
ATOM      6  O   UNL     1       4.933   5.317  19.568  0.00  0.00    +0.000 OA
ATOM      7  H   UNL     1       4.293   5.165  16.457  0.00  0.00    +0.000 HD
BRANCH   4   9
ATOM      8  C   UNL     1       2.790   7.103  18.519  0.00  0.00    +0.000 C 
ATOM      9  C   UNL     1       2.748   5.749  17.806  0.00  0.00    +0.000 C 
BRANCH   9  10
ATOM     10  C   UNL     1       2.046   4.702  18.653  0.00  0.00    +0.000 A 
ATOM     11  C   UNL     1       1.666   3.477  18.081  0.00  0.00    +0.000 A 
ATOM     12  C   UNL     1       1.040   2.493  18.850  0.00  0.00    +0.000 A 
ATOM     13  C   UNL     1       0.787   2.720  20.202  0.00  0.00    +0.000 A 
ATOM     14  C   UNL     1       1.147   3.934  20.781  0.00  0.00    +0.000 A 
ATOM     15  C   UNL     1       1.769   4.919  20.013  0.00  0.00    +0.000 A 
ENDBRANCH   9  10
ENDBRANCH   4   9
ENDBRANCH   3   5
ENDBRANCH   2   3
ENDBRANCH   1   2
BRANCH   1  16
ATOM     16  C   UNL     1       8.389   8.200  18.410  0.00  0.00    +0.000 C 
BRANCH  16  17
ATOM     17  C   UNL     1       8.201   9.686  18.096  0.00  0.00    +0.000 C 
BRANCH  17  18
ATOM     18  C   UNL     1       9.171  10.557  18.883  0.00  0.00    +0.000 C 
ATOM     19  O   UNL     1       9.392  10.396  20.078  0.00  0.00    +0.000 OA
ATOM     20  N   UNL     1       9.803  11.519  18.118  0.00  0.00    +0.000 N 
ATOM     21  H   UNL     1       9.415  11.734  17.209  0.00  0.00    +0.000 HD
BRANCH  20  22
ATOM     22  C   UNL     1      10.724  12.490  18.708  0.00  0.00    +0.000 C 
ATOM     23  C   UNL     1      12.175  12.040  18.531  0.00  0.00    +0.000 C 
BRANCH  22  24
ATOM     24  C   UNL     1      10.510  13.874  18.118  0.00  0.00    +0.000 A 
ATOM     25  C   UNL     1      11.530  14.492  17.377  0.00  0.00    +0.000 A 
ATOM     26  C   UNL     1      11.366  15.786  16.880  0.00  0.00    +0.000 A 
ATOM     27  C   UNL     1      10.179  16.478  17.110  0.00  0.00    +0.000 A 
ATOM     28  C   UNL     1       9.143  15.865  17.812  0.00  0.00    +0.000 A 
ATOM     29  C   UNL     1       9.304  14.570  18.307  0.00  0.00    +0.000 A 
ENDBRANCH  22  24
ENDBRANCH  20  22
ENDBRANCH  17  18
ENDBRANCH  16  17
ENDBRANCH   1  16
TORSDOF 10
ENDMDL
MODEL 5
REMARK VINA RESULT:      -6.8      1.994      7.461
REMARK  Name = 
REMARK  12 active torsions:
REMARK  status: ('A' for Active; 'I' for Inactive)
REMARK    1  A    between atoms: C_1  and  C_2
REMARK    2  A    between atoms: C_2  and  N_3
REMARK    3  A    between atoms: C_2  and  C_22
REMARK    4  A    between atoms: C_4  and  C_6
REMARK    5  A    between atoms: C_6  and  C_7
REMARK    6  A    between atoms: C_7  and  S_8
REMARK    7  A    between atoms: S_8  and  C_9
REMARK    8  A    between atoms: C_9  and  C_10
REMARK    9  A    between atoms: C_10  and  C_11
REMARK   10  A    between atoms: N_13  and  C_14
REMARK   11  A    between atoms: C_14  and  C_15
REMARK   12  A    between atoms: C_14  and  C_16
REMARK                            x       y       z     vdW  Elec       q    Type
REMARK                         _______ _______ _______ _____ _____    ______ ____
ROOT
ATOM      1  S   UNL     1       2.784   3.897  20.248  0.00  0.00    +0.000 S 
ENDROOT
BRANCH   1   2
ATOM      2  C   UNL     1       3.428   5.570  19.853  0.00  0.00    +0.000 C 
BRANCH   2   3
ATOM      3  C   UNL     1       2.341   6.627  20.069  0.00  0.00    +0.000 C 
BRANCH   3   5
ATOM      4  N   UNL     1       1.382   8.636  19.098  0.00  0.00    +0.000 N 
ATOM      5  C   UNL     1       2.244   7.582  18.890  0.00  0.00    +0.000 C 
ATOM      6  O   UNL     1       2.883   7.435  17.852  0.00  0.00    +0.000 OA
ATOM      7  H   UNL     1       0.831   8.666  19.946  0.00  0.00    +0.000 HD
BRANCH   4   9
ATOM      8  C   UNL     1       2.210  10.782  18.178  0.00  0.00    +0.000 C 
ATOM      9  C   UNL     1       1.155   9.676  18.096  0.00  0.00    +0.000 C 
BRANCH   9  10
ATOM     10  C   UNL     1      -0.248  10.241  18.235  0.00  0.00    +0.000 A 
ATOM     11  C   UNL     1      -1.256   9.840  17.344  0.00  0.00    +0.000 A 
ATOM     12  C   UNL     1      -2.558  10.332  17.470  0.00  0.00    +0.000 A 
ATOM     13  C   UNL     1      -2.868  11.230  18.490  0.00  0.00    +0.000 A 
ATOM     14  C   UNL     1      -1.877  11.647  19.374  0.00  0.00    +0.000 A 
ATOM     15  C   UNL     1      -0.575  11.159  19.247  0.00  0.00    +0.000 A 
ENDBRANCH   9  10
ENDBRANCH   4   9
ENDBRANCH   3   5
ENDBRANCH   2   3
ENDBRANCH   1   2
BRANCH   1  16
ATOM     16  C   UNL     1       1.334   3.852  19.124  0.00  0.00    +0.000 C 
BRANCH  16  17
ATOM     17  C   UNL     1       1.773   4.080  17.676  0.00  0.00    +0.000 C 
BRANCH  17  18
ATOM     18  C   UNL     1       3.184   3.567  17.425  0.00  0.00    +0.000 C 
ATOM     19  O   UNL     1       3.527   2.414  17.666  0.00  0.00    +0.000 OA
ATOM     20  N   UNL     1       4.029   4.509  16.869  0.00  0.00    +0.000 N 
ATOM     21  H   UNL     1       3.748   5.480  16.904  0.00  0.00    +0.000 HD
BRANCH  20  22
ATOM     22  C   UNL     1       5.440   4.222  16.612  0.00  0.00    +0.000 C 
ATOM     23  C   UNL     1       5.722   4.186  15.110  0.00  0.00    +0.000 C 
BRANCH  22  24
ATOM     24  C   UNL     1       6.338   5.230  17.309  0.00  0.00    +0.000 A 
ATOM     25  C   UNL     1       6.556   6.495  16.739  0.00  0.00    +0.000 A 
ATOM     26  C   UNL     1       7.424   7.408  17.341  0.00  0.00    +0.000 A 
ATOM     27  C   UNL     1       8.082   7.072  18.522  0.00  0.00    +0.000 A 
ATOM     28  C   UNL     1       7.850   5.835  19.118  0.00  0.00    +0.000 A 
ATOM     29  C   UNL     1       6.978   4.923  18.521  0.00  0.00    +0.000 A 
ENDBRANCH  22  24
ENDBRANCH  20  22
ENDBRANCH  17  18
ENDBRANCH  16  17
ENDBRANCH   1  16
TORSDOF 10
ENDMDL
MODEL 6
REMARK VINA RESULT:      -6.7      4.881      7.785
REMARK  Name = 
REMARK  12 active torsions:
REMARK  status: ('A' for Active; 'I' for Inactive)
REMARK    1  A    between atoms: C_1  and  C_2
REMARK    2  A    between atoms: C_2  and  N_3
REMARK    3  A    between atoms: C_2  and  C_22
REMARK    4  A    between atoms: C_4  and  C_6
REMARK    5  A    between atoms: C_6  and  C_7
REMARK    6  A    between atoms: C_7  and  S_8
REMARK    7  A    between atoms: S_8  and  C_9
REMARK    8  A    between atoms: C_9  and  C_10
REMARK    9  A    between atoms: C_10  and  C_11
REMARK   10  A    between atoms: N_13  and  C_14
REMARK   11  A    between atoms: C_14  and  C_15
REMARK   12  A    between atoms: C_14  and  C_16
REMARK                            x       y       z     vdW  Elec       q    Type
REMARK                         _______ _______ _______ _____ _____    ______ ____
ROOT
ATOM      1  S   UNL     1       6.545   6.868  17.607  0.00  0.00    +0.000 S 
ENDROOT
BRANCH   1   2
ATOM      2  C   UNL     1       7.270   5.298  16.994  0.00  0.00    +0.000 C 
BRANCH   2   3
ATOM      3  C   UNL     1       6.170   4.261  16.744  0.00  0.00    +0.000 C 
BRANCH   3   5
ATOM      4  N   UNL     1       3.898   4.433  17.584  0.00  0.00    +0.000 N 
ATOM      5  C   UNL     1       5.208   4.167  17.917  0.00  0.00    +0.000 C 
ATOM      6  O   UNL     1       5.563   3.872  19.054  0.00  0.00    +0.000 OA
ATOM      7  H   UNL     1       3.677   4.739  16.645  0.00  0.00    +0.000 HD
BRANCH   4   9
ATOM      8  C   UNL     1       1.596   3.627  18.020  0.00  0.00    +0.000 C 
ATOM      9  C   UNL     1       2.813   4.382  18.562  0.00  0.00    +0.000 C 
BRANCH   9  10
ATOM     10  C   UNL     1       2.438   5.786  19.003  0.00  0.00    +0.000 A 
ATOM     11  C   UNL     1       2.512   6.851  18.090  0.00  0.00    +0.000 A 
ATOM     12  C   UNL     1       2.150   8.145  18.472  0.00  0.00    +0.000 A 
ATOM     13  C   UNL     1       1.709   8.392  19.770  0.00  0.00    +0.000 A 
ATOM     14  C   UNL     1       1.641   7.350  20.691  0.00  0.00    +0.000 A 
ATOM     15  C   UNL     1       2.006   6.057  20.312  0.00  0.00    +0.000 A 
ENDBRANCH   9  10
ENDBRANCH   4   9
ENDBRANCH   3   5
ENDBRANCH   2   3
ENDBRANCH   1   2
BRANCH   1  16
ATOM     16  C   UNL     1       8.080   7.746  18.096  0.00  0.00    +0.000 C 
BRANCH  16  17
ATOM     17  C   UNL     1       8.012   9.216  17.676  0.00  0.00    +0.000 C 
BRANCH  17  18
ATOM     18  C   UNL     1       8.946  10.085  18.508  0.00  0.00    +0.000 C 
ATOM     19  O   UNL     1       9.230   9.832  19.673  0.00  0.00    +0.000 OA
ATOM     20  N   UNL     1       9.468  11.162  17.816  0.00  0.00    +0.000 N 
ATOM     21  H   UNL     1       9.025  11.429  16.947  0.00  0.00    +0.000 HD
BRANCH  20  22
ATOM     22  C   UNL     1      10.336  12.145  18.463  0.00  0.00    +0.000 C 
ATOM     23  C   UNL     1      11.788  11.965  18.017  0.00  0.00    +0.000 C 
BRANCH  22  24
ATOM     24  C   UNL     1       9.857  13.561  18.191  0.00  0.00    +0.000 A 
ATOM     25  C   UNL     1      10.746  14.524  17.690  0.00  0.00    +0.000 A 
ATOM     26  C   UNL     1      10.331  15.842  17.490  0.00  0.00    +0.000 A 
ATOM     27  C   UNL     1       9.021  16.214  17.782  0.00  0.00    +0.000 A 
ATOM     28  C   UNL     1       8.116  15.262  18.246  0.00  0.00    +0.000 A 
ATOM     29  C   UNL     1       8.528  13.943  18.441  0.00  0.00    +0.000 A 
ENDBRANCH  22  24
ENDBRANCH  20  22
ENDBRANCH  17  18
ENDBRANCH  16  17
ENDBRANCH   1  16
TORSDOF 10
ENDMDL
MODEL 7
REMARK VINA RESULT:      -6.7      1.785      8.164
REMARK  Name = 
REMARK  12 active torsions:
REMARK  status: ('A' for Active; 'I' for Inactive)
REMARK    1  A    between atoms: C_1  and  C_2
REMARK    2  A    between atoms: C_2  and  N_3
REMARK    3  A    between atoms: C_2  and  C_22
REMARK    4  A    between atoms: C_4  and  C_6
REMARK    5  A    between atoms: C_6  and  C_7
REMARK    6  A    between atoms: C_7  and  S_8
REMARK    7  A    between atoms: S_8  and  C_9
REMARK    8  A    between atoms: C_9  and  C_10
REMARK    9  A    between atoms: C_10  and  C_11
REMARK   10  A    between atoms: N_13  and  C_14
REMARK   11  A    between atoms: C_14  and  C_15
REMARK   12  A    between atoms: C_14  and  C_16
REMARK                            x       y       z     vdW  Elec       q    Type
REMARK                         _______ _______ _______ _____ _____    ______ ____
ROOT
ATOM      1  S   UNL     1       1.416   2.342  19.343  0.00  0.00    +0.000 S 
ENDROOT
BRANCH   1   2
ATOM      2  C   UNL     1       1.174   4.161  19.348  0.00  0.00    +0.000 C 
BRANCH   2   3
ATOM      3  C   UNL     1       1.707   4.770  20.648  0.00  0.00    +0.000 C 
BRANCH   3   5
ATOM      4  N   UNL     1       1.368   7.117  21.171  0.00  0.00    +0.000 N 
ATOM      5  C   UNL     1       2.131   6.218  20.460  0.00  0.00    +0.000 C 
ATOM      6  O   UNL     1       3.073   6.554  19.748  0.00  0.00    +0.000 OA
ATOM      7  H   UNL     1       0.561   6.786  21.685  0.00  0.00    +0.000 HD
BRANCH   4   9
ATOM      8  C   UNL     1       1.387   9.202  22.511  0.00  0.00    +0.000 C 
ATOM      9  C   UNL     1       1.618   8.557  21.141  0.00  0.00    +0.000 C 
BRANCH   9  10
ATOM     10  C   UNL     1       0.765   9.215  20.071  0.00  0.00    +0.000 A 
ATOM     11  C   UNL     1       1.180   9.192  18.730  0.00  0.00    +0.000 A 
ATOM     12  C   UNL     1       0.397   9.772  17.729  0.00  0.00    +0.000 A 
ATOM     13  C   UNL     1      -0.812  10.383  18.056  0.00  0.00    +0.000 A 
ATOM     14  C   UNL     1      -1.233  10.426  19.382  0.00  0.00    +0.000 A 
ATOM     15  C   UNL     1      -0.449   9.850  20.384  0.00  0.00    +0.000 A 
ENDBRANCH   9  10
ENDBRANCH   4   9
ENDBRANCH   3   5
ENDBRANCH   2   3
ENDBRANCH   1   2
BRANCH   1  16
ATOM     16  C   UNL     1       2.231   2.144  17.711  0.00  0.00    +0.000 C 
BRANCH  16  17
ATOM     17  C   UNL     1       3.740   2.362  17.836  0.00  0.00    +0.000 C 
BRANCH  17  18
ATOM     18  C   UNL     1       4.169   3.701  17.251  0.00  0.00    +0.000 C 
ATOM     19  O   UNL     1       3.416   4.666  17.174  0.00  0.00    +0.000 OA
ATOM     20  N   UNL     1       5.491   3.736  16.849  0.00  0.00    +0.000 N 
ATOM     21  H   UNL     1       5.978   2.856  16.738  0.00  0.00    +0.000 HD
BRANCH  20  22
ATOM     22  C   UNL     1       6.070   4.915  16.207  0.00  0.00    +0.000 C 
ATOM     23  C   UNL     1       7.325   5.377  16.949  0.00  0.00    +0.000 C 
BRANCH  22  24
ATOM     24  C   UNL     1       6.374   4.646  14.743  0.00  0.00    +0.000 A 
ATOM     25  C   UNL     1       5.603   3.722  14.019  0.00  0.00    +0.000 A 
ATOM     26  C   UNL     1       5.909   3.425  12.689  0.00  0.00    +0.000 A 
ATOM     27  C   UNL     1       6.986   4.050  12.064  0.00  0.00    +0.000 A 
ATOM     28  C   UNL     1       7.739   4.994  12.757  0.00  0.00    +0.000 A 
ATOM     29  C   UNL     1       7.431   5.297  14.085  0.00  0.00    +0.000 A 
ENDBRANCH  22  24
ENDBRANCH  20  22
ENDBRANCH  17  18
ENDBRANCH  16  17
ENDBRANCH   1  16
TORSDOF 10
ENDMDL
MODEL 8
REMARK VINA RESULT:      -6.7      1.892      3.109
REMARK  Name = 
REMARK  12 active torsions:
REMARK  status: ('A' for Active; 'I' for Inactive)
REMARK    1  A    between atoms: C_1  and  C_2
REMARK    2  A    between atoms: C_2  and  N_3
REMARK    3  A    between atoms: C_2  and  C_22
REMARK    4  A    between atoms: C_4  and  C_6
REMARK    5  A    between atoms: C_6  and  C_7
REMARK    6  A    between atoms: C_7  and  S_8
REMARK    7  A    between atoms: S_8  and  C_9
REMARK    8  A    between atoms: C_9  and  C_10
REMARK    9  A    between atoms: C_10  and  C_11
REMARK   10  A    between atoms: N_13  and  C_14
REMARK   11  A    between atoms: C_14  and  C_15
REMARK   12  A    between atoms: C_14  and  C_16
REMARK                            x       y       z     vdW  Elec       q    Type
REMARK                         _______ _______ _______ _____ _____    ______ ____
ROOT
ATOM      1  S   UNL     1       1.307   4.004  19.863  0.00  0.00    +0.000 S 
ENDROOT
BRANCH   1   2
ATOM      2  C   UNL     1       2.985   3.326  19.563  0.00  0.00    +0.000 C 
BRANCH   2   3
ATOM      3  C   UNL     1       3.343   3.418  18.076  0.00  0.00    +0.000 C 
BRANCH   3   5
ATOM      4  N   UNL     1       5.060   4.302  16.604  0.00  0.00    +0.000 N 
ATOM      5  C   UNL     1       4.791   3.833  17.870  0.00  0.00    +0.000 C 
ATOM      6  O   UNL     1       5.640   3.767  18.754  0.00  0.00    +0.000 OA
ATOM      7  H   UNL     1       4.336   4.267  15.898  0.00  0.00    +0.000 HD
BRANCH   4   9
ATOM      8  C   UNL     1       6.615   6.231  16.587  0.00  0.00    +0.000 C 
ATOM      9  C   UNL     1       6.386   4.767  16.203  0.00  0.00    +0.000 C 
BRANCH   9  10
ATOM     10  C   UNL     1       6.590   4.550  14.713  0.00  0.00    +0.000 A 
ATOM     11  C   UNL     1       5.761   3.658  14.015  0.00  0.00    +0.000 A 
ATOM     12  C   UNL     1       5.918   3.463  12.640  0.00  0.00    +0.000 A 
ATOM     13  C   UNL     1       6.907   4.159  11.946  0.00  0.00    +0.000 A 
ATOM     14  C   UNL     1       7.745   5.038  12.626  0.00  0.00    +0.000 A 
ATOM     15  C   UNL     1       7.591   5.231  14.000  0.00  0.00    +0.000 A 
ENDBRANCH   9  10
ENDBRANCH   4   9
ENDBRANCH   3   5
ENDBRANCH   2   3
ENDBRANCH   1   2
BRANCH   1  16
ATOM     16  C   UNL     1       1.756   5.658  20.519  0.00  0.00    +0.000 C 
BRANCH  16  17
ATOM     17  C   UNL     1       2.795   6.327  19.617  0.00  0.00    +0.000 C 
BRANCH  17  18
ATOM     18  C   UNL     1       2.327   7.691  19.129  0.00  0.00    +0.000 C 
ATOM     19  O   UNL     1       2.706   8.188  18.075  0.00  0.00    +0.000 OA
ATOM     20  N   UNL     1       1.410   8.297  19.967  0.00  0.00    +0.000 N 
ATOM     21  H   UNL     1       1.315   7.939  20.908  0.00  0.00    +0.000 HD
BRANCH  20  22
ATOM     22  C   UNL     1       0.890   9.638  19.699  0.00  0.00    +0.000 C 
ATOM     23  C   UNL     1       0.043   9.648  18.426  0.00  0.00    +0.000 C 
BRANCH  22  24
ATOM     24  C   UNL     1       0.096  10.163  20.883  0.00  0.00    +0.000 A 
ATOM     25  C   UNL     1      -0.569  11.397  20.797  0.00  0.00    +0.000 A 
ATOM     26  C   UNL     1      -1.254  11.916  21.897  0.00  0.00    +0.000 A 
ATOM     27  C   UNL     1      -1.289  11.207  23.096  0.00  0.00    +0.000 A 
ATOM     28  C   UNL     1      -0.665   9.966  23.187  0.00  0.00    +0.000 A 
ATOM     29  C   UNL     1       0.016   9.443  22.086  0.00  0.00    +0.000 A 
ENDBRANCH  22  24
ENDBRANCH  20  22
ENDBRANCH  17  18
ENDBRANCH  16  17
ENDBRANCH   1  16
TORSDOF 10
ENDMDL
MODEL 9
REMARK VINA RESULT:      -6.6      2.005      7.474
REMARK  Name = 
REMARK  12 active torsions:
REMARK  status: ('A' for Active; 'I' for Inactive)
REMARK    1  A    between atoms: C_1  and  C_2
REMARK    2  A    between atoms: C_2  and  N_3
REMARK    3  A    between atoms: C_2  and  C_22
REMARK    4  A    between atoms: C_4  and  C_6
REMARK    5  A    between atoms: C_6  and  C_7
REMARK    6  A    between atoms: C_7  and  S_8
REMARK    7  A    between atoms: S_8  and  C_9
REMARK    8  A    between atoms: C_9  and  C_10
REMARK    9  A    between atoms: C_10  and  C_11
REMARK   10  A    between atoms: N_13  and  C_14
REMARK   11  A    between atoms: C_14  and  C_15
REMARK   12  A    between atoms: C_14  and  C_16
REMARK                            x       y       z     vdW  Elec       q    Type
REMARK                         _______ _______ _______ _____ _____    ______ ____
ROOT
ATOM      1  S   UNL     1       1.397   4.365  19.985  0.00  0.00    +0.000 S 
ENDROOT
BRANCH   1   2
ATOM      2  C   UNL     1       1.648   5.856  21.026  0.00  0.00    +0.000 C 
BRANCH   2   3
ATOM      3  C   UNL     1       2.089   7.043  20.164  0.00  0.00    +0.000 C 
BRANCH   3   5
ATOM      4  N   UNL     1       0.821   9.054  19.667  0.00  0.00    +0.000 N 
ATOM      5  C   UNL     1       1.479   8.348  20.649  0.00  0.00    +0.000 C 
ATOM      6  O   UNL     1       1.555   8.733  21.813  0.00  0.00    +0.000 OA
ATOM      7  H   UNL     1       0.851   8.720  18.712  0.00  0.00    +0.000 HD
BRANCH   4   9
ATOM      8  C   UNL     1      -1.149  10.458  19.129  0.00  0.00    +0.000 C 
ATOM      9  C   UNL     1       0.151  10.327  19.927  0.00  0.00    +0.000 C 
BRANCH   9  10
ATOM     10  C   UNL     1       1.093  11.483  19.639  0.00  0.00    +0.000 A 
ATOM     11  C   UNL     1       1.406  12.401  20.654  0.00  0.00    +0.000 A 
ATOM     12  C   UNL     1       2.288  13.458  20.415  0.00  0.00    +0.000 A 
ATOM     13  C   UNL     1       2.870  13.610  19.157  0.00  0.00    +0.000 A 
ATOM     14  C   UNL     1       2.561  12.714  18.137  0.00  0.00    +0.000 A 
ATOM     15  C   UNL     1       1.677  11.660  18.374  0.00  0.00    +0.000 A 
ENDBRANCH   9  10
ENDBRANCH   4   9
ENDBRANCH   3   5
ENDBRANCH   2   3
ENDBRANCH   1   2
BRANCH   1  16
ATOM     16  C   UNL     1       1.969   5.018  18.368  0.00  0.00    +0.000 C 
BRANCH  16  17
ATOM     17  C   UNL     1       2.260   3.869  17.401  0.00  0.00    +0.000 C 
BRANCH  17  18
ATOM     18  C   UNL     1       3.745   3.535  17.350  0.00  0.00    +0.000 C 
ATOM     19  O   UNL     1       4.255   2.661  18.042  0.00  0.00    +0.000 OA
ATOM     20  N   UNL     1       4.453   4.284  16.429  0.00  0.00    +0.000 N 
ATOM     21  H   UNL     1       4.020   5.122  16.063  0.00  0.00    +0.000 HD
BRANCH  20  22
ATOM     22  C   UNL     1       5.902   4.150  16.279  0.00  0.00    +0.000 C 
ATOM     23  C   UNL     1       6.309   4.270  14.809  0.00  0.00    +0.000 C 
BRANCH  22  24
ATOM     24  C   UNL     1       6.637   5.173  17.129  0.00  0.00    +0.000 A 
ATOM     25  C   UNL     1       6.776   6.496  16.681  0.00  0.00    +0.000 A 
ATOM     26  C   UNL     1       7.498   7.429  17.428  0.00  0.00    +0.000 A 
ATOM     27  C   UNL     1       8.085   7.055  18.634  0.00  0.00    +0.000 A 
ATOM     28  C   UNL     1       7.926   5.755  19.110  0.00  0.00    +0.000 A 
ATOM     29  C   UNL     1       7.200   4.822  18.367  0.00  0.00    +0.000 A 
ENDBRANCH  22  24
ENDBRANCH  20  22
ENDBRANCH  17  18
ENDBRANCH  16  17
ENDBRANCH   1  16
TORSDOF 10
ENDMDL
