MODEL 1
REMARK VINA RESULT:      -6.5      0.000      0.000
REMARK  Name = 
REMARK  11 active torsions:
REMARK  status: ('A' for Active; 'I' for Inactive)
REMARK    1  A    between atoms: C_1  and  C_2
REMARK    2  A    between atoms: C_5  and  C_6
REMARK    3  A    between atoms: C_7  and  C_8
REMARK    4  A    between atoms: C_8  and  O_9
REMARK    5  A    between atoms: C_8  and  C_14
REMARK    6  A    between atoms: O_9  and  C_10
REMARK    7  A    between atoms: C_10  and  C_11
REMARK    8  A    between atoms: C_10  and  C_12
REMARK    9  A    between atoms: C_10  and  C_13
REMARK   10  A    between atoms: C_14  and  O_16
REMARK   11  A    between atoms: C_17  and  C_18
REMARK                            x       y       z     vdW  Elec       q    Type
REMARK                         _______ _______ _______ _____ _____    ______ ____
ROOT
ATOM      1  C   UNL     1      -2.186  12.330  20.033  0.00  0.00    +0.000 A 
ATOM      2  C   UNL     1      -0.942  11.656  19.663  0.00  0.00    +0.000 A 
ATOM      3  C   UNL     1      -0.922  10.902  18.486  0.00  0.00    +0.000 A 
ATOM      4  C   UNL     1       0.183   9.965  18.059  0.00  0.00    +0.000 C 
ATOM      5  N   UNL     1      -1.939  10.834  17.631  0.00  0.00    +0.000 NA
ATOM      6  C   UNL     1      -3.084  11.415  17.997  0.00  0.00    +0.000 A 
ATOM      7  S   UNL     1      -4.434  11.186  16.991  0.00  0.00    +0.000 S 
ATOM      8  C   UNL     1      -5.463  11.960  18.090  0.00  0.00    +0.000 A 
ATOM      9  C   UNL     1      -4.788  12.491  19.174  0.00  0.00    +0.000 A 
ATOM     10  C   UNL     1      -3.334  12.148  19.151  0.00  0.00    +0.000 A 
ATOM     11  C   UNL     1      -5.554  13.208  20.230  0.00  0.00    +0.000 C 
ATOM     12  C   UNL     1      -7.065  13.325  20.081  0.00  0.00    +0.000 C 
ATOM     13  C   UNL     1      -7.753  12.759  18.853  0.00  0.00    +0.000 C 
ATOM     14  C   UNL     1      -6.933  11.961  17.841  0.00  0.00    +0.000 C 
ENDROOT
BRANCH   1  19
ATOM     15  C   UNL     1      -2.103  15.240  25.050  0.00  0.00    +0.000 C 
ATOM     16  C   UNL     1      -2.348  14.492  23.773  0.00  0.00    +0.000 A 
ATOM     17  C   UNL     1      -2.970  13.253  23.739  0.00  0.00    +0.000 A 
ATOM     18  C   UNL     1      -2.956  12.505  22.539  0.00  0.00    +0.000 A 
ATOM     19  C   UNL     1      -2.387  13.024  21.363  0.00  0.00    +0.000 A 
ATOM     20  C   UNL     1      -2.031  14.361  21.493  0.00  0.00    +0.000 A 
ATOM     21  N   UNL     1      -1.908  15.068  22.644  0.00  0.00    +0.000 NA
ENDBRANCH   1  19
BRANCH   2  22
ATOM     22  C   UNL     1       0.219  11.687  20.647  0.00  0.00    +0.000 C 
BRANCH  22  23
ATOM     23  C   UNL     1       1.263  12.804  20.777  0.00  0.00    +0.000 C 
ATOM     24  O   UNL     1       1.431  13.571  21.707  0.00  0.00    +0.000 OA
BRANCH  23  25
ATOM     25  O   UNL     1       2.133  12.779  19.721  0.00  0.00    +0.000 OA
ATOM     26  H   UNL     1       1.760  12.242  18.987  0.00  0.00    +0.000 HD
ENDBRANCH  23  25
ENDBRANCH  22  23
BRANCH  22  27
ATOM     27  O   UNL     1       0.748  10.386  20.927  0.00  0.00    +0.000 OA
BRANCH  27  28
ATOM     28  C   UNL     1       0.292   9.550  22.006  0.00  0.00    +0.000 C 
ATOM     29  C   UNL     1      -0.481   8.345  21.470  0.00  0.00    +0.000 C 
ATOM     30  C   UNL     1       1.602   9.068  22.651  0.00  0.00    +0.000 C 
ATOM     31  C   UNL     1      -0.513  10.252  23.099  0.00  0.00    +0.000 C 
ENDBRANCH  27  28
ENDBRANCH  22  27
ENDBRANCH   2  22
TORSDOF 6
ENDMDL
MODEL 2
REMARK VINA RESULT:      -6.3      0.976      2.400
REMARK  Name = 
REMARK  11 active torsions:
REMARK  status: ('A' for Active; 'I' for Inactive)
REMARK    1  A    between atoms: C_1  and  C_2
REMARK    2  A    between atoms: C_5  and  C_6
REMARK    3  A    between atoms: C_7  and  C_8
REMARK    4  A    between atoms: C_8  and  O_9
REMARK    5  A    between atoms: C_8  and  C_14
REMARK    6  A    between atoms: O_9  and  C_10
REMARK    7  A    between atoms: C_10  and  C_11
REMARK    8  A    between atoms: C_10  and  C_12
REMARK    9  A    between atoms: C_10  and  C_13
REMARK   10  A    between atoms: C_14  and  O_16
REMARK   11  A    between atoms: C_17  and  C_18
REMARK                            x       y       z     vdW  Elec       q    Type
REMARK                         _______ _______ _______ _____ _____    ______ ____
ROOT
ATOM      1  C   UNL     1      -2.332  12.335  20.376  0.00  0.00    +0.000 A 
ATOM      2  C   UNL     1      -1.056  11.680  20.087  0.00  0.00    +0.000 A 
ATOM      3  C   UNL     1      -0.922  10.997  18.876  0.00  0.00    +0.000 A 
ATOM      4  C   UNL     1       0.221  10.083  18.501  0.00  0.00    +0.000 C 
ATOM      5  N   UNL     1      -1.852  10.983  17.924  0.00  0.00    +0.000 NA
ATOM      6  C   UNL     1      -3.029  11.544  18.213  0.00  0.00    +0.000 A 
ATOM      7  S   UNL     1      -4.276  11.380  17.071  0.00  0.00    +0.000 S 
ATOM      8  C   UNL     1      -5.407  12.090  18.110  0.00  0.00    +0.000 A 
ATOM      9  C   UNL     1      -4.840  12.554  19.283  0.00  0.00    +0.000 A 
ATOM     10  C   UNL     1      -3.389  12.209  19.379  0.00  0.00    +0.000 A 
ATOM     11  C   UNL     1      -5.705  13.211  20.302  0.00  0.00    +0.000 C 
ATOM     12  C   UNL     1      -7.196  13.341  20.016  0.00  0.00    +0.000 C 
ATOM     13  C   UNL     1      -7.762  12.850  18.696  0.00  0.00    +0.000 C 
ATOM     14  C   UNL     1      -6.846  12.111  17.722  0.00  0.00    +0.000 C 
ENDROOT
BRANCH   1  19
ATOM     15  C   UNL     1      -2.781  15.062  25.476  0.00  0.00    +0.000 C 
ATOM     16  C   UNL     1      -2.888  14.329  24.171  0.00  0.00    +0.000 A 
ATOM     17  C   UNL     1      -3.327  13.016  24.083  0.00  0.00    +0.000 A 
ATOM     18  C   UNL     1      -3.179  12.318  22.863  0.00  0.00    +0.000 A 
ATOM     19  C   UNL     1      -2.660  12.950  21.719  0.00  0.00    +0.000 A 
ATOM     20  C   UNL     1      -2.500  14.318  21.898  0.00  0.00    +0.000 A 
ATOM     21  N   UNL     1      -2.506  14.998  23.073  0.00  0.00    +0.000 NA
ENDBRANCH   1  19
BRANCH   2  22
ATOM     22  C   UNL     1       0.005  11.650  21.178  0.00  0.00    +0.000 C 
BRANCH  22  23
ATOM     23  C   UNL     1       0.143  10.586  22.275  0.00  0.00    +0.000 C 
ATOM     24  O   UNL     1      -0.368  10.574  23.379  0.00  0.00    +0.000 OA
BRANCH  23  25
ATOM     25  O   UNL     1       0.853   9.509  21.818  0.00  0.00    +0.000 OA
ATOM     26  H   UNL     1       0.263   8.728  21.724  0.00  0.00    +0.000 HD
ENDBRANCH  23  25
ENDBRANCH  22  23
BRANCH  22  27
ATOM     27  O   UNL     1       0.399  12.958  21.611  0.00  0.00    +0.000 OA
BRANCH  27  28
ATOM     28  C   UNL     1       1.231  13.841  20.837  0.00  0.00    +0.000 C 
ATOM     29  C   UNL     1       2.018  14.782  21.748  0.00  0.00    +0.000 C 
ATOM     30  C   UNL     1       2.204  12.877  20.138  0.00  0.00    +0.000 C 
ATOM     31  C   UNL     1       0.523  14.634  19.740  0.00  0.00    +0.000 C 
ENDBRANCH  27  28
ENDBRANCH  22  27
ENDBRANCH   2  22
TORSDOF 6
ENDMDL
MODEL 3
REMARK VINA RESULT:      -6.3      1.137      2.566
REMARK  Name = 
REMARK  11 active torsions:
REMARK  status: ('A' for Active; 'I' for Inactive)
REMARK    1  A    between atoms: C_1  and  C_2
REMARK    2  A    between atoms: C_5  and  C_6
REMARK    3  A    between atoms: C_7  and  C_8
REMARK    4  A    between atoms: C_8  and  O_9
REMARK    5  A    between atoms: C_8  and  C_14
REMARK    6  A    between atoms: O_9  and  C_10
REMARK    7  A    between atoms: C_10  and  C_11
REMARK    8  A    between atoms: C_10  and  C_12
REMARK    9  A    between atoms: C_10  and  C_13
REMARK   10  A    between atoms: C_14  and  O_16
REMARK   11  A    between atoms: C_17  and  C_18
REMARK                            x       y       z     vdW  Elec       q    Type
REMARK                         _______ _______ _______ _____ _____    ______ ____
ROOT
ATOM      1  C   UNL     1      -1.981  12.113  19.938  0.00  0.00    +0.000 A 
ATOM      2  C   UNL     1      -0.783  11.380  19.529  0.00  0.00    +0.000 A 
ATOM      3  C   UNL     1      -0.843  10.612  18.363  0.00  0.00    +0.000 A 
ATOM      4  C   UNL     1       0.202   9.621  17.905  0.00  0.00    +0.000 C 
ATOM      5  N   UNL     1      -1.895  10.580  17.548  0.00  0.00    +0.000 NA
ATOM      6  C   UNL     1      -2.998  11.215  17.950  0.00  0.00    +0.000 A 
ATOM      7  S   UNL     1      -4.395  11.036  17.000  0.00  0.00    +0.000 S 
ATOM      8  C   UNL     1      -5.344  11.868  18.128  0.00  0.00    +0.000 A 
ATOM      9  C   UNL     1      -4.605  12.380  19.177  0.00  0.00    +0.000 A 
ATOM     10  C   UNL     1      -3.169  11.972  19.103  0.00  0.00    +0.000 A 
ATOM     11  C   UNL     1      -5.296  13.144  20.253  0.00  0.00    +0.000 C 
ATOM     12  C   UNL     1      -6.806  13.326  20.161  0.00  0.00    +0.000 C 
ATOM     13  C   UNL     1      -7.565  12.777  18.967  0.00  0.00    +0.000 C 
ATOM     14  C   UNL     1      -6.821  11.932  17.935  0.00  0.00    +0.000 C 
ENDROOT
BRANCH   1  19
ATOM     15  C   UNL     1      -3.258  14.530  25.053  0.00  0.00    +0.000 C 
ATOM     16  C   UNL     1      -2.713  13.952  23.781  0.00  0.00    +0.000 A 
ATOM     17  C   UNL     1      -2.040  14.716  22.839  0.00  0.00    +0.000 A 
ATOM     18  C   UNL     1      -1.765  14.162  21.567  0.00  0.00    +0.000 A 
ATOM     19  C   UNL     1      -2.098  12.830  21.265  0.00  0.00    +0.000 A 
ATOM     20  C   UNL     1      -2.536  12.128  22.381  0.00  0.00    +0.000 A 
ATOM     21  N   UNL     1      -2.933  12.645  23.571  0.00  0.00    +0.000 NA
ENDBRANCH   1  19
BRANCH   2  22
ATOM     22  C   UNL     1       0.416  11.370  20.467  0.00  0.00    +0.000 C 
BRANCH  22  23
ATOM     23  C   UNL     1       0.631  10.415  21.648  0.00  0.00    +0.000 C 
ATOM     24  O   UNL     1       0.325  10.582  22.814  0.00  0.00    +0.000 OA
BRANCH  23  25
ATOM     25  O   UNL     1       1.128   9.215  21.216  0.00  0.00    +0.000 OA
ATOM     26  H   UNL     1       1.928   9.359  20.663  0.00  0.00    +0.000 HD
ENDBRANCH  23  25
ENDBRANCH  22  23
BRANCH  22  27
ATOM     27  O   UNL     1       0.957  12.677  20.695  0.00  0.00    +0.000 OA
BRANCH  27  28
ATOM     28  C   UNL     1       1.747  13.396  19.731  0.00  0.00    +0.000 C 
ATOM     29  C   UNL     1       0.965  14.579  19.161  0.00  0.00    +0.000 C 
ATOM     30  C   UNL     1       2.924  13.921  20.569  0.00  0.00    +0.000 C 
ATOM     31  C   UNL     1       2.342  12.559  18.599  0.00  0.00    +0.000 C 
ENDBRANCH  27  28
ENDBRANCH  22  27
ENDBRANCH   2  22
TORSDOF 6
ENDMDL
MODEL 4
REMARK VINA RESULT:      -6.2      0.910      2.362
REMARK  Name = 
REMARK  11 active torsions:
REMARK  status: ('A' for Active; 'I' for Inactive)
REMARK    1  A    between atoms: C_1  and  C_2
REMARK    2  A    between atoms: C_5  and  C_6
REMARK    3  A    between atoms: C_7  and  C_8
REMARK    4  A    between atoms: C_8  and  O_9
REMARK    5  A    between atoms: C_8  and  C_14
REMARK    6  A    between atoms: O_9  and  C_10
REMARK    7  A    between atoms: C_10  and  C_11
REMARK    8  A    between atoms: C_10  and  C_12
REMARK    9  A    between atoms: C_10  and  C_13
REMARK   10  A    between atoms: C_14  and  O_16
REMARK   11  A    between atoms: C_17  and  C_18
REMARK                            x       y       z     vdW  Elec       q    Type
REMARK                         _______ _______ _______ _____ _____    ______ ____
ROOT
ATOM      1  C   UNL     1      -2.063  12.177  19.957  0.00  0.00    +0.000 A 
ATOM      2  C   UNL     1      -0.846  11.470  19.560  0.00  0.00    +0.000 A 
ATOM      3  C   UNL     1      -0.869  10.729  18.375  0.00  0.00    +0.000 A 
ATOM      4  C   UNL     1       0.200   9.763  17.919  0.00  0.00    +0.000 C 
ATOM      5  N   UNL     1      -1.901  10.702  17.535  0.00  0.00    +0.000 NA
ATOM      6  C   UNL     1      -3.022  11.313  17.927  0.00  0.00    +0.000 A 
ATOM      7  S   UNL     1      -4.394  11.137  16.941  0.00  0.00    +0.000 S 
ATOM      8  C   UNL     1      -5.380  11.930  18.065  0.00  0.00    +0.000 A 
ATOM      9  C   UNL     1      -4.672  12.428  19.143  0.00  0.00    +0.000 A 
ATOM     10  C   UNL     1      -3.230  12.041  19.092  0.00  0.00    +0.000 A 
ATOM     11  C   UNL     1      -5.398  13.156  20.219  0.00  0.00    +0.000 C 
ATOM     12  C   UNL     1      -6.908  13.321  20.096  0.00  0.00    +0.000 C 
ATOM     13  C   UNL     1      -7.632  12.790  18.873  0.00  0.00    +0.000 C 
ATOM     14  C   UNL     1      -6.853  11.979  17.839  0.00  0.00    +0.000 C 
ENDROOT
BRANCH   1  19
ATOM     15  C   UNL     1      -1.851  15.128  24.946  0.00  0.00    +0.000 C 
ATOM     16  C   UNL     1      -2.127  14.350  23.694  0.00  0.00    +0.000 A 
ATOM     17  C   UNL     1      -2.633  13.059  23.712  0.00  0.00    +0.000 A 
ATOM     18  C   UNL     1      -2.645  12.304  22.516  0.00  0.00    +0.000 A 
ATOM     19  C   UNL     1      -2.221  12.862  21.298  0.00  0.00    +0.000 A 
ATOM     20  C   UNL     1      -1.979  14.227  21.396  0.00  0.00    +0.000 A 
ATOM     21  N   UNL     1      -1.831  14.953  22.533  0.00  0.00    +0.000 NA
ENDBRANCH   1  19
BRANCH   2  22
ATOM     22  C   UNL     1       0.331  11.454  20.525  0.00  0.00    +0.000 C 
BRANCH  22  23
ATOM     23  C   UNL     1       0.546  10.457  21.671  0.00  0.00    +0.000 C 
ATOM     24  O   UNL     1       0.247  10.584  22.844  0.00  0.00    +0.000 OA
BRANCH  23  25
ATOM     25  O   UNL     1       1.036   9.271  21.195  0.00  0.00    +0.000 OA
ATOM     26  H   UNL     1       0.384   8.854  20.589  0.00  0.00    +0.000 HD
ENDBRANCH  23  25
ENDBRANCH  22  23
BRANCH  22  27
ATOM     27  O   UNL     1       0.829  12.765  20.819  0.00  0.00    +0.000 OA
BRANCH  27  28
ATOM     28  C   UNL     1       1.838  13.432  20.040  0.00  0.00    +0.000 C 
ATOM     29  C   UNL     1       2.290  12.557  18.872  0.00  0.00    +0.000 C 
ATOM     30  C   UNL     1       1.099  14.666  19.497  0.00  0.00    +0.000 C 
ATOM     31  C   UNL     1       3.050  13.944  20.818  0.00  0.00    +0.000 C 
ENDBRANCH  27  28
ENDBRANCH  22  27
ENDBRANCH   2  22
TORSDOF 6
ENDMDL
MODEL 5
REMARK VINA RESULT:      -6.2      0.604      1.080
REMARK  Name = 
REMARK  11 active torsions:
REMARK  status: ('A' for Active; 'I' for Inactive)
REMARK    1  A    between atoms: C_1  and  C_2
REMARK    2  A    between atoms: C_5  and  C_6
REMARK    3  A    between atoms: C_7  and  C_8
REMARK    4  A    between atoms: C_8  and  O_9
REMARK    5  A    between atoms: C_8  and  C_14
REMARK    6  A    between atoms: O_9  and  C_10
REMARK    7  A    between atoms: C_10  and  C_11
REMARK    8  A    between atoms: C_10  and  C_12
REMARK    9  A    between atoms: C_10  and  C_13
REMARK   10  A    between atoms: C_14  and  O_16
REMARK   11  A    between atoms: C_17  and  C_18
REMARK                            x       y       z     vdW  Elec       q    Type
REMARK                         _______ _______ _______ _____ _____    ______ ____
ROOT
ATOM      1  C   UNL     1      -2.102  12.314  19.922  0.00  0.00    +0.000 A 
ATOM      2  C   UNL     1      -0.885  11.595  19.546  0.00  0.00    +0.000 A 
ATOM      3  C   UNL     1      -0.924  10.775  18.415  0.00  0.00    +0.000 A 
ATOM      4  C   UNL     1       0.146   9.792  18.002  0.00  0.00    +0.000 C 
ATOM      5  N   UNL     1      -1.973  10.680  17.602  0.00  0.00    +0.000 NA
ATOM      6  C   UNL     1      -3.093  11.304  17.975  0.00  0.00    +0.000 A 
ATOM      7  S   UNL     1      -4.483  11.047  17.034  0.00  0.00    +0.000 S 
ATOM      8  C   UNL     1      -5.455  11.904  18.124  0.00  0.00    +0.000 A 
ATOM      9  C   UNL     1      -4.731  12.481  19.150  0.00  0.00    +0.000 A 
ATOM     10  C   UNL     1      -3.285  12.107  19.094  0.00  0.00    +0.000 A 
ATOM     11  C   UNL     1      -5.442  13.273  20.190  0.00  0.00    +0.000 C 
ATOM     12  C   UNL     1      -6.956  13.413  20.090  0.00  0.00    +0.000 C 
ATOM     13  C   UNL     1      -7.700  12.793  18.922  0.00  0.00    +0.000 C 
ATOM     14  C   UNL     1      -6.933  11.922  17.928  0.00  0.00    +0.000 C 
ENDROOT
BRANCH   1  19
ATOM     15  C   UNL     1      -3.471  14.982  24.887  0.00  0.00    +0.000 C 
ATOM     16  C   UNL     1      -2.903  14.331  23.661  0.00  0.00    +0.000 A 
ATOM     17  C   UNL     1      -2.155  15.026  22.722  0.00  0.00    +0.000 A 
ATOM     18  C   UNL     1      -1.855  14.412  21.484  0.00  0.00    +0.000 A 
ATOM     19  C   UNL     1      -2.239  13.087  21.216  0.00  0.00    +0.000 A 
ATOM     20  C   UNL     1      -2.757  12.449  22.336  0.00  0.00    +0.000 A 
ATOM     21  N   UNL     1      -3.177  13.029  23.489  0.00  0.00    +0.000 NA
ENDBRANCH   1  19
BRANCH   2  22
ATOM     22  C   UNL     1       0.312  11.657  20.484  0.00  0.00    +0.000 C 
BRANCH  22  23
ATOM     23  C   UNL     1       1.398  12.741  20.491  0.00  0.00    +0.000 C 
ATOM     24  O   UNL     1       2.113  13.094  19.572  0.00  0.00    +0.000 OA
BRANCH  23  25
ATOM     25  O   UNL     1       1.409  13.408  21.686  0.00  0.00    +0.000 OA
ATOM     26  H   UNL     1       2.253  13.903  21.790  0.00  0.00    +0.000 HD
ENDBRANCH  23  25
ENDBRANCH  22  23
BRANCH  22  27
ATOM     27  O   UNL     1       0.807  10.362  20.845  0.00  0.00    +0.000 OA
BRANCH  27  28
ATOM     28  C   UNL     1       0.310   9.596  21.957  0.00  0.00    +0.000 C 
ATOM     29  C   UNL     1      -0.519   8.408  21.472  0.00  0.00    +0.000 C 
ATOM     30  C   UNL     1       1.596   9.081  22.625  0.00  0.00    +0.000 C 
ATOM     31  C   UNL     1      -0.460  10.382  23.017  0.00  0.00    +0.000 C 
ENDBRANCH  27  28
ENDBRANCH  22  27
ENDBRANCH   2  22
TORSDOF 6
ENDMDL
MODEL 6
REMARK VINA RESULT:      -6.2      1.973      4.537
REMARK  Name = 
REMARK  11 active torsions:
REMARK  status: ('A' for Active; 'I' for Inactive)
REMARK    1  A    between atoms: C_1  and  C_2
REMARK    2  A    between atoms: C_5  and  C_6
REMARK    3  A    between atoms: C_7  and  C_8
REMARK    4  A    between atoms: C_8  and  O_9
REMARK    5  A    between atoms: C_8  and  C_14
REMARK    6  A    between atoms: O_9  and  C_10
REMARK    7  A    between atoms: C_10  and  C_11
REMARK    8  A    between atoms: C_10  and  C_12
REMARK    9  A    between atoms: C_10  and  C_13
REMARK   10  A    between atoms: C_14  and  O_16
REMARK   11  A    between atoms: C_17  and  C_18
REMARK                            x       y       z     vdW  Elec       q    Type
REMARK                         _______ _______ _______ _____ _____    ______ ____
ROOT
ATOM      1  C   UNL     1      -2.606  11.759  19.486  0.00  0.00    +0.000 A 
ATOM      2  C   UNL     1      -1.412  11.932  20.312  0.00  0.00    +0.000 A 
ATOM      3  C   UNL     1      -1.507  12.731  21.454  0.00  0.00    +0.000 A 
ATOM      4  C   UNL     1      -0.346  13.205  22.298  0.00  0.00    +0.000 C 
ATOM      5  N   UNL     1      -2.642  13.272  21.890  0.00  0.00    +0.000 NA
ATOM      6  C   UNL     1      -3.717  13.147  21.107  0.00  0.00    +0.000 A 
ATOM      7  S   UNL     1      -5.123  13.979  21.571  0.00  0.00    +0.000 S 
ATOM      8  C   UNL     1      -5.920  13.559  20.138  0.00  0.00    +0.000 A 
ATOM      9  C   UNL     1      -5.179  12.705  19.343  0.00  0.00    +0.000 A 
ATOM     10  C   UNL     1      -3.816  12.458  19.905  0.00  0.00    +0.000 A 
ATOM     11  C   UNL     1      -5.745  12.239  18.047  0.00  0.00    +0.000 C 
ATOM     12  C   UNL     1      -7.127  12.732  17.637  0.00  0.00    +0.000 C 
ATOM     13  C   UNL     1      -7.915  13.639  18.564  0.00  0.00    +0.000 C 
ATOM     14  C   UNL     1      -7.255  14.152  19.842  0.00  0.00    +0.000 C 
ENDROOT
BRANCH   1  19
ATOM     15  C   UNL     1      -3.044   9.792  14.047  0.00  0.00    +0.000 C 
ATOM     16  C   UNL     1      -2.761  10.155  15.474  0.00  0.00    +0.000 A 
ATOM     17  C   UNL     1      -2.885   9.248  16.516  0.00  0.00    +0.000 A 
ATOM     18  C   UNL     1      -2.833   9.716  17.850  0.00  0.00    +0.000 A 
ATOM     19  C   UNL     1      -2.587  11.069  18.139  0.00  0.00    +0.000 A 
ATOM     20  C   UNL     1      -2.240  11.798  17.007  0.00  0.00    +0.000 A 
ATOM     21  N   UNL     1      -2.403  11.426  15.712  0.00  0.00    +0.000 NA
ENDBRANCH   1  19
BRANCH   2  22
ATOM     22  C   UNL     1      -0.094  11.356  19.810  0.00  0.00    +0.000 C 
BRANCH  22  23
ATOM     23  C   UNL     1       0.790  11.952  18.708  0.00  0.00    +0.000 C 
ATOM     24  O   UNL     1       0.967  13.126  18.440  0.00  0.00    +0.000 OA
BRANCH  23  25
ATOM     25  O   UNL     1       1.510  10.972  18.081  0.00  0.00    +0.000 OA
ATOM     26  H   UNL     1       2.122  10.540  18.719  0.00  0.00    +0.000 HD
ENDBRANCH  23  25
ENDBRANCH  22  23
BRANCH  22  27
ATOM     27  O   UNL     1      -0.062   9.924  19.846  0.00  0.00    +0.000 OA
BRANCH  27  28
ATOM     28  C   UNL     1       0.466   9.162  20.947  0.00  0.00    +0.000 C 
ATOM     29  C   UNL     1      -0.636   8.344  21.619  0.00  0.00    +0.000 C 
ATOM     30  C   UNL     1       1.463   8.210  20.264  0.00  0.00    +0.000 C 
ATOM     31  C   UNL     1       1.250   9.955  21.992  0.00  0.00    +0.000 C 
ENDBRANCH  27  28
ENDBRANCH  22  27
ENDBRANCH   2  22
TORSDOF 6
ENDMDL
MODEL 7
REMARK VINA RESULT:      -5.9      1.142      2.600
REMARK  Name = 
REMARK  11 active torsions:
REMARK  status: ('A' for Active; 'I' for Inactive)
REMARK    1  A    between atoms: C_1  and  C_2
REMARK    2  A    between atoms: C_5  and  C_6
REMARK    3  A    between atoms: C_7  and  C_8
REMARK    4  A    between atoms: C_8  and  O_9
REMARK    5  A    between atoms: C_8  and  C_14
REMARK    6  A    between atoms: O_9  and  C_10
REMARK    7  A    between atoms: C_10  and  C_11
REMARK    8  A    between atoms: C_10  and  C_12
REMARK    9  A    between atoms: C_10  and  C_13
REMARK   10  A    between atoms: C_14  and  O_16
REMARK   11  A    between atoms: C_17  and  C_18
REMARK                            x       y       z     vdW  Elec       q    Type
REMARK                         _______ _______ _______ _____ _____    ______ ____
ROOT
ATOM      1  C   UNL     1      -2.323  12.297  20.046  0.00  0.00    +0.000 A 
ATOM      2  C   UNL     1      -1.217  11.480  19.550  0.00  0.00    +0.000 A 
ATOM      3  C   UNL     1      -1.411  10.742  18.379  0.00  0.00    +0.000 A 
ATOM      4  C   UNL     1      -0.480   9.681  17.841  0.00  0.00    +0.000 C 
ATOM      5  N   UNL     1      -2.512  10.808  17.634  0.00  0.00    +0.000 NA
ATOM      6  C   UNL     1      -3.533  11.520  18.117  0.00  0.00    +0.000 A 
ATOM      7  S   UNL     1      -4.998  11.470  17.257  0.00  0.00    +0.000 S 
ATOM      8  C   UNL     1      -5.804  12.352  18.456  0.00  0.00    +0.000 A 
ATOM      9  C   UNL     1      -4.961  12.784  19.462  0.00  0.00    +0.000 A 
ATOM     10  C   UNL     1      -3.570  12.266  19.289  0.00  0.00    +0.000 A 
ATOM     11  C   UNL     1      -5.519  13.579  20.591  0.00  0.00    +0.000 C 
ATOM     12  C   UNL     1      -7.012  13.881  20.600  0.00  0.00    +0.000 C 
ATOM     13  C   UNL     1      -7.888  13.417  19.451  0.00  0.00    +0.000 C 
ATOM     14  C   UNL     1      -7.281  12.536  18.361  0.00  0.00    +0.000 C 
ENDROOT
BRANCH   1  19
ATOM     15  C   UNL     1      -3.076  14.710  25.267  0.00  0.00    +0.000 C 
ATOM     16  C   UNL     1      -2.662  14.115  23.954  0.00  0.00    +0.000 A 
ATOM     17  C   UNL     1      -1.987  14.840  22.983  0.00  0.00    +0.000 A 
ATOM     18  C   UNL     1      -1.839  14.290  21.688  0.00  0.00    +0.000 A 
ATOM     19  C   UNL     1      -2.298  12.996  21.389  0.00  0.00    +0.000 A 
ATOM     20  C   UNL     1      -2.723  12.310  22.520  0.00  0.00    +0.000 A 
ATOM     21  N   UNL     1      -3.001  12.835  23.740  0.00  0.00    +0.000 NA
ENDBRANCH   1  19
BRANCH   2  22
ATOM     22  C   UNL     1       0.035  11.358  20.409  0.00  0.00    +0.000 C 
BRANCH  22  23
ATOM     23  C   UNL     1       0.294  10.294  21.482  0.00  0.00    +0.000 C 
ATOM     24  O   UNL     1       0.616   9.130  21.324  0.00  0.00    +0.000 OA
BRANCH  23  25
ATOM     25  O   UNL     1       0.242  10.845  22.734  0.00  0.00    +0.000 OA
ATOM     26  H   UNL     1       1.109  11.248  22.963  0.00  0.00    +0.000 HD
ENDBRANCH  23  25
ENDBRANCH  22  23
BRANCH  22  27
ATOM     27  O   UNL     1       0.624  12.627  20.720  0.00  0.00    +0.000 OA
BRANCH  27  28
ATOM     28  C   UNL     1       1.477  13.357  19.820  0.00  0.00    +0.000 C 
ATOM     29  C   UNL     1       2.665  13.960  20.567  0.00  0.00    +0.000 C 
ATOM     30  C   UNL     1       1.980  12.268  18.858  0.00  0.00    +0.000 C 
ATOM     31  C   UNL     1       0.789  14.423  18.968  0.00  0.00    +0.000 C 
ENDBRANCH  27  28
ENDBRANCH  22  27
ENDBRANCH   2  22
TORSDOF 6
ENDMDL
MODEL 8
REMARK VINA RESULT:      -5.9      1.922      2.465
REMARK  Name = 
REMARK  11 active torsions:
REMARK  status: ('A' for Active; 'I' for Inactive)
REMARK    1  A    between atoms: C_1  and  C_2
REMARK    2  A    between atoms: C_5  and  C_6
REMARK    3  A    between atoms: C_7  and  C_8
REMARK    4  A    between atoms: C_8  and  O_9
REMARK    5  A    between atoms: C_8  and  C_14
REMARK    6  A    between atoms: O_9  and  C_10
REMARK    7  A    between atoms: C_10  and  C_11
REMARK    8  A    between atoms: C_10  and  C_12
REMARK    9  A    between atoms: C_10  and  C_13
REMARK   10  A    between atoms: C_14  and  O_16
REMARK   11  A    between atoms: C_17  and  C_18
REMARK                            x       y       z     vdW  Elec       q    Type
REMARK                         _______ _______ _______ _____ _____    ______ ____
ROOT
ATOM      1  C   UNL     1      -2.974  12.662  20.038  0.00  0.00    +0.000 A 
ATOM      2  C   UNL     1      -2.229  12.094  18.915  0.00  0.00    +0.000 A 
ATOM      3  C   UNL     1      -2.917  11.284  18.007  0.00  0.00    +0.000 A 
ATOM      4  C   UNL     1      -2.285  10.437  16.927  0.00  0.00    +0.000 C 
ATOM      5  N   UNL     1      -4.230  11.073  18.047  0.00  0.00    +0.000 NA
ATOM      6  C   UNL     1      -4.894  11.557  19.099  0.00  0.00    +0.000 A 
ATOM      7  S   UNL     1      -6.536  11.146  19.245  0.00  0.00    +0.000 S 
ATOM      8  C   UNL     1      -6.647  11.873  20.770  0.00  0.00    +0.000 A 
ATOM      9  C   UNL     1      -5.485  12.523  21.140  0.00  0.00    +0.000 A 
ATOM     10  C   UNL     1      -4.389  12.323  20.143  0.00  0.00    +0.000 A 
ATOM     11  C   UNL     1      -5.424  13.218  22.455  0.00  0.00    +0.000 C 
ATOM     12  C   UNL     1      -6.652  13.179  23.356  0.00  0.00    +0.000 C 
ATOM     13  C   UNL     1      -7.916  12.485  22.886  0.00  0.00    +0.000 C 
ATOM     14  C   UNL     1      -7.898  11.718  21.565  0.00  0.00    +0.000 C 
ENDROOT
BRANCH   1  19
ATOM     15  C   UNL     1       0.004  15.947  23.778  0.00  0.00    +0.000 C 
ATOM     16  C   UNL     1      -0.899  15.047  22.986  0.00  0.00    +0.000 A 
ATOM     17  C   UNL     1      -1.034  13.694  23.258  0.00  0.00    +0.000 A 
ATOM     18  C   UNL     1      -1.711  12.867  22.333  0.00  0.00    +0.000 A 
ATOM     19  C   UNL     1      -2.311  13.402  21.180  0.00  0.00    +0.000 A 
ATOM     20  C   UNL     1      -2.303  14.791  21.175  0.00  0.00    +0.000 A 
ATOM     21  N   UNL     1      -1.562  15.610  21.964  0.00  0.00    +0.000 NA
ENDBRANCH   1  19
BRANCH   2  22
ATOM     22  C   UNL     1      -0.720  12.289  18.874  0.00  0.00    +0.000 C 
BRANCH  22  23
ATOM     23  C   UNL     1       0.018  13.497  18.282  0.00  0.00    +0.000 C 
ATOM     24  O   UNL     1      -0.337  14.661  18.266  0.00  0.00    +0.000 OA
BRANCH  23  25
ATOM     25  O   UNL     1       1.264  13.136  17.843  0.00  0.00    +0.000 OA
ATOM     26  H   UNL     1       1.892  13.104  18.599  0.00  0.00    +0.000 HD
ENDBRANCH  23  25
ENDBRANCH  22  23
BRANCH  22  27
ATOM     27  O   UNL     1      -0.002  11.059  18.720  0.00  0.00    +0.000 OA
BRANCH  27  28
ATOM     28  C   UNL     1       0.541  10.305  19.819  0.00  0.00    +0.000 C 
ATOM     29  C   UNL     1      -0.555   9.505  20.523  0.00  0.00    +0.000 C 
ATOM     30  C   UNL     1       1.515   9.337  19.128  0.00  0.00    +0.000 C 
ATOM     31  C   UNL     1       1.352  11.104  20.839  0.00  0.00    +0.000 C 
ENDBRANCH  27  28
ENDBRANCH  22  27
ENDBRANCH   2  22
TORSDOF 6
ENDMDL
MODEL 9
REMARK VINA RESULT:      -5.9      3.440      6.682
REMARK  Name = 
REMARK  11 active torsions:
REMARK  status: ('A' for Active; 'I' for Inactive)
REMARK    1  A    between atoms: C_1  and  C_2
REMARK    2  A    between atoms: C_5  and  C_6
REMARK    3  A    between atoms: C_7  and  C_8
REMARK    4  A    between atoms: C_8  and  O_9
REMARK    5  A    between atoms: C_8  and  C_14
REMARK    6  A    between atoms: O_9  and  C_10
REMARK    7  A    between atoms: C_10  and  C_11
REMARK    8  A    between atoms: C_10  and  C_12
REMARK    9  A    between atoms: C_10  and  C_13
REMARK   10  A    between atoms: C_14  and  O_16
REMARK   11  A    between atoms: C_17  and  C_18
REMARK                            x       y       z     vdW  Elec       q    Type
REMARK                         _______ _______ _______ _____ _____    ______ ____
ROOT
ATOM      1  C   UNL     1      -1.152  14.116  19.937  0.00  0.00    +0.000 A 
ATOM      2  C   UNL     1      -2.375  14.698  20.489  0.00  0.00    +0.000 A 
ATOM      3  C   UNL     1      -2.551  16.081  20.393  0.00  0.00    +0.000 A 
ATOM      4  C   UNL     1      -3.625  16.883  21.092  0.00  0.00    +0.000 C 
ATOM      5  N   UNL     1      -1.718  16.893  19.747  0.00  0.00    +0.000 NA
ATOM      6  C   UNL     1      -0.583  16.362  19.286  0.00  0.00    +0.000 A 
ATOM      7  S   UNL     1       0.561  17.422  18.614  0.00  0.00    +0.000 S 
ATOM      8  C   UNL     1       1.705  16.186  18.454  0.00  0.00    +0.000 A 
ATOM      9  C   UNL     1       1.207  14.945  18.804  0.00  0.00    +0.000 A 
ATOM     10  C   UNL     1      -0.185  15.031  19.340  0.00  0.00    +0.000 A 
ATOM     11  C   UNL     1       2.092  13.751  18.713  0.00  0.00    +0.000 C 
ATOM     12  C   UNL     1       3.528  13.943  18.242  0.00  0.00    +0.000 C 
ATOM     13  C   UNL     1       4.014  15.320  17.833  0.00  0.00    +0.000 C 
ATOM     14  C   UNL     1       3.092  16.523  18.023  0.00  0.00    +0.000 C 
ENDROOT
BRANCH   1  19
ATOM     15  C   UNL     1       1.174   8.864  20.739  0.00  0.00    +0.000 C 
ATOM     16  C   UNL     1       0.377  10.125  20.584  0.00  0.00    +0.000 A 
ATOM     17  C   UNL     1      -0.625  10.265  19.635  0.00  0.00    +0.000 A 
ATOM     18  C   UNL     1      -1.168  11.547  19.388  0.00  0.00    +0.000 A 
ATOM     19  C   UNL     1      -0.764  12.667  20.135  0.00  0.00    +0.000 A 
ATOM     20  C   UNL     1       0.055  12.322  21.204  0.00  0.00    +0.000 A 
ATOM     21  N   UNL     1       0.696  11.142  21.398  0.00  0.00    +0.000 NA
ENDBRANCH   1  19
BRANCH   2  22
ATOM     22  C   UNL     1      -3.321  13.793  21.267  0.00  0.00    +0.000 C 
BRANCH  22  23
ATOM     23  C   UNL     1      -4.579  13.114  20.713  0.00  0.00    +0.000 C 
ATOM     24  O   UNL     1      -5.279  12.276  21.252  0.00  0.00    +0.000 OA
BRANCH  23  25
ATOM     25  O   UNL     1      -4.941  13.665  19.514  0.00  0.00    +0.000 OA
ATOM     26  H   UNL     1      -5.173  12.957  18.872  0.00  0.00    +0.000 HD
ENDBRANCH  23  25
ENDBRANCH  22  23
BRANCH  22  27
ATOM     27  O   UNL     1      -3.441  14.166  22.645  0.00  0.00    +0.000 OA
BRANCH  27  28
ATOM     28  C   UNL     1      -2.743  13.508  23.717  0.00  0.00    +0.000 C 
ATOM     29  C   UNL     1      -1.425  14.217  24.024  0.00  0.00    +0.000 C 
ATOM     30  C   UNL     1      -3.700  13.674  24.909  0.00  0.00    +0.000 C 
ATOM     31  C   UNL     1      -2.509  12.008  23.539  0.00  0.00    +0.000 C 
ENDBRANCH  27  28
ENDBRANCH  22  27
ENDBRANCH   2  22
TORSDOF 6
ENDMDL
