MODEL 1
REMARK VINA RESULT:      -8.2      0.000      0.000
REMARK  Name = 
REMARK  10 active torsions:
REMARK  status: ('A' for Active; 'I' for Inactive)
REMARK    1  A    between atoms: C_1  and  O_2
REMARK    2  A    between atoms: O_2  and  C_3
REMARK    3  A    between atoms: C_3  and  C_5
REMARK    4  A    between atoms: C_5  and  N_6
REMARK    5  A    between atoms: C_7  and  C_9
REMARK    6  A    between atoms: C_9  and  N_10
REMARK    7  A    between atoms: C_11  and  C_13
REMARK    8  A    between atoms: N_15  and  C_16
REMARK    9  A    between atoms: C_19  and  O_20
REMARK   10  A    between atoms: O_20  and  C_21
REMARK                            x       y       z     vdW  Elec       q    Type
REMARK                         _______ _______ _______ _____ _____    ______ ____
ROOT
ATOM      1  C   UNL     1       4.278   5.547  18.783  0.00  0.00    +0.000 A 
ATOM      2  N   UNL     1       3.637   6.674  18.651  0.00  0.00    +0.000 NA
ATOM      3  N   UNL     1       2.498   6.893  19.410  0.00  0.00    +0.000 N 
ATOM      4  C   UNL     1       1.957   5.935  20.282  0.00  0.00    +0.000 A 
ATOM      5  O   UNL     1       0.937   6.053  20.959  0.00  0.00    +0.000 OA
ATOM      6  C   UNL     1       2.656   4.643  20.360  0.00  0.00    +0.000 A 
ATOM      7  C   UNL     1       2.118   3.616  21.152  0.00  0.00    +0.000 A 
ATOM      8  C   UNL     1       2.762   2.386  21.237  0.00  0.00    +0.000 A 
ATOM      9  C   UNL     1       3.949   2.184  20.539  0.00  0.00    +0.000 A 
ATOM     10  C   UNL     1       4.481   3.204  19.743  0.00  0.00    +0.000 A 
ATOM     11  C   UNL     1       3.827   4.439  19.644  0.00  0.00    +0.000 A 
ENDROOT
BRANCH   3  12
ATOM     12  C   UNL     1       1.896   8.186  19.228  0.00  0.00    +0.000 A 
ATOM     13  C   UNL     1       1.880   8.825  17.981  0.00  0.00    +0.000 A 
ATOM     14  C   UNL     1       1.353  10.112  17.813  0.00  0.00    +0.000 A 
ATOM     15  C   UNL     1       0.829  10.808  18.899  0.00  0.00    +0.000 A 
ATOM     16  C   UNL     1       0.807  10.167  20.147  0.00  0.00    +0.000 A 
ATOM     17 CL   UNL     1       0.173  10.959  21.549  0.00  0.00    +0.000 Cl
ATOM     18  C   UNL     1       1.317   8.868  20.306  0.00  0.00    +0.000 A 
BRANCH  15  19
ATOM     19  O   UNL     1       0.337  12.084  18.832  0.00  0.00    +0.000 OA
ATOM     20  C   UNL     1      -0.970  12.256  18.297  0.00  0.00    +0.000 C 
ENDBRANCH  15  19
ENDBRANCH   3  12
BRANCH   1  22
ATOM     21  N   UNL     1       5.541   4.442  16.996  0.00  0.00    +0.000 N 
ATOM     22  C   UNL     1       5.573   5.408  17.977  0.00  0.00    +0.000 C 
ATOM     23  O   UNL     1       6.517   6.150  18.185  0.00  0.00    +0.000 OA
ATOM     24  H   UNL     1       4.665   3.967  16.808  0.00  0.00    +0.000 HD
BRANCH  21  25
ATOM     25  C   UNL     1       6.702   4.190  16.150  0.00  0.00    +0.000 C 
BRANCH  25  27
ATOM     26  N   UNL     1       6.665   3.571  13.772  0.00  0.00    +0.000 N 
ATOM     27  C   UNL     1       6.537   4.595  14.678  0.00  0.00    +0.000 C 
ATOM     28  O   UNL     1       6.340   5.758  14.340  0.00  0.00    +0.000 OA
ATOM     29  H   UNL     1       6.721   2.618  14.115  0.00  0.00    +0.000 HD
BRANCH  26  30
ATOM     30  C   UNL     1       6.455   3.763  12.348  0.00  0.00    +0.000 C 
BRANCH  30  31
ATOM     31  C   UNL     1       5.385   2.834  11.781  0.00  0.00    +0.000 C 
ATOM     32  O   UNL     1       5.607   1.695  11.387  0.00  0.00    +0.000 OA
BRANCH  31  34
ATOM     33  C   UNL     1       3.379   3.148  10.603  0.00  0.00    +0.000 C 
ATOM     34  O   UNL     1       4.163   3.444  11.760  0.00  0.00    +0.000 OA
ENDBRANCH  31  34
ENDBRANCH  30  31
ENDBRANCH  26  30
ENDBRANCH  25  27
ENDBRANCH  21  25
ENDBRANCH   1  22
TORSDOF 8
ENDMDL
MODEL 2
REMARK VINA RESULT:      -8.1      3.267      8.130
REMARK  Name = 
REMARK  10 active torsions:
REMARK  status: ('A' for Active; 'I' for Inactive)
REMARK    1  A    between atoms: C_1  and  O_2
REMARK    2  A    between atoms: O_2  and  C_3
REMARK    3  A    between atoms: C_3  and  C_5
REMARK    4  A    between atoms: C_5  and  N_6
REMARK    5  A    between atoms: C_7  and  C_9
REMARK    6  A    between atoms: C_9  and  N_10
REMARK    7  A    between atoms: C_11  and  C_13
REMARK    8  A    between atoms: N_15  and  C_16
REMARK    9  A    between atoms: C_19  and  O_20
REMARK   10  A    between atoms: O_20  and  C_21
REMARK                            x       y       z     vdW  Elec       q    Type
REMARK                         _______ _______ _______ _____ _____    ______ ____
ROOT
ATOM      1  C   UNL     1       2.874   6.013  18.523  0.00  0.00    +0.000 A 
ATOM      2  N   UNL     1       3.769   5.911  17.582  0.00  0.00    +0.000 NA
ATOM      3  N   UNL     1       4.166   4.650  17.164  0.00  0.00    +0.000 N 
ATOM      4  C   UNL     1       3.695   3.463  17.746  0.00  0.00    +0.000 A 
ATOM      5  O   UNL     1       4.028   2.318  17.444  0.00  0.00    +0.000 OA
ATOM      6  C   UNL     1       2.740   3.604  18.856  0.00  0.00    +0.000 A 
ATOM      7  C   UNL     1       2.295   2.455  19.531  0.00  0.00    +0.000 A 
ATOM      8  C   UNL     1       1.395   2.568  20.586  0.00  0.00    +0.000 A 
ATOM      9  C   UNL     1       0.931   3.825  20.959  0.00  0.00    +0.000 A 
ATOM     10  C   UNL     1       1.381   4.970  20.293  0.00  0.00    +0.000 A 
ATOM     11  C   UNL     1       2.299   4.861  19.240  0.00  0.00    +0.000 A 
ENDROOT
BRANCH   3  12
ATOM     12  C   UNL     1       5.118   4.648  16.086  0.00  0.00    +0.000 A 
ATOM     13  C   UNL     1       6.388   5.226  16.219  0.00  0.00    +0.000 A 
ATOM     14  C   UNL     1       7.293   5.283  15.152  0.00  0.00    +0.000 A 
ATOM     15  C   UNL     1       6.948   4.766  13.905  0.00  0.00    +0.000 A 
ATOM     16  C   UNL     1       5.694   4.153  13.768  0.00  0.00    +0.000 A 
ATOM     17 CL   UNL     1       5.187   3.484  12.254  0.00  0.00    +0.000 Cl
ATOM     18  C   UNL     1       4.798   4.078  14.847  0.00  0.00    +0.000 A 
BRANCH  15  19
ATOM     19  O   UNL     1       7.753   4.822  12.799  0.00  0.00    +0.000 OA
ATOM     20  C   UNL     1       8.601   5.956  12.661  0.00  0.00    +0.000 C 
ENDBRANCH  15  19
ENDBRANCH   3  12
BRANCH   1  22
ATOM     21  N   UNL     1       2.267   8.274  17.794  0.00  0.00    +0.000 N 
ATOM     22  C   UNL     1       2.423   7.434  18.874  0.00  0.00    +0.000 C 
ATOM     23  O   UNL     1       2.181   7.742  20.028  0.00  0.00    +0.000 OA
ATOM     24  H   UNL     1       2.363   7.890  16.860  0.00  0.00    +0.000 HD
BRANCH  21  25
ATOM     25  C   UNL     1       1.848   9.659  17.972  0.00  0.00    +0.000 C 
BRANCH  25  27
ATOM     26  N   UNL     1      -0.518   9.636  17.308  0.00  0.00    +0.000 N 
ATOM     27  C   UNL     1       0.367   9.851  18.334  0.00  0.00    +0.000 C 
ATOM     28  O   UNL     1       0.012  10.206  19.454  0.00  0.00    +0.000 OA
ATOM     29  H   UNL     1      -0.174   9.242  16.439  0.00  0.00    +0.000 HD
BRANCH  26  30
ATOM     30  C   UNL     1      -1.957   9.692  17.499  0.00  0.00    +0.000 C 
BRANCH  30  31
ATOM     31  C   UNL     1      -2.564  11.006  17.016  0.00  0.00    +0.000 C 
ATOM     32  O   UNL     1      -3.046  11.852  17.759  0.00  0.00    +0.000 OA
BRANCH  31  34
ATOM     33  C   UNL     1      -3.570  10.429  14.974  0.00  0.00    +0.000 C 
ATOM     34  O   UNL     1      -2.509  11.103  15.654  0.00  0.00    +0.000 OA
ENDBRANCH  31  34
ENDBRANCH  30  31
ENDBRANCH  26  30
ENDBRANCH  25  27
ENDBRANCH  21  25
ENDBRANCH   1  22
TORSDOF 8
ENDMDL
MODEL 3
REMARK VINA RESULT:      -8.0      1.872      2.393
REMARK  Name = 
REMARK  10 active torsions:
REMARK  status: ('A' for Active; 'I' for Inactive)
REMARK    1  A    between atoms: C_1  and  O_2
REMARK    2  A    between atoms: O_2  and  C_3
REMARK    3  A    between atoms: C_3  and  C_5
REMARK    4  A    between atoms: C_5  and  N_6
REMARK    5  A    between atoms: C_7  and  C_9
REMARK    6  A    between atoms: C_9  and  N_10
REMARK    7  A    between atoms: C_11  and  C_13
REMARK    8  A    between atoms: N_15  and  C_16
REMARK    9  A    between atoms: C_19  and  O_20
REMARK   10  A    between atoms: O_20  and  C_21
REMARK                            x       y       z     vdW  Elec       q    Type
REMARK                         _______ _______ _______ _____ _____    ______ ____
ROOT
ATOM      1  C   UNL     1       3.587   5.978  18.316  0.00  0.00    +0.000 A 
ATOM      2  N   UNL     1       3.077   7.041  18.871  0.00  0.00    +0.000 NA
ATOM      3  N   UNL     1       2.031   6.895  19.770  0.00  0.00    +0.000 N 
ATOM      4  C   UNL     1       1.445   5.657  20.075  0.00  0.00    +0.000 A 
ATOM      5  O   UNL     1       0.499   5.463  20.837  0.00  0.00    +0.000 OA
ATOM      6  C   UNL     1       1.989   4.479  19.382  0.00  0.00    +0.000 A 
ATOM      7  C   UNL     1       1.391   3.225  19.584  0.00  0.00    +0.000 A 
ATOM      8  C   UNL     1       1.887   2.100  18.934  0.00  0.00    +0.000 A 
ATOM      9  C   UNL     1       2.987   2.224  18.091  0.00  0.00    +0.000 A 
ATOM     10  C   UNL     1       3.578   3.476  17.882  0.00  0.00    +0.000 A 
ATOM     11  C   UNL     1       3.070   4.613  18.524  0.00  0.00    +0.000 A 
ENDROOT
BRANCH   3  12
ATOM     12  C   UNL     1       1.578   8.124  20.365  0.00  0.00    +0.000 A 
ATOM     13  C   UNL     1       1.436   8.265  21.752  0.00  0.00    +0.000 A 
ATOM     14  C   UNL     1       0.934   9.437  22.331  0.00  0.00    +0.000 A 
ATOM     15  C   UNL     1       0.547  10.510  21.532  0.00  0.00    +0.000 A 
ATOM     16  C   UNL     1       0.716  10.395  20.144  0.00  0.00    +0.000 A 
ATOM     17 CL   UNL     1       0.263  11.681  19.078  0.00  0.00    +0.000 Cl
ATOM     18  C   UNL     1       1.241   9.226  19.569  0.00  0.00    +0.000 A 
BRANCH  15  19
ATOM     19  O   UNL     1       0.005  11.672  22.012  0.00  0.00    +0.000 OA
ATOM     20  C   UNL     1      -1.082  11.562  22.924  0.00  0.00    +0.000 C 
ENDBRANCH  15  19
ENDBRANCH   3  12
BRANCH   1  22
ATOM     21  N   UNL     1       6.017   6.099  18.020  0.00  0.00    +0.000 N 
ATOM     22  C   UNL     1       4.793   6.207  17.400  0.00  0.00    +0.000 C 
ATOM     23  O   UNL     1       4.638   6.415  16.209  0.00  0.00    +0.000 OA
ATOM     24  H   UNL     1       6.049   5.790  18.986  0.00  0.00    +0.000 HD
BRANCH  21  25
ATOM     25  C   UNL     1       7.257   6.296  17.277  0.00  0.00    +0.000 C 
BRANCH  25  27
ATOM     26  N   UNL     1       7.229   5.605  14.920  0.00  0.00    +0.000 N 
ATOM     27  C   UNL     1       7.550   5.238  16.203  0.00  0.00    +0.000 C 
ATOM     28  O   UNL     1       8.003   4.133  16.484  0.00  0.00    +0.000 OA
ATOM     29  H   UNL     1       6.959   6.566  14.738  0.00  0.00    +0.000 HD
BRANCH  26  30
ATOM     30  C   UNL     1       7.518   4.758  13.775  0.00  0.00    +0.000 C 
BRANCH  30  31
ATOM     31  C   UNL     1       6.274   4.062  13.230  0.00  0.00    +0.000 C 
ATOM     32  O   UNL     1       5.226   3.946  13.854  0.00  0.00    +0.000 OA
BRANCH  31  34
ATOM     33  C   UNL     1       5.976   2.266  11.748  0.00  0.00    +0.000 C 
ATOM     34  O   UNL     1       6.492   3.580  11.970  0.00  0.00    +0.000 OA
ENDBRANCH  31  34
ENDBRANCH  30  31
ENDBRANCH  26  30
ENDBRANCH  25  27
ENDBRANCH  21  25
ENDBRANCH   1  22
TORSDOF 8
ENDMDL
MODEL 4
REMARK VINA RESULT:      -7.9      1.253      1.558
REMARK  Name = 
REMARK  10 active torsions:
REMARK  status: ('A' for Active; 'I' for Inactive)
REMARK    1  A    between atoms: C_1  and  O_2
REMARK    2  A    between atoms: O_2  and  C_3
REMARK    3  A    between atoms: C_3  and  C_5
REMARK    4  A    between atoms: C_5  and  N_6
REMARK    5  A    between atoms: C_7  and  C_9
REMARK    6  A    between atoms: C_9  and  N_10
REMARK    7  A    between atoms: C_11  and  C_13
REMARK    8  A    between atoms: N_15  and  C_16
REMARK    9  A    between atoms: C_19  and  O_20
REMARK   10  A    between atoms: O_20  and  C_21
REMARK                            x       y       z     vdW  Elec       q    Type
REMARK                         _______ _______ _______ _____ _____    ______ ____
ROOT
ATOM      1  C   UNL     1       4.281   5.060  18.469  0.00  0.00    +0.000 A 
ATOM      2  N   UNL     1       3.710   6.205  18.715  0.00  0.00    +0.000 NA
ATOM      3  N   UNL     1       2.458   6.219  19.310  0.00  0.00    +0.000 N 
ATOM      4  C   UNL     1       1.737   5.055  19.614  0.00  0.00    +0.000 A 
ATOM      5  O   UNL     1       0.614   4.998  20.113  0.00  0.00    +0.000 OA
ATOM      6  C   UNL     1       2.369   3.774  19.261  0.00  0.00    +0.000 A 
ATOM      7  C   UNL     1       1.662   2.578  19.466  0.00  0.00    +0.000 A 
ATOM      8  C   UNL     1       2.241   1.357  19.135  0.00  0.00    +0.000 A 
ATOM      9  C   UNL     1       3.529   1.329  18.610  0.00  0.00    +0.000 A 
ATOM     10  C   UNL     1       4.231   2.521  18.398  0.00  0.00    +0.000 A 
ATOM     11  C   UNL     1       3.644   3.753  18.716  0.00  0.00    +0.000 A 
ENDROOT
BRANCH   3  12
ATOM     12  C   UNL     1       1.941   7.533  19.586  0.00  0.00    +0.000 A 
ATOM     13  C   UNL     1       1.890   8.530  18.601  0.00  0.00    +0.000 A 
ATOM     14  C   UNL     1       1.448   9.828  18.882  0.00  0.00    +0.000 A 
ATOM     15  C   UNL     1       1.046  10.174  20.170  0.00  0.00    +0.000 A 
ATOM     16  C   UNL     1       1.059   9.177  21.157  0.00  0.00    +0.000 A 
ATOM     17 CL   UNL     1       0.575   9.521  22.783  0.00  0.00    +0.000 Cl
ATOM     18  C   UNL     1       1.482   7.870  20.866  0.00  0.00    +0.000 A 
BRANCH  15  19
ATOM     19  O   UNL     1       0.645  11.430  20.540  0.00  0.00    +0.000 OA
ATOM     20  C   UNL     1       1.322  12.535  19.954  0.00  0.00    +0.000 C 
ENDBRANCH  15  19
ENDBRANCH   3  12
BRANCH   1  22
ATOM     21  N   UNL     1       5.864   4.445  16.701  0.00  0.00    +0.000 N 
ATOM     22  C   UNL     1       5.697   5.121  17.888  0.00  0.00    +0.000 C 
ATOM     23  O   UNL     1       6.567   5.773  18.439  0.00  0.00    +0.000 OA
ATOM     24  H   UNL     1       5.048   4.044  16.249  0.00  0.00    +0.000 HD
BRANCH  21  25
ATOM     25  C   UNL     1       7.158   4.408  16.030  0.00  0.00    +0.000 C 
BRANCH  25  27
ATOM     26  N   UNL     1       6.410   3.724  13.791  0.00  0.00    +0.000 N 
ATOM     27  C   UNL     1       7.115   4.654  14.515  0.00  0.00    +0.000 C 
ATOM     28  O   UNL     1       7.701   5.596  13.991  0.00  0.00    +0.000 OA
ATOM     29  H   UNL     1       5.861   3.031  14.289  0.00  0.00    +0.000 HD
BRANCH  26  30
ATOM     30  C   UNL     1       6.199   3.851  12.360  0.00  0.00    +0.000 C 
BRANCH  30  31
ATOM     31  C   UNL     1       5.208   2.824  11.819  0.00  0.00    +0.000 C 
ATOM     32  O   UNL     1       4.024   3.059  11.607  0.00  0.00    +0.000 OA
BRANCH  31  34
ATOM     33  C   UNL     1       7.130   1.703  11.069  0.00  0.00    +0.000 C 
ATOM     34  O   UNL     1       5.813   1.615  11.617  0.00  0.00    +0.000 OA
ENDBRANCH  31  34
ENDBRANCH  30  31
ENDBRANCH  26  30
ENDBRANCH  25  27
ENDBRANCH  21  25
ENDBRANCH   1  22
TORSDOF 8
ENDMDL
MODEL 5
REMARK VINA RESULT:      -7.9      1.089      1.159
REMARK  Name = 
REMARK  10 active torsions:
REMARK  status: ('A' for Active; 'I' for Inactive)
REMARK    1  A    between atoms: C_1  and  O_2
REMARK    2  A    between atoms: O_2  and  C_3
REMARK    3  A    between atoms: C_3  and  C_5
REMARK    4  A    between atoms: C_5  and  N_6
REMARK    5  A    between atoms: C_7  and  C_9
REMARK    6  A    between atoms: C_9  and  N_10
REMARK    7  A    between atoms: C_11  and  C_13
REMARK    8  A    between atoms: N_15  and  C_16
REMARK    9  A    between atoms: C_19  and  O_20
REMARK   10  A    between atoms: O_20  and  C_21
REMARK                            x       y       z     vdW  Elec       q    Type
REMARK                         _______ _______ _______ _____ _____    ______ ____
ROOT
ATOM      1  C   UNL     1       3.778   5.231  18.554  0.00  0.00    +0.000 A 
ATOM      2  N   UNL     1       3.290   6.429  18.402  0.00  0.00    +0.000 NA
ATOM      3  N   UNL     1       2.383   6.910  19.333  0.00  0.00    +0.000 N 
ATOM      4  C   UNL     1       1.910   6.147  20.412  0.00  0.00    +0.000 A 
ATOM      5  O   UNL     1       1.086   6.501  21.254  0.00  0.00    +0.000 OA
ATOM      6  C   UNL     1       2.419   4.771  20.523  0.00  0.00    +0.000 A 
ATOM      7  C   UNL     1       1.922   3.933  21.534  0.00  0.00    +0.000 A 
ATOM      8  C   UNL     1       2.387   2.627  21.653  0.00  0.00    +0.000 A 
ATOM      9  C   UNL     1       3.357   2.162  20.770  0.00  0.00    +0.000 A 
ATOM     10  C   UNL     1       3.846   2.995  19.757  0.00  0.00    +0.000 A 
ATOM     11  C   UNL     1       3.368   4.305  19.626  0.00  0.00    +0.000 A 
ENDROOT
BRANCH   3  12
ATOM     12  C   UNL     1       1.947   8.260  19.103  0.00  0.00    +0.000 A 
ATOM     13  C   UNL     1       2.285   8.958  17.934  0.00  0.00    +0.000 A 
ATOM     14  C   UNL     1       1.917  10.294  17.735  0.00  0.00    +0.000 A 
ATOM     15  C   UNL     1       1.199  10.982  18.710  0.00  0.00    +0.000 A 
ATOM     16  C   UNL     1       0.824  10.286  19.869  0.00  0.00    +0.000 A 
ATOM     17 CL   UNL     1      -0.070  11.065  21.130  0.00  0.00    +0.000 Cl
ATOM     18  C   UNL     1       1.176   8.940  20.055  0.00  0.00    +0.000 A 
BRANCH  15  19
ATOM     19  O   UNL     1       0.840  12.300  18.615  0.00  0.00    +0.000 OA
ATOM     20  C   UNL     1       1.883  13.255  18.455  0.00  0.00    +0.000 C 
ENDBRANCH  15  19
ENDBRANCH   3  12
BRANCH   1  22
ATOM     21  N   UNL     1       6.127   4.772  18.019  0.00  0.00    +0.000 N 
ATOM     22  C   UNL     1       4.838   4.798  17.536  0.00  0.00    +0.000 C 
ATOM     23  O   UNL     1       4.516   4.461  16.410  0.00  0.00    +0.000 OA
ATOM     24  H   UNL     1       6.280   4.940  19.009  0.00  0.00    +0.000 HD
BRANCH  21  25
ATOM     25  C   UNL     1       7.244   4.386  17.165  0.00  0.00    +0.000 C 
BRANCH  25  27
ATOM     26  N   UNL     1       6.983   4.170  14.731  0.00  0.00    +0.000 N 
ATOM     27  C   UNL     1       7.249   5.027  15.769  0.00  0.00    +0.000 C 
ATOM     28  O   UNL     1       7.510   6.214  15.599  0.00  0.00    +0.000 OA
ATOM     29  H   UNL     1       6.672   3.227  14.943  0.00  0.00    +0.000 HD
BRANCH  26  30
ATOM     30  C   UNL     1       6.866   4.626  13.357  0.00  0.00    +0.000 C 
BRANCH  30  31
ATOM     31  C   UNL     1       6.248   3.575  12.440  0.00  0.00    +0.000 C 
ATOM     32  O   UNL     1       6.898   2.820  11.726  0.00  0.00    +0.000 OA
BRANCH  31  34
ATOM     33  C   UNL     1       4.225   3.206  11.306  0.00  0.00    +0.000 C 
ATOM     34  O   UNL     1       4.883   3.600  12.512  0.00  0.00    +0.000 OA
ENDBRANCH  31  34
ENDBRANCH  30  31
ENDBRANCH  26  30
ENDBRANCH  25  27
ENDBRANCH  21  25
ENDBRANCH   1  22
TORSDOF 8
ENDMDL
MODEL 6
REMARK VINA RESULT:      -7.9      3.316      5.498
REMARK  Name = 
REMARK  10 active torsions:
REMARK  status: ('A' for Active; 'I' for Inactive)
REMARK    1  A    between atoms: C_1  and  O_2
REMARK    2  A    between atoms: O_2  and  C_3
REMARK    3  A    between atoms: C_3  and  C_5
REMARK    4  A    between atoms: C_5  and  N_6
REMARK    5  A    between atoms: C_7  and  C_9
REMARK    6  A    between atoms: C_9  and  N_10
REMARK    7  A    between atoms: C_11  and  C_13
REMARK    8  A    between atoms: N_15  and  C_16
REMARK    9  A    between atoms: C_19  and  O_20
REMARK   10  A    between atoms: O_20  and  C_21
REMARK                            x       y       z     vdW  Elec       q    Type
REMARK                         _______ _______ _______ _____ _____    ______ ____
ROOT
ATOM      1  C   UNL     1       4.075   5.481  18.799  0.00  0.00    +0.000 A 
ATOM      2  N   UNL     1       3.429   6.568  19.115  0.00  0.00    +0.000 NA
ATOM      3  N   UNL     1       2.198   6.462  19.743  0.00  0.00    +0.000 N 
ATOM      4  C   UNL     1       1.574   5.234  20.011  0.00  0.00    +0.000 A 
ATOM      5  O   UNL     1       0.473   5.072  20.536  0.00  0.00    +0.000 OA
ATOM      6  C   UNL     1       2.287   4.022  19.580  0.00  0.00    +0.000 A 
ATOM      7  C   UNL     1       1.676   2.769  19.746  0.00  0.00    +0.000 A 
ATOM      8  C   UNL     1       2.332   1.610  19.342  0.00  0.00    +0.000 A 
ATOM      9  C   UNL     1       3.602   1.703  18.782  0.00  0.00    +0.000 A 
ATOM     10  C   UNL     1       4.208   2.952  18.608  0.00  0.00    +0.000 A 
ATOM     11  C   UNL     1       3.543   4.121  19.000  0.00  0.00    +0.000 A 
ENDROOT
BRANCH   3  12
ATOM     12  C   UNL     1       1.595   7.719  20.096  0.00  0.00    +0.000 A 
ATOM     13  C   UNL     1       1.462   8.762  19.168  0.00  0.00    +0.000 A 
ATOM     14  C   UNL     1       0.935  10.009  19.523  0.00  0.00    +0.000 A 
ATOM     15  C   UNL     1       0.528  10.257  20.832  0.00  0.00    +0.000 A 
ATOM     16  C   UNL     1       0.623   9.211  21.763  0.00  0.00    +0.000 A 
ATOM     17 CL   UNL     1       0.139   9.433  23.410  0.00  0.00    +0.000 Cl
ATOM     18  C   UNL     1       1.132   7.955  21.396  0.00  0.00    +0.000 A 
BRANCH  15  19
ATOM     19  O   UNL     1       0.046  11.460  21.274  0.00  0.00    +0.000 OA
ATOM     20  C   UNL     1       0.852  12.611  21.054  0.00  0.00    +0.000 C 
ENDBRANCH  15  19
ENDBRANCH   3  12
BRANCH   1  22
ATOM     21  N   UNL     1       6.447   6.033  19.079  0.00  0.00    +0.000 N 
ATOM     22  C   UNL     1       5.464   5.674  18.184  0.00  0.00    +0.000 C 
ATOM     23  O   UNL     1       5.653   5.467  16.999  0.00  0.00    +0.000 OA
ATOM     24  H   UNL     1       6.222   6.051  20.069  0.00  0.00    +0.000 HD
BRANCH  21  25
ATOM     25  C   UNL     1       7.819   6.258  18.641  0.00  0.00    +0.000 C 
BRANCH  25  27
ATOM     26  N   UNL     1       8.647   8.560  18.877  0.00  0.00    +0.000 N 
ATOM     27  C   UNL     1       8.089   7.639  18.026  0.00  0.00    +0.000 C 
ATOM     28  O   UNL     1       7.790   7.905  16.865  0.00  0.00    +0.000 OA
ATOM     29  H   UNL     1       8.968   8.251  19.789  0.00  0.00    +0.000 HD
BRANCH  26  30
ATOM     30  C   UNL     1       9.044   9.886  18.436  0.00  0.00    +0.000 C 
BRANCH  30  31
ATOM     31  C   UNL     1       9.682  10.709  19.551  0.00  0.00    +0.000 C 
ATOM     32  O   UNL     1       9.325  10.670  20.723  0.00  0.00    +0.000 OA
BRANCH  31  34
ATOM     33  C   UNL     1      11.623  11.929  20.057  0.00  0.00    +0.000 C 
ATOM     34  O   UNL     1      10.687  11.499  19.067  0.00  0.00    +0.000 OA
ENDBRANCH  31  34
ENDBRANCH  30  31
ENDBRANCH  26  30
ENDBRANCH  25  27
ENDBRANCH  21  25
ENDBRANCH   1  22
TORSDOF 8
ENDMDL
MODEL 7
REMARK VINA RESULT:      -7.9      1.511      1.884
REMARK  Name = 
REMARK  10 active torsions:
REMARK  status: ('A' for Active; 'I' for Inactive)
REMARK    1  A    between atoms: C_1  and  O_2
REMARK    2  A    between atoms: O_2  and  C_3
REMARK    3  A    between atoms: C_3  and  C_5
REMARK    4  A    between atoms: C_5  and  N_6
REMARK    5  A    between atoms: C_7  and  C_9
REMARK    6  A    between atoms: C_9  and  N_10
REMARK    7  A    between atoms: C_11  and  C_13
REMARK    8  A    between atoms: N_15  and  C_16
REMARK    9  A    between atoms: C_19  and  O_20
REMARK   10  A    between atoms: O_20  and  C_21
REMARK                            x       y       z     vdW  Elec       q    Type
REMARK                         _______ _______ _______ _____ _____    ______ ____
ROOT
ATOM      1  C   UNL     1       3.813   5.504  18.397  0.00  0.00    +0.000 A 
ATOM      2  N   UNL     1       3.320   6.611  18.874  0.00  0.00    +0.000 NA
ATOM      3  N   UNL     1       2.221   6.551  19.717  0.00  0.00    +0.000 N 
ATOM      4  C   UNL     1       1.567   5.353  20.044  0.00  0.00    +0.000 A 
ATOM      5  O   UNL     1       0.573   5.234  20.758  0.00  0.00    +0.000 OA
ATOM      6  C   UNL     1       2.095   4.123  19.435  0.00  0.00    +0.000 A 
ATOM      7  C   UNL     1       1.433   2.905  19.659  0.00  0.00    +0.000 A 
ATOM      8  C   UNL     1       1.916   1.731  19.089  0.00  0.00    +0.000 A 
ATOM      9  C   UNL     1       3.064   1.771  18.305  0.00  0.00    +0.000 A 
ATOM     10  C   UNL     1       3.719   2.986  18.075  0.00  0.00    +0.000 A 
ATOM     11  C   UNL     1       3.227   4.172  18.635  0.00  0.00    +0.000 A 
ENDROOT
BRANCH   3  12
ATOM     12  C   UNL     1       1.790   7.823  20.230  0.00  0.00    +0.000 A 
ATOM     13  C   UNL     1       1.681   8.068  21.606  0.00  0.00    +0.000 A 
ATOM     14  C   UNL     1       1.200   9.283  22.108  0.00  0.00    +0.000 A 
ATOM     15  C   UNL     1       0.802  10.297  21.241  0.00  0.00    +0.000 A 
ATOM     16  C   UNL     1       0.938  10.079  19.862  0.00  0.00    +0.000 A 
ATOM     17 CL   UNL     1       0.467  11.287  18.714  0.00  0.00    +0.000 Cl
ATOM     18  C   UNL     1       1.442   8.867  19.363  0.00  0.00    +0.000 A 
BRANCH  15  19
ATOM     19  O   UNL     1       0.278  11.496  21.646  0.00  0.00    +0.000 OA
ATOM     20  C   UNL     1      -0.931  11.463  22.396  0.00  0.00    +0.000 C 
ENDBRANCH  15  19
ENDBRANCH   3  12
BRANCH   1  22
ATOM     21  N   UNL     1       4.851   5.700  16.184  0.00  0.00    +0.000 N 
ATOM     22  C   UNL     1       5.077   5.640  17.541  0.00  0.00    +0.000 C 
ATOM     23  O   UNL     1       6.173   5.735  18.063  0.00  0.00    +0.000 OA
ATOM     24  H   UNL     1       3.894   5.748  15.851  0.00  0.00    +0.000 HD
BRANCH  21  25
ATOM     25  C   UNL     1       5.957   5.823  15.242  0.00  0.00    +0.000 C 
BRANCH  25  27
ATOM     26  N   UNL     1       6.346   4.624  13.133  0.00  0.00    +0.000 N 
ATOM     27  C   UNL     1       6.331   4.530  14.502  0.00  0.00    +0.000 C 
ATOM     28  O   UNL     1       6.563   3.483  15.098  0.00  0.00    +0.000 OA
ATOM     29  H   UNL     1       6.251   5.538  12.703  0.00  0.00    +0.000 HD
BRANCH  26  30
ATOM     30  C   UNL     1       6.760   3.521  12.283  0.00  0.00    +0.000 C 
BRANCH  30  31
ATOM     31  C   UNL     1       5.580   2.700  11.769  0.00  0.00    +0.000 C 
ATOM     32  O   UNL     1       5.676   1.557  11.339  0.00  0.00    +0.000 OA
BRANCH  31  34
ATOM     33  C   UNL     1       3.571   3.272  10.696  0.00  0.00    +0.000 C 
ATOM     34  O   UNL     1       4.416   3.413  11.840  0.00  0.00    +0.000 OA
ENDBRANCH  31  34
ENDBRANCH  30  31
ENDBRANCH  26  30
ENDBRANCH  25  27
ENDBRANCH  21  25
ENDBRANCH   1  22
TORSDOF 8
ENDMDL
MODEL 8
REMARK VINA RESULT:      -7.9      1.627      2.020
REMARK  Name = 
REMARK  10 active torsions:
REMARK  status: ('A' for Active; 'I' for Inactive)
REMARK    1  A    between atoms: C_1  and  O_2
REMARK    2  A    between atoms: O_2  and  C_3
REMARK    3  A    between atoms: C_3  and  C_5
REMARK    4  A    between atoms: C_5  and  N_6
REMARK    5  A    between atoms: C_7  and  C_9
REMARK    6  A    between atoms: C_9  and  N_10
REMARK    7  A    between atoms: C_11  and  C_13
REMARK    8  A    between atoms: N_15  and  C_16
REMARK    9  A    between atoms: C_19  and  O_20
REMARK   10  A    between atoms: O_20  and  C_21
REMARK                            x       y       z     vdW  Elec       q    Type
REMARK                         _______ _______ _______ _____ _____    ______ ____
ROOT
ATOM      1  C   UNL     1       3.925   5.610  18.019  0.00  0.00    +0.000 A 
ATOM      2  N   UNL     1       3.400   6.684  18.537  0.00  0.00    +0.000 NA
ATOM      3  N   UNL     1       2.373   6.554  19.460  0.00  0.00    +0.000 N 
ATOM      4  C   UNL     1       1.823   5.318  19.830  0.00  0.00    +0.000 A 
ATOM      5  O   UNL     1       0.895   5.136  20.617  0.00  0.00    +0.000 OA
ATOM      6  C   UNL     1       2.382   4.123  19.179  0.00  0.00    +0.000 A 
ATOM      7  C   UNL     1       1.817   2.866  19.447  0.00  0.00    +0.000 A 
ATOM      8  C   UNL     1       2.329   1.724  18.838  0.00  0.00    +0.000 A 
ATOM      9  C   UNL     1       3.411   1.837  17.970  0.00  0.00    +0.000 A 
ATOM     10  C   UNL     1       3.968   3.091  17.696  0.00  0.00    +0.000 A 
ATOM     11  C   UNL     1       3.445   4.243  18.296  0.00  0.00    +0.000 A 
ENDROOT
BRANCH   3  12
ATOM     12  C   UNL     1       1.901   7.797  20.008  0.00  0.00    +0.000 A 
ATOM     13  C   UNL     1       1.757   7.988  21.390  0.00  0.00    +0.000 A 
ATOM     14  C   UNL     1       1.237   9.173  21.925  0.00  0.00    +0.000 A 
ATOM     15  C   UNL     1       0.835  10.210  21.086  0.00  0.00    +0.000 A 
ATOM     16  C   UNL     1       1.006  10.046  19.703  0.00  0.00    +0.000 A 
ATOM     17 CL   UNL     1       0.533  11.284  18.590  0.00  0.00    +0.000 Cl
ATOM     18  C   UNL     1       1.548   8.864  19.172  0.00  0.00    +0.000 A 
BRANCH  15  19
ATOM     19  O   UNL     1       0.275  11.380  21.522  0.00  0.00    +0.000 OA
ATOM     20  C   UNL     1      -1.128  11.387  21.763  0.00  0.00    +0.000 C 
ENDBRANCH  15  19
ENDBRANCH   3  12
BRANCH   1  22
ATOM     21  N   UNL     1       5.931   4.731  16.917  0.00  0.00    +0.000 N 
ATOM     22  C   UNL     1       5.109   5.825  17.071  0.00  0.00    +0.000 C 
ATOM     23  O   UNL     1       5.247   6.881  16.480  0.00  0.00    +0.000 OA
ATOM     24  H   UNL     1       5.659   3.853  17.346  0.00  0.00    +0.000 HD
BRANCH  21  25
ATOM     25  C   UNL     1       7.102   4.787  16.050  0.00  0.00    +0.000 C 
BRANCH  25  27
ATOM     26  N   UNL     1       5.867   3.877  14.131  0.00  0.00    +0.000 N 
ATOM     27  C   UNL     1       6.800   4.794  14.544  0.00  0.00    +0.000 C 
ATOM     28  O   UNL     1       7.383   5.545  13.767  0.00  0.00    +0.000 OA
ATOM     29  H   UNL     1       5.345   3.360  14.831  0.00  0.00    +0.000 HD
BRANCH  26  30
ATOM     30  C   UNL     1       5.403   3.806  12.756  0.00  0.00    +0.000 C 
BRANCH  30  31
ATOM     31  C   UNL     1       6.233   2.851  11.904  0.00  0.00    +0.000 C 
ATOM     32  O   UNL     1       7.415   3.027  11.630  0.00  0.00    +0.000 OA
BRANCH  31  34
ATOM     33  C   UNL     1       6.250   0.660  11.058  0.00  0.00    +0.000 C 
ATOM     34  O   UNL     1       5.483   1.789  11.481  0.00  0.00    +0.000 OA
ENDBRANCH  31  34
ENDBRANCH  30  31
ENDBRANCH  26  30
ENDBRANCH  25  27
ENDBRANCH  21  25
ENDBRANCH   1  22
TORSDOF 8
ENDMDL
MODEL 9
REMARK VINA RESULT:      -7.8      3.219      8.705
REMARK  Name = 
REMARK  10 active torsions:
REMARK  status: ('A' for Active; 'I' for Inactive)
REMARK    1  A    between atoms: C_1  and  O_2
REMARK    2  A    between atoms: O_2  and  C_3
REMARK    3  A    between atoms: C_3  and  C_5
REMARK    4  A    between atoms: C_5  and  N_6
REMARK    5  A    between atoms: C_7  and  C_9
REMARK    6  A    between atoms: C_9  and  N_10
REMARK    7  A    between atoms: C_11  and  C_13
REMARK    8  A    between atoms: N_15  and  C_16
REMARK    9  A    between atoms: C_19  and  O_20
REMARK   10  A    between atoms: O_20  and  C_21
REMARK                            x       y       z     vdW  Elec       q    Type
REMARK                         _______ _______ _______ _____ _____    ______ ____
ROOT
ATOM      1  C   UNL     1       2.944   5.949  18.510  0.00  0.00    +0.000 A 
ATOM      2  N   UNL     1       3.829   5.827  17.562  0.00  0.00    +0.000 NA
ATOM      3  N   UNL     1       4.208   4.558  17.152  0.00  0.00    +0.000 N 
ATOM      4  C   UNL     1       3.727   3.382  17.748  0.00  0.00    +0.000 A 
ATOM      5  O   UNL     1       4.044   2.230  17.454  0.00  0.00    +0.000 OA
ATOM      6  C   UNL     1       2.784   3.544  18.865  0.00  0.00    +0.000 A 
ATOM      7  C   UNL     1       2.332   2.407  19.554  0.00  0.00    +0.000 A 
ATOM      8  C   UNL     1       1.443   2.539  20.616  0.00  0.00    +0.000 A 
ATOM      9  C   UNL     1       0.997   3.805  20.982  0.00  0.00    +0.000 A 
ATOM     10  C   UNL     1       1.454   4.939  20.302  0.00  0.00    +0.000 A 
ATOM     11  C   UNL     1       2.361   4.810  19.242  0.00  0.00    +0.000 A 
ENDROOT
BRANCH   3  12
ATOM     12  C   UNL     1       5.149   4.535  16.065  0.00  0.00    +0.000 A 
ATOM     13  C   UNL     1       6.443   5.060  16.196  0.00  0.00    +0.000 A 
ATOM     14  C   UNL     1       7.340   5.099  15.122  0.00  0.00    +0.000 A 
ATOM     15  C   UNL     1       6.965   4.615  13.871  0.00  0.00    +0.000 A 
ATOM     16  C   UNL     1       5.686   4.054  13.734  0.00  0.00    +0.000 A 
ATOM     17 CL   UNL     1       5.140   3.430  12.215  0.00  0.00    +0.000 Cl
ATOM     18  C   UNL     1       4.797   3.998  14.820  0.00  0.00    +0.000 A 
BRANCH  15  19
ATOM     19  O   UNL     1       7.762   4.656  12.758  0.00  0.00    +0.000 OA
ATOM     20  C   UNL     1       8.303   5.918  12.385  0.00  0.00    +0.000 C 
ENDBRANCH  15  19
ENDBRANCH   3  12
BRANCH   1  22
ATOM     21  N   UNL     1       2.428   8.230  17.774  0.00  0.00    +0.000 N 
ATOM     22  C   UNL     1       2.512   7.378  18.852  0.00  0.00    +0.000 C 
ATOM     23  O   UNL     1       2.224   7.683  19.996  0.00  0.00    +0.000 OA
ATOM     24  H   UNL     1       2.557   7.850  16.842  0.00  0.00    +0.000 HD
BRANCH  21  25
ATOM     25  C   UNL     1       2.036   9.624  17.944  0.00  0.00    +0.000 C 
BRANCH  25  27
ATOM     26  N   UNL     1       0.702  10.042  19.966  0.00  0.00    +0.000 N 
ATOM     27  C   UNL     1       0.668   9.840  18.609  0.00  0.00    +0.000 C 
ATOM     28  O   UNL     1      -0.380   9.796  17.971  0.00  0.00    +0.000 OA
ATOM     29  H   UNL     1       1.601  10.173  20.418  0.00  0.00    +0.000 HD
BRANCH  26  30
ATOM     30  C   UNL     1      -0.491  10.345  20.736  0.00  0.00    +0.000 C 
BRANCH  30  31
ATOM     31  C   UNL     1      -0.269  11.468  21.746  0.00  0.00    +0.000 C 
ATOM     32  O   UNL     1      -1.046  11.735  22.656  0.00  0.00    +0.000 OA
BRANCH  31  34
ATOM     33  C   UNL     1       0.720  13.520  21.177  0.00  0.00    +0.000 C 
ATOM     34  O   UNL     1       0.895  12.137  21.491  0.00  0.00    +0.000 OA
ENDBRANCH  31  34
ENDBRANCH  30  31
ENDBRANCH  26  30
ENDBRANCH  25  27
ENDBRANCH  21  25
ENDBRANCH   1  22
TORSDOF 8
ENDMDL
