MODEL 1
REMARK VINA RESULT:      -8.0      0.000      0.000
REMARK  Name = 
REMARK  8 active torsions:
REMARK  status: ('A' for Active; 'I' for Inactive)
REMARK    1  A    between atoms: C_1  and  C_2
REMARK    2  A    between atoms: C_2  and  C_3
REMARK    3  A    between atoms: C_3  and  C_4
REMARK    4  A    between atoms: C_3  and  N_6
REMARK    5  A    between atoms: C_4  and  C_5
REMARK    6  A    between atoms: N_6  and  C_7
REMARK    7  A    between atoms: C_12  and  N_13
REMARK    8  A    between atoms: C_17  and  C_19
REMARK                            x       y       z     vdW  Elec       q    Type
REMARK                         _______ _______ _______ _____ _____    ______ ____
ROOT
ATOM      1  N   UNL     1       1.083   9.680  19.359  0.00  0.00    +0.000 N 
ATOM      2  C   UNL     1       1.311   9.084  20.684  0.00  0.00    +0.000 C 
ATOM      3  C   UNL     1       1.362   7.546  20.515  0.00  0.00    +0.000 C 
ATOM      4  N   UNL     1       2.285   7.130  19.435  0.00  0.00    +0.000 N 
ATOM      5  C   UNL     1       2.930   5.900  19.569  0.00  0.00    +0.000 C 
ATOM      6  O   UNL     1       2.732   5.185  20.550  0.00  0.00    +0.000 OA
ATOM      7  C   UNL     1       2.061   7.852  18.164  0.00  0.00    +0.000 C 
ATOM      8  C   UNL     1       2.146   9.372  18.409  0.00  0.00    +0.000 C 
ENDROOT
BRANCH   5   9
ATOM      9  C   UNL     1       3.856   5.494  18.529  0.00  0.00    +0.000 A 
ATOM     10  C   UNL     1       3.604   4.645  17.464  0.00  0.00    +0.000 A 
ATOM     11  C   UNL     1       4.758   4.601  16.636  0.00  0.00    +0.000 A 
ATOM     12  C   UNL     1       5.072   3.987  15.408  0.00  0.00    +0.000 A 
ATOM     13  C   UNL     1       6.321   4.209  14.829  0.00  0.00    +0.000 A 
ATOM     14  C   UNL     1       7.257   5.037  15.451  0.00  0.00    +0.000 A 
ATOM     15  C   UNL     1       6.979   5.637  16.682  0.00  0.00    +0.000 A 
ATOM     16  C   UNL     1       5.728   5.388  17.254  0.00  0.00    +0.000 A 
ATOM     17  N   UNL     1       5.195   5.799  18.456  0.00  0.00    +0.000 N 
ATOM     18  H   UNL     1       5.706   6.324  19.146  0.00  0.00    +0.000 HD
ENDBRANCH   5   9
BRANCH   1  24
ATOM     19  C   UNL     1      -0.563  11.155  18.324  0.00  0.00    +0.000 A 
ATOM     20  C   UNL     1      -1.286  12.343  18.451  0.00  0.00    +0.000 A 
ATOM     21  C   UNL     1      -0.957  13.275  19.428  0.00  0.00    +0.000 A 
ATOM     22  C   UNL     1       0.078  12.978  20.289  0.00  0.00    +0.000 A 
ATOM     23  N   UNL     1       0.780  11.827  20.255  0.00  0.00    +0.000 NA
ATOM     24  C   UNL     1       0.463  10.922  19.299  0.00  0.00    +0.000 A 
BRANCH  19  25
ATOM     25  N   UNL     1      -0.923  10.165  17.404  0.00  0.00    +0.000 N 
ATOM     26  H   UNL     1      -0.189   9.965  16.739  0.00  0.00    +0.000 HD
BRANCH  25  27
ATOM     27  C   UNL     1      -2.277   9.875  16.949  0.00  0.00    +0.000 C 
BRANCH  27  29
ATOM     28  C   UNL     1      -4.565  10.651  17.792  0.00  0.00    +0.000 C 
ATOM     29  C   UNL     1      -3.240   9.994  18.149  0.00  0.00    +0.000 C 
ENDBRANCH  27  29
BRANCH  27  30
ATOM     30  C   UNL     1      -2.633  10.788  15.761  0.00  0.00    +0.000 C 
ATOM     31  C   UNL     1      -3.004  10.071  14.469  0.00  0.00    +0.000 C 
ENDBRANCH  27  30
ENDBRANCH  25  27
ENDBRANCH  19  25
ENDBRANCH   1  24
TORSDOF 6
ENDMDL
MODEL 2
REMARK VINA RESULT:      -7.9      0.974      1.491
REMARK  Name = 
REMARK  8 active torsions:
REMARK  status: ('A' for Active; 'I' for Inactive)
REMARK    1  A    between atoms: C_1  and  C_2
REMARK    2  A    between atoms: C_2  and  C_3
REMARK    3  A    between atoms: C_3  and  C_4
REMARK    4  A    between atoms: C_3  and  N_6
REMARK    5  A    between atoms: C_4  and  C_5
REMARK    6  A    between atoms: N_6  and  C_7
REMARK    7  A    between atoms: C_12  and  N_13
REMARK    8  A    between atoms: C_17  and  C_19
REMARK                            x       y       z     vdW  Elec       q    Type
REMARK                         _______ _______ _______ _____ _____    ______ ____
ROOT
ATOM      1  N   UNL     1       1.241  10.426  19.207  0.00  0.00    +0.000 N 
ATOM      2  C   UNL     1       1.160   9.882  20.571  0.00  0.00    +0.000 C 
ATOM      3  C   UNL     1       0.978   8.349  20.465  0.00  0.00    +0.000 C 
ATOM      4  N   UNL     1       1.973   7.726  19.563  0.00  0.00    +0.000 N 
ATOM      5  C   UNL     1       2.376   6.420  19.841  0.00  0.00    +0.000 C 
ATOM      6  O   UNL     1       1.912   5.805  20.800  0.00  0.00    +0.000 OA
ATOM      7  C   UNL     1       2.071   8.397  18.249  0.00  0.00    +0.000 C 
ATOM      8  C   UNL     1       2.371   9.895  18.452  0.00  0.00    +0.000 C 
ENDROOT
BRANCH   5   9
ATOM      9  C   UNL     1       3.369   5.809  18.978  0.00  0.00    +0.000 A 
ATOM     10  C   UNL     1       3.149   5.140  17.785  0.00  0.00    +0.000 A 
ATOM     11  C   UNL     1       4.406   4.791  17.221  0.00  0.00    +0.000 A 
ATOM     12  C   UNL     1       4.817   4.182  16.021  0.00  0.00    +0.000 A 
ATOM     13  C   UNL     1       6.179   4.043  15.752  0.00  0.00    +0.000 A 
ATOM     14  C   UNL     1       7.134   4.506  16.658  0.00  0.00    +0.000 A 
ATOM     15  C   UNL     1       6.751   5.091  17.869  0.00  0.00    +0.000 A 
ATOM     16  C   UNL     1       5.382   5.206  18.125  0.00  0.00    +0.000 A 
ATOM     17  N   UNL     1       4.716   5.692  19.229  0.00  0.00    +0.000 N 
ATOM     18  H   UNL     1       5.174   5.995  20.073  0.00  0.00    +0.000 HD
ENDBRANCH   5   9
BRANCH   1  24
ATOM     19  C   UNL     1      -0.348  12.027  18.275  0.00  0.00    +0.000 A 
ATOM     20  C   UNL     1      -0.789  13.352  18.287  0.00  0.00    +0.000 A 
ATOM     21  C   UNL     1      -0.043  14.344  18.912  0.00  0.00    +0.000 A 
ATOM     22  C   UNL     1       1.125  13.979  19.548  0.00  0.00    +0.000 A 
ATOM     23  N   UNL     1       1.578  12.711  19.620  0.00  0.00    +0.000 NA
ATOM     24  C   UNL     1       0.854  11.745  19.006  0.00  0.00    +0.000 A 
BRANCH  19  25
ATOM     25  N   UNL     1      -1.117  10.997  17.726  0.00  0.00    +0.000 N 
ATOM     26  H   UNL     1      -0.553  10.248  17.349  0.00  0.00    +0.000 HD
BRANCH  25  27
ATOM     27  C   UNL     1      -2.442  11.142  17.136  0.00  0.00    +0.000 C 
BRANCH  27  29
ATOM     28  C   UNL     1      -2.987  10.272  14.792  0.00  0.00    +0.000 C 
ATOM     29  C   UNL     1      -2.728   9.913  16.248  0.00  0.00    +0.000 C 
ENDBRANCH  27  29
BRANCH  27  30
ATOM     30  C   UNL     1      -3.483  11.374  18.248  0.00  0.00    +0.000 C 
ATOM     31  C   UNL     1      -4.888  10.865  17.949  0.00  0.00    +0.000 C 
ENDBRANCH  27  30
ENDBRANCH  25  27
ENDBRANCH  19  25
ENDBRANCH   1  24
TORSDOF 6
ENDMDL
MODEL 3
REMARK VINA RESULT:      -7.7      0.559      1.115
REMARK  Name = 
REMARK  8 active torsions:
REMARK  status: ('A' for Active; 'I' for Inactive)
REMARK    1  A    between atoms: C_1  and  C_2
REMARK    2  A    between atoms: C_2  and  C_3
REMARK    3  A    between atoms: C_3  and  C_4
REMARK    4  A    between atoms: C_3  and  N_6
REMARK    5  A    between atoms: C_4  and  C_5
REMARK    6  A    between atoms: N_6  and  C_7
REMARK    7  A    between atoms: C_12  and  N_13
REMARK    8  A    between atoms: C_17  and  C_19
REMARK                            x       y       z     vdW  Elec       q    Type
REMARK                         _______ _______ _______ _____ _____    ______ ____
ROOT
ATOM      1  N   UNL     1       1.028   9.755  19.255  0.00  0.00    +0.000 N 
ATOM      2  C   UNL     1       1.369   9.149  20.551  0.00  0.00    +0.000 C 
ATOM      3  C   UNL     1       1.503   7.621  20.344  0.00  0.00    +0.000 C 
ATOM      4  N   UNL     1       2.386   7.283  19.205  0.00  0.00    +0.000 N 
ATOM      5  C   UNL     1       3.112   6.094  19.274  0.00  0.00    +0.000 C 
ATOM      6  O   UNL     1       3.015   5.349  20.247  0.00  0.00    +0.000 OA
ATOM      7  C   UNL     1       2.045   8.014  17.966  0.00  0.00    +0.000 C 
ATOM      8  C   UNL     1       2.051   9.531  18.240  0.00  0.00    +0.000 C 
ENDROOT
BRANCH   5   9
ATOM      9  C   UNL     1       3.999   5.767  18.173  0.00  0.00    +0.000 A 
ATOM     10  C   UNL     1       5.228   6.337  17.886  0.00  0.00    +0.000 A 
ATOM     11  C   UNL     1       5.799   5.652  16.781  0.00  0.00    +0.000 A 
ATOM     12  C   UNL     1       7.028   5.727  16.097  0.00  0.00    +0.000 A 
ATOM     13  C   UNL     1       7.293   4.834  15.059  0.00  0.00    +0.000 A 
ATOM     14  C   UNL     1       6.355   3.866  14.697  0.00  0.00    +0.000 A 
ATOM     15  C   UNL     1       5.118   3.787  15.343  0.00  0.00    +0.000 A 
ATOM     16  C   UNL     1       4.866   4.702  16.369  0.00  0.00    +0.000 A 
ATOM     17  N   UNL     1       3.743   4.891  17.144  0.00  0.00    +0.000 N 
ATOM     18  H   UNL     1       2.880   4.389  17.015  0.00  0.00    +0.000 HD
ENDBRANCH   5   9
BRANCH   1  24
ATOM     19  C   UNL     1      -0.748  11.152  18.334  0.00  0.00    +0.000 A 
ATOM     20  C   UNL     1      -1.537  12.289  18.527  0.00  0.00    +0.000 A 
ATOM     21  C   UNL     1      -1.225  13.211  19.518  0.00  0.00    +0.000 A 
ATOM     22  C   UNL     1      -0.138  12.955  20.327  0.00  0.00    +0.000 A 
ATOM     23  N   UNL     1       0.631  11.852  20.229  0.00  0.00    +0.000 NA
ATOM     24  C   UNL     1       0.331  10.956  19.259  0.00  0.00    +0.000 A 
BRANCH  19  25
ATOM     25  N   UNL     1      -1.085  10.168  17.399  0.00  0.00    +0.000 N 
ATOM     26  H   UNL     1      -0.328   9.957  16.764  0.00  0.00    +0.000 HD
BRANCH  25  27
ATOM     27  C   UNL     1      -2.424   9.898  16.890  0.00  0.00    +0.000 C 
BRANCH  27  29
ATOM     28  C   UNL     1      -4.690  10.755  17.713  0.00  0.00    +0.000 C 
ATOM     29  C   UNL     1      -3.426   9.983  18.060  0.00  0.00    +0.000 C 
ENDBRANCH  27  29
BRANCH  27  30
ATOM     30  C   UNL     1      -2.737  10.849  15.720  0.00  0.00    +0.000 C 
ATOM     31  C   UNL     1      -3.174  10.177  14.424  0.00  0.00    +0.000 C 
ENDBRANCH  27  30
ENDBRANCH  25  27
ENDBRANCH  19  25
ENDBRANCH   1  24
TORSDOF 6
ENDMDL
MODEL 4
REMARK VINA RESULT:      -7.5      1.139      1.806
REMARK  Name = 
REMARK  8 active torsions:
REMARK  status: ('A' for Active; 'I' for Inactive)
REMARK    1  A    between atoms: C_1  and  C_2
REMARK    2  A    between atoms: C_2  and  C_3
REMARK    3  A    between atoms: C_3  and  C_4
REMARK    4  A    between atoms: C_3  and  N_6
REMARK    5  A    between atoms: C_4  and  C_5
REMARK    6  A    between atoms: N_6  and  C_7
REMARK    7  A    between atoms: C_12  and  N_13
REMARK    8  A    between atoms: C_17  and  C_19
REMARK                            x       y       z     vdW  Elec       q    Type
REMARK                         _______ _______ _______ _____ _____    ______ ____
ROOT
ATOM      1  N   UNL     1       0.677  10.381  19.914  0.00  0.00    +0.000 N 
ATOM      2  C   UNL     1       1.041   9.734  21.183  0.00  0.00    +0.000 C 
ATOM      3  C   UNL     1       1.004   8.201  20.967  0.00  0.00    +0.000 C 
ATOM      4  N   UNL     1       1.770   7.785  19.770  0.00  0.00    +0.000 N 
ATOM      5  C   UNL     1       2.373   6.527  19.789  0.00  0.00    +0.000 C 
ATOM      6  O   UNL     1       2.266   5.788  20.766  0.00  0.00    +0.000 OA
ATOM      7  C   UNL     1       1.423   8.556  18.557  0.00  0.00    +0.000 C 
ATOM      8  C   UNL     1       1.603  10.062  18.832  0.00  0.00    +0.000 C 
ENDROOT
BRANCH   5   9
ATOM      9  C   UNL     1       3.147   6.120  18.631  0.00  0.00    +0.000 A 
ATOM     10  C   UNL     1       3.793   6.939  17.721  0.00  0.00    +0.000 A 
ATOM     11  C   UNL     1       4.510   6.124  16.805  0.00  0.00    +0.000 A 
ATOM     12  C   UNL     1       5.386   6.376  15.732  0.00  0.00    +0.000 A 
ATOM     13  C   UNL     1       5.979   5.305  15.063  0.00  0.00    +0.000 A 
ATOM     14  C   UNL     1       5.715   3.991  15.450  0.00  0.00    +0.000 A 
ATOM     15  C   UNL     1       4.829   3.713  16.494  0.00  0.00    +0.000 A 
ATOM     16  C   UNL     1       4.233   4.800  17.141  0.00  0.00    +0.000 A 
ATOM     17  N   UNL     1       3.305   4.838  18.159  0.00  0.00    +0.000 N 
ATOM     18  H   UNL     1       2.868   4.020  18.550  0.00  0.00    +0.000 HD
ENDBRANCH   5   9
BRANCH   1  24
ATOM     19  C   UNL     1      -1.194  11.862  19.406  0.00  0.00    +0.000 A 
ATOM     20  C   UNL     1      -1.793  13.095  19.673  0.00  0.00    +0.000 A 
ATOM     21  C   UNL     1      -1.110  14.079  20.377  0.00  0.00    +0.000 A 
ATOM     22  C   UNL     1       0.159  13.792  20.834  0.00  0.00    +0.000 A 
ATOM     23  N   UNL     1       0.772  12.604  20.657  0.00  0.00    +0.000 NA
ATOM     24  C   UNL     1       0.109  11.647  19.965  0.00  0.00    +0.000 A 
BRANCH  19  25
ATOM     25  N   UNL     1      -1.887  10.825  18.771  0.00  0.00    +0.000 N 
ATOM     26  H   UNL     1      -1.437   9.928  18.887  0.00  0.00    +0.000 HD
BRANCH  25  27
ATOM     27  C   UNL     1      -2.724  10.959  17.586  0.00  0.00    +0.000 C 
BRANCH  27  29
ATOM     28  C   UNL     1      -2.856  10.202  15.145  0.00  0.00    +0.000 C 
ATOM     29  C   UNL     1      -2.221   9.975  16.509  0.00  0.00    +0.000 C 
ENDBRANCH  27  29
BRANCH  27  30
ATOM     30  C   UNL     1      -4.205  10.770  17.971  0.00  0.00    +0.000 C 
ATOM     31  C   UNL     1      -5.127  11.933  17.626  0.00  0.00    +0.000 C 
ENDBRANCH  27  30
ENDBRANCH  25  27
ENDBRANCH  19  25
ENDBRANCH   1  24
TORSDOF 6
ENDMDL
MODEL 5
REMARK VINA RESULT:      -7.5      1.597      2.354
REMARK  Name = 
REMARK  8 active torsions:
REMARK  status: ('A' for Active; 'I' for Inactive)
REMARK    1  A    between atoms: C_1  and  C_2
REMARK    2  A    between atoms: C_2  and  C_3
REMARK    3  A    between atoms: C_3  and  C_4
REMARK    4  A    between atoms: C_3  and  N_6
REMARK    5  A    between atoms: C_4  and  C_5
REMARK    6  A    between atoms: N_6  and  C_7
REMARK    7  A    between atoms: C_12  and  N_13
REMARK    8  A    between atoms: C_17  and  C_19
REMARK                            x       y       z     vdW  Elec       q    Type
REMARK                         _______ _______ _______ _____ _____    ______ ____
ROOT
ATOM      1  N   UNL     1       1.240  11.525  19.191  0.00  0.00    +0.000 N 
ATOM      2  C   UNL     1       1.173  10.934  20.536  0.00  0.00    +0.000 C 
ATOM      3  C   UNL     1       0.827   9.433  20.383  0.00  0.00    +0.000 C 
ATOM      4  N   UNL     1       1.704   8.751  19.405  0.00  0.00    +0.000 N 
ATOM      5  C   UNL     1       1.982   7.400  19.612  0.00  0.00    +0.000 C 
ATOM      6  O   UNL     1       1.507   6.795  20.572  0.00  0.00    +0.000 OA
ATOM      7  C   UNL     1       1.804   9.464  18.114  0.00  0.00    +0.000 C 
ATOM      8  C   UNL     1       2.268  10.914  18.356  0.00  0.00    +0.000 C 
ENDROOT
BRANCH   5   9
ATOM      9  C   UNL     1       2.861   6.728  18.673  0.00  0.00    +0.000 A 
ATOM     10  C   UNL     1       3.006   5.364  18.486  0.00  0.00    +0.000 A 
ATOM     11  C   UNL     1       3.897   5.146  17.401  0.00  0.00    +0.000 A 
ATOM     12  C   UNL     1       4.364   4.008  16.717  0.00  0.00    +0.000 A 
ATOM     13  C   UNL     1       5.213   4.165  15.622  0.00  0.00    +0.000 A 
ATOM     14  C   UNL     1       5.599   5.437  15.197  0.00  0.00    +0.000 A 
ATOM     15  C   UNL     1       5.171   6.582  15.875  0.00  0.00    +0.000 A 
ATOM     16  C   UNL     1       4.333   6.401  16.980  0.00  0.00    +0.000 A 
ATOM     17  N   UNL     1       3.793   7.320  17.854  0.00  0.00    +0.000 N 
ATOM     18  H   UNL     1       4.001   8.305  17.832  0.00  0.00    +0.000 HD
ENDBRANCH   5   9
BRANCH   1  24
ATOM     19  C   UNL     1      -0.159  13.320  18.310  0.00  0.00    +0.000 A 
ATOM     20  C   UNL     1      -0.478  14.677  18.391  0.00  0.00    +0.000 A 
ATOM     21  C   UNL     1       0.331  15.556  19.102  0.00  0.00    +0.000 A 
ATOM     22  C   UNL     1       1.434  15.046  19.751  0.00  0.00    +0.000 A 
ATOM     23  N   UNL     1       1.768  13.739  19.758  0.00  0.00    +0.000 NA
ATOM     24  C   UNL     1       0.983  12.884  19.061  0.00  0.00    +0.000 A 
BRANCH  19  25
ATOM     25  N   UNL     1      -0.998  12.400  17.672  0.00  0.00    +0.000 N 
ATOM     26  H   UNL     1      -1.043  12.542  16.673  0.00  0.00    +0.000 HD
BRANCH  25  27
ATOM     27  C   UNL     1      -2.158  11.748  18.266  0.00  0.00    +0.000 C 
BRANCH  27  29
ATOM     28  C   UNL     1      -2.563   9.796  16.661  0.00  0.00    +0.000 C 
ATOM     29  C   UNL     1      -2.049  10.227  18.027  0.00  0.00    +0.000 C 
ENDBRANCH  27  29
BRANCH  27  30
ATOM     30  C   UNL     1      -2.275  12.146  19.750  0.00  0.00    +0.000 C 
ATOM     31  C   UNL     1      -3.624  12.713  20.174  0.00  0.00    +0.000 C 
ENDBRANCH  27  30
ENDBRANCH  25  27
ENDBRANCH  19  25
ENDBRANCH   1  24
TORSDOF 6
ENDMDL
MODEL 6
REMARK VINA RESULT:      -7.4      1.057      1.140
REMARK  Name = 
REMARK  8 active torsions:
REMARK  status: ('A' for Active; 'I' for Inactive)
REMARK    1  A    between atoms: C_1  and  C_2
REMARK    2  A    between atoms: C_2  and  C_3
REMARK    3  A    between atoms: C_3  and  C_4
REMARK    4  A    between atoms: C_3  and  N_6
REMARK    5  A    between atoms: C_4  and  C_5
REMARK    6  A    between atoms: N_6  and  C_7
REMARK    7  A    between atoms: C_12  and  N_13
REMARK    8  A    between atoms: C_17  and  C_19
REMARK                            x       y       z     vdW  Elec       q    Type
REMARK                         _______ _______ _______ _____ _____    ______ ____
ROOT
ATOM      1  N   UNL     1       1.262  10.467  19.213  0.00  0.00    +0.000 N 
ATOM      2  C   UNL     1       1.142   9.910  20.569  0.00  0.00    +0.000 C 
ATOM      3  C   UNL     1       0.950   8.379  20.441  0.00  0.00    +0.000 C 
ATOM      4  N   UNL     1       1.963   7.757  19.559  0.00  0.00    +0.000 N 
ATOM      5  C   UNL     1       2.347   6.445  19.833  0.00  0.00    +0.000 C 
ATOM      6  O   UNL     1       1.854   5.824  20.773  0.00  0.00    +0.000 OA
ATOM      7  C   UNL     1       2.100   8.441  18.255  0.00  0.00    +0.000 C 
ATOM      8  C   UNL     1       2.407   9.935  18.483  0.00  0.00    +0.000 C 
ENDROOT
BRANCH   5   9
ATOM      9  C   UNL     1       3.357   5.835  18.989  0.00  0.00    +0.000 A 
ATOM     10  C   UNL     1       3.164   5.187  17.780  0.00  0.00    +0.000 A 
ATOM     11  C   UNL     1       4.432   4.831  17.248  0.00  0.00    +0.000 A 
ATOM     12  C   UNL     1       4.871   4.235  16.050  0.00  0.00    +0.000 A 
ATOM     13  C   UNL     1       6.238   4.083  15.819  0.00  0.00    +0.000 A 
ATOM     14  C   UNL     1       7.172   4.520  16.759  0.00  0.00    +0.000 A 
ATOM     15  C   UNL     1       6.761   5.091  17.967  0.00  0.00    +0.000 A 
ATOM     16  C   UNL     1       5.387   5.220  18.186  0.00  0.00    +0.000 A 
ATOM     17  N   UNL     1       4.695   5.697  19.278  0.00  0.00    +0.000 N 
ATOM     18  H   UNL     1       5.132   5.981  20.140  0.00  0.00    +0.000 HD
ENDBRANCH   5   9
BRANCH   1  24
ATOM     19  C   UNL     1      -0.273  12.093  18.236  0.00  0.00    +0.000 A 
ATOM     20  C   UNL     1      -0.707  13.420  18.250  0.00  0.00    +0.000 A 
ATOM     21  C   UNL     1       0.014  14.398  18.925  0.00  0.00    +0.000 A 
ATOM     22  C   UNL     1       1.148  14.014  19.608  0.00  0.00    +0.000 A 
ATOM     23  N   UNL     1       1.592  12.743  19.680  0.00  0.00    +0.000 NA
ATOM     24  C   UNL     1       0.893  11.792  19.017  0.00  0.00    +0.000 A 
BRANCH  19  25
ATOM     25  N   UNL     1      -1.021  11.076  17.634  0.00  0.00    +0.000 N 
ATOM     26  H   UNL     1      -1.006  11.126  16.625  0.00  0.00    +0.000 HD
BRANCH  25  27
ATOM     27  C   UNL     1      -2.186  10.418  18.212  0.00  0.00    +0.000 C 
BRANCH  27  29
ATOM     28  C   UNL     1      -4.262  11.845  18.662  0.00  0.00    +0.000 C 
ATOM     29  C   UNL     1      -2.894  11.406  19.163  0.00  0.00    +0.000 C 
ENDBRANCH  27  29
BRANCH  27  30
ATOM     30  C   UNL     1      -3.085   9.870  17.088  0.00  0.00    +0.000 C 
ATOM     31  C   UNL     1      -2.618  10.168  15.668  0.00  0.00    +0.000 C 
ENDBRANCH  27  30
ENDBRANCH  25  27
ENDBRANCH  19  25
ENDBRANCH   1  24
TORSDOF 6
ENDMDL
MODEL 7
REMARK VINA RESULT:      -7.4      1.053      1.591
REMARK  Name = 
REMARK  8 active torsions:
REMARK  status: ('A' for Active; 'I' for Inactive)
REMARK    1  A    between atoms: C_1  and  C_2
REMARK    2  A    between atoms: C_2  and  C_3
REMARK    3  A    between atoms: C_3  and  C_4
REMARK    4  A    between atoms: C_3  and  N_6
REMARK    5  A    between atoms: C_4  and  C_5
REMARK    6  A    between atoms: N_6  and  C_7
REMARK    7  A    between atoms: C_12  and  N_13
REMARK    8  A    between atoms: C_17  and  C_19
REMARK                            x       y       z     vdW  Elec       q    Type
REMARK                         _______ _______ _______ _____ _____    ______ ____
ROOT
ATOM      1  N   UNL     1       0.686  10.214  20.033  0.00  0.00    +0.000 N 
ATOM      2  C   UNL     1       0.960   9.564  21.324  0.00  0.00    +0.000 C 
ATOM      3  C   UNL     1       0.925   8.032  21.105  0.00  0.00    +0.000 C 
ATOM      4  N   UNL     1       1.763   7.608  19.962  0.00  0.00    +0.000 N 
ATOM      5  C   UNL     1       2.353   6.346  20.021  0.00  0.00    +0.000 C 
ATOM      6  O   UNL     1       2.176   5.608  20.989  0.00  0.00    +0.000 OA
ATOM      7  C   UNL     1       1.503   8.381  18.729  0.00  0.00    +0.000 C 
ATOM      8  C   UNL     1       1.677   9.886  19.014  0.00  0.00    +0.000 C 
ENDROOT
BRANCH   5   9
ATOM      9  C   UNL     1       3.197   5.930  18.916  0.00  0.00    +0.000 A 
ATOM     10  C   UNL     1       3.446   4.637  18.488  0.00  0.00    +0.000 A 
ATOM     11  C   UNL     1       4.247   4.692  17.316  0.00  0.00    +0.000 A 
ATOM     12  C   UNL     1       4.748   3.734  16.413  0.00  0.00    +0.000 A 
ATOM     13  C   UNL     1       5.474   4.154  15.299  0.00  0.00    +0.000 A 
ATOM     14  C   UNL     1       5.703   5.511  15.070  0.00  0.00    +0.000 A 
ATOM     15  C   UNL     1       5.240   6.480  15.964  0.00  0.00    +0.000 A 
ATOM     16  C   UNL     1       4.528   6.037  17.083  0.00  0.00    +0.000 A 
ATOM     17  N   UNL     1       3.993   6.740  18.140  0.00  0.00    +0.000 N 
ATOM     18  H   UNL     1       4.109   7.732  18.271  0.00  0.00    +0.000 HD
ENDBRANCH   5   9
BRANCH   1  24
ATOM     19  C   UNL     1      -1.090  11.731  19.326  0.00  0.00    +0.000 A 
ATOM     20  C   UNL     1      -1.708  12.963  19.549  0.00  0.00    +0.000 A 
ATOM     21  C   UNL     1      -1.117  13.919  20.366  0.00  0.00    +0.000 A 
ATOM     22  C   UNL     1       0.078  13.603  20.978  0.00  0.00    +0.000 A 
ATOM     23  N   UNL     1       0.700  12.413  20.848  0.00  0.00    +0.000 NA
ATOM     24  C   UNL     1       0.126  11.485  20.047  0.00  0.00    +0.000 A 
BRANCH  19  25
ATOM     25  N   UNL     1      -1.701  10.722  18.575  0.00  0.00    +0.000 N 
ATOM     26  H   UNL     1      -1.130   9.891  18.502  0.00  0.00    +0.000 HD
BRANCH  25  27
ATOM     27  C   UNL     1      -2.658  10.923  17.495  0.00  0.00    +0.000 C 
BRANCH  27  29
ATOM     28  C   UNL     1      -2.931  10.362  15.013  0.00  0.00    +0.000 C 
ATOM     29  C   UNL     1      -2.320   9.951  16.345  0.00  0.00    +0.000 C 
ENDBRANCH  27  29
BRANCH  27  30
ATOM     30  C   UNL     1      -4.093  10.783  18.038  0.00  0.00    +0.000 C 
ATOM     31  C   UNL     1      -5.042  11.921  17.687  0.00  0.00    +0.000 C 
ENDBRANCH  27  30
ENDBRANCH  25  27
ENDBRANCH  19  25
ENDBRANCH   1  24
TORSDOF 6
ENDMDL
MODEL 8
REMARK VINA RESULT:      -7.3      1.695      2.596
REMARK  Name = 
REMARK  8 active torsions:
REMARK  status: ('A' for Active; 'I' for Inactive)
REMARK    1  A    between atoms: C_1  and  C_2
REMARK    2  A    between atoms: C_2  and  C_3
REMARK    3  A    between atoms: C_3  and  C_4
REMARK    4  A    between atoms: C_3  and  N_6
REMARK    5  A    between atoms: C_4  and  C_5
REMARK    6  A    between atoms: N_6  and  C_7
REMARK    7  A    between atoms: C_12  and  N_13
REMARK    8  A    between atoms: C_17  and  C_19
REMARK                            x       y       z     vdW  Elec       q    Type
REMARK                         _______ _______ _______ _____ _____    ______ ____
ROOT
ATOM      1  N   UNL     1       1.228  11.862  19.207  0.00  0.00    +0.000 N 
ATOM      2  C   UNL     1       1.251  11.306  20.569  0.00  0.00    +0.000 C 
ATOM      3  C   UNL     1       0.849   9.814  20.483  0.00  0.00    +0.000 C 
ATOM      4  N   UNL     1       1.626   9.081  19.458  0.00  0.00    +0.000 N 
ATOM      5  C   UNL     1       1.879   7.727  19.678  0.00  0.00    +0.000 C 
ATOM      6  O   UNL     1       1.464   7.161  20.689  0.00  0.00    +0.000 OA
ATOM      7  C   UNL     1       1.644   9.758  18.144  0.00  0.00    +0.000 C 
ATOM      8  C   UNL     1       2.169  11.199  18.310  0.00  0.00    +0.000 C 
ENDROOT
BRANCH   5   9
ATOM      9  C   UNL     1       2.661   7.005  18.692  0.00  0.00    +0.000 A 
ATOM     10  C   UNL     1       3.559   7.535  17.781  0.00  0.00    +0.000 A 
ATOM     11  C   UNL     1       4.173   6.466  17.074  0.00  0.00    +0.000 A 
ATOM     12  C   UNL     1       5.189   6.375  16.103  0.00  0.00    +0.000 A 
ATOM     13  C   UNL     1       5.602   5.120  15.656  0.00  0.00    +0.000 A 
ATOM     14  C   UNL     1       5.021   3.958  16.164  0.00  0.00    +0.000 A 
ATOM     15  C   UNL     1       3.993   4.021  17.109  0.00  0.00    +0.000 A 
ATOM     16  C   UNL     1       3.584   5.289  17.533  0.00  0.00    +0.000 A 
ATOM     17  N   UNL     1       2.586   5.662  18.407  0.00  0.00    +0.000 N 
ATOM     18  H   UNL     1       1.944   5.016  18.835  0.00  0.00    +0.000 HD
ENDBRANCH   5   9
BRANCH   1  24
ATOM     19  C   UNL     1      -0.209  13.679  18.441  0.00  0.00    +0.000 A 
ATOM     20  C   UNL     1      -0.471  15.049  18.512  0.00  0.00    +0.000 A 
ATOM     21  C   UNL     1       0.448  15.919  19.086  0.00  0.00    +0.000 A 
ATOM     22  C   UNL     1       1.606  15.389  19.614  0.00  0.00    +0.000 A 
ATOM     23  N   UNL     1       1.894  14.072  19.626  0.00  0.00    +0.000 NA
ATOM     24  C   UNL     1       1.002  13.224  19.061  0.00  0.00    +0.000 A 
BRANCH  19  25
ATOM     25  N   UNL     1      -1.150  12.771  17.943  0.00  0.00    +0.000 N 
ATOM     26  H   UNL     1      -1.518  13.046  17.043  0.00  0.00    +0.000 HD
BRANCH  25  27
ATOM     27  C   UNL     1      -2.021  11.920  18.744  0.00  0.00    +0.000 C 
BRANCH  27  29
ATOM     28  C   UNL     1      -2.098  12.323  21.270  0.00  0.00    +0.000 C 
ATOM     29  C   UNL     1      -2.604  12.757  19.902  0.00  0.00    +0.000 C 
ENDBRANCH  27  29
BRANCH  27  30
ATOM     30  C   UNL     1      -3.084  11.266  17.840  0.00  0.00    +0.000 C 
ATOM     31  C   UNL     1      -2.772   9.848  17.380  0.00  0.00    +0.000 C 
ENDBRANCH  27  30
ENDBRANCH  25  27
ENDBRANCH  19  25
ENDBRANCH   1  24
TORSDOF 6
ENDMDL
MODEL 9
REMARK VINA RESULT:      -7.3      1.658      2.662
REMARK  Name = 
REMARK  8 active torsions:
REMARK  status: ('A' for Active; 'I' for Inactive)
REMARK    1  A    between atoms: C_1  and  C_2
REMARK    2  A    between atoms: C_2  and  C_3
REMARK    3  A    between atoms: C_3  and  C_4
REMARK    4  A    between atoms: C_3  and  N_6
REMARK    5  A    between atoms: C_4  and  C_5
REMARK    6  A    between atoms: N_6  and  C_7
REMARK    7  A    between atoms: C_12  and  N_13
REMARK    8  A    between atoms: C_17  and  C_19
REMARK                            x       y       z     vdW  Elec       q    Type
REMARK                         _______ _______ _______ _____ _____    ______ ____
ROOT
ATOM      1  N   UNL     1       1.214  11.692  19.227  0.00  0.00    +0.000 N 
ATOM      2  C   UNL     1       1.232  11.107  20.576  0.00  0.00    +0.000 C 
ATOM      3  C   UNL     1       0.858   9.610  20.453  0.00  0.00    +0.000 C 
ATOM      4  N   UNL     1       1.658   8.914  19.420  0.00  0.00    +0.000 N 
ATOM      5  C   UNL     1       1.933   7.560  19.613  0.00  0.00    +0.000 C 
ATOM      6  O   UNL     1       1.517   6.964  20.605  0.00  0.00    +0.000 OA
ATOM      7  C   UNL     1       1.679   9.621  18.122  0.00  0.00    +0.000 C 
ATOM      8  C   UNL     1       2.176  11.066  18.327  0.00  0.00    +0.000 C 
ENDROOT
BRANCH   5   9
ATOM      9  C   UNL     1       2.738   6.875  18.619  0.00  0.00    +0.000 A 
ATOM     10  C   UNL     1       3.621   7.443  17.716  0.00  0.00    +0.000 A 
ATOM     11  C   UNL     1       4.269   6.402  16.998  0.00  0.00    +0.000 A 
ATOM     12  C   UNL     1       5.288   6.354  16.028  0.00  0.00    +0.000 A 
ATOM     13  C   UNL     1       5.740   5.117  15.566  0.00  0.00    +0.000 A 
ATOM     14  C   UNL     1       5.194   3.932  16.059  0.00  0.00    +0.000 A 
ATOM     15  C   UNL     1       4.163   3.952  17.002  0.00  0.00    +0.000 A 
ATOM     16  C   UNL     1       3.714   5.202  17.440  0.00  0.00    +0.000 A 
ATOM     17  N   UNL     1       2.704   5.534  18.317  0.00  0.00    +0.000 N 
ATOM     18  H   UNL     1       2.081   4.863  18.736  0.00  0.00    +0.000 HD
ENDBRANCH   5   9
BRANCH   1  24
ATOM     19  C   UNL     1      -0.206  13.502  18.414  0.00  0.00    +0.000 A 
ATOM     20  C   UNL     1      -0.506  14.863  18.510  0.00  0.00    +0.000 A 
ATOM     21  C   UNL     1       0.344  15.733  19.182  0.00  0.00    +0.000 A 
ATOM     22  C   UNL     1       1.472  15.211  19.778  0.00  0.00    +0.000 A 
ATOM     23  N   UNL     1       1.792  13.901  19.769  0.00  0.00    +0.000 NA
ATOM     24  C   UNL     1       0.966  13.054  19.110  0.00  0.00    +0.000 A 
BRANCH  19  25
ATOM     25  N   UNL     1      -1.083  12.592  17.816  0.00  0.00    +0.000 N 
ATOM     26  H   UNL     1      -0.962  12.535  16.814  0.00  0.00    +0.000 HD
BRANCH  25  27
ATOM     27  C   UNL     1      -2.406  12.232  18.309  0.00  0.00    +0.000 C 
BRANCH  27  29
ATOM     28  C   UNL     1      -1.828   9.935  17.340  0.00  0.00    +0.000 C 
ATOM     29  C   UNL     1      -2.904  10.993  17.536  0.00  0.00    +0.000 C 
ENDBRANCH  27  29
BRANCH  27  30
ATOM     30  C   UNL     1      -2.358  12.045  19.838  0.00  0.00    +0.000 C 
ATOM     31  C   UNL     1      -3.418  12.804  20.626  0.00  0.00    +0.000 C 
ENDBRANCH  27  30
ENDBRANCH  25  27
ENDBRANCH  19  25
ENDBRANCH   1  24
TORSDOF 6
ENDMDL
