MODEL 1
REMARK VINA RESULT:      -8.1      0.000      0.000
REMARK  Name = 
REMARK  4 active torsions:
REMARK  status: ('A' for Active; 'I' for Inactive)
REMARK    1  A    between atoms: C_4  and  C_5
REMARK    2  A    between atoms: N_16  and  C_17
REMARK    3  A    between atoms: C_17  and  N_18
REMARK    4  A    between atoms: N_18  and  C_19
REMARK                            x       y       z     vdW  Elec       q    Type
REMARK                         _______ _______ _______ _____ _____    ______ ____
ROOT
ATOM      1  S   UNL     1       0.863   3.004  19.467  0.00  0.00    +0.000 S 
ATOM      2  C   UNL     1       2.086   4.095  19.271  0.00  0.00    +0.000 A 
ATOM      3  O   UNL     1       3.025   3.888  18.308  0.00  0.00    +0.000 OA
ATOM      4  C   UNL     1       3.801   4.995  18.371  0.00  0.00    +0.000 A 
ATOM      5  N   UNL     1       3.477   5.853  19.290  0.00  0.00    +0.000 NA
ATOM      6  N   UNL     1       2.381   5.283  19.889  0.00  0.00    +0.000 N 
ENDROOT
BRANCH   4   7
ATOM      7  C   UNL     1       4.867   5.125  17.366  0.00  0.00    +0.000 A 
ATOM      8  C   UNL     1       6.106   5.708  17.669  0.00  0.00    +0.000 A 
ATOM      9  C   UNL     1       7.113   5.758  16.698  0.00  0.00    +0.000 A 
ATOM     10  C   UNL     1       6.883   5.231  15.427  0.00  0.00    +0.000 A 
ATOM     11  C   UNL     1       5.655   4.634  15.129  0.00  0.00    +0.000 A 
ATOM     12  C   UNL     1       4.643   4.591  16.090  0.00  0.00    +0.000 A 
ATOM     13  O   UNL     1       5.367   4.068  13.914  0.00  0.00    +0.000 OA
ATOM     14  C   UNL     1       6.556   3.831  13.151  0.00  0.00    +0.000 C 
ATOM     15  C   UNL     1       7.471   5.046  13.191  0.00  0.00    +0.000 C 
ATOM     16  O   UNL     1       7.913   5.315  14.525  0.00  0.00    +0.000 OA
ENDBRANCH   4   7
BRANCH   6  17
ATOM     17  C   UNL     1       1.537   6.053  20.787  0.00  0.00    +0.000 C 
BRANCH  17  18
ATOM     18  N   UNL     1       2.053   7.401  20.882  0.00  0.00    +0.000 N 
ATOM     19  H   UNL     1       3.065   7.450  20.876  0.00  0.00    +0.000 HD
BRANCH  18  20
ATOM     20  C   UNL     1       1.377   8.466  20.292  0.00  0.00    +0.000 A 
ATOM     21  C   UNL     1       1.559   8.851  18.956  0.00  0.00    +0.000 A 
ATOM     22  C   UNL     1       0.778   9.853  18.365  0.00  0.00    +0.000 A 
ATOM     23  C   UNL     1      -0.221  10.475  19.106  0.00  0.00    +0.000 A 
ATOM     24 BR   UNL     1      -1.291  11.811  18.307  0.00  0.00    +0.000 Br
ATOM     25  C   UNL     1      -0.438  10.105  20.428  0.00  0.00    +0.000 A 
ATOM     26  C   UNL     1       0.351   9.104  21.010  0.00  0.00    +0.000 A 
ENDBRANCH  18  20
ENDBRANCH  17  18
ENDBRANCH   6  17
TORSDOF 4
ENDMDL
MODEL 2
REMARK VINA RESULT:      -8.1      3.129      4.232
REMARK  Name = 
REMARK  4 active torsions:
REMARK  status: ('A' for Active; 'I' for Inactive)
REMARK    1  A    between atoms: C_4  and  C_5
REMARK    2  A    between atoms: N_16  and  C_17
REMARK    3  A    between atoms: C_17  and  N_18
REMARK    4  A    between atoms: N_18  and  C_19
REMARK                            x       y       z     vdW  Elec       q    Type
REMARK                         _______ _______ _______ _____ _____    ______ ____
ROOT
ATOM      1  S   UNL     1       0.394   9.130  21.748  0.00  0.00    +0.000 S 
ATOM      2  C   UNL     1       1.137   8.926  20.288  0.00  0.00    +0.000 A 
ATOM      3  O   UNL     1       1.860   7.798  20.053  0.00  0.00    +0.000 OA
ATOM      4  C   UNL     1       2.241   7.923  18.760  0.00  0.00    +0.000 A 
ATOM      5  N   UNL     1       1.871   9.019  18.172  0.00  0.00    +0.000 NA
ATOM      6  N   UNL     1       1.168   9.685  19.146  0.00  0.00    +0.000 N 
ENDROOT
BRANCH   4   7
ATOM      7  C   UNL     1       2.967   6.792  18.163  0.00  0.00    +0.000 A 
ATOM      8  C   UNL     1       2.538   5.466  18.328  0.00  0.00    +0.000 A 
ATOM      9  C   UNL     1       3.225   4.424  17.693  0.00  0.00    +0.000 A 
ATOM     10  C   UNL     1       4.338   4.703  16.901  0.00  0.00    +0.000 A 
ATOM     11  C   UNL     1       4.755   6.025  16.721  0.00  0.00    +0.000 A 
ATOM     12  C   UNL     1       4.081   7.067  17.360  0.00  0.00    +0.000 A 
ATOM     13  O   UNL     1       5.820   6.380  15.934  0.00  0.00    +0.000 OA
ATOM     14  C   UNL     1       6.195   5.316  15.051  0.00  0.00    +0.000 C 
ATOM     15  C   UNL     1       6.250   3.992  15.798  0.00  0.00    +0.000 C 
ATOM     16  O   UNL     1       4.963   3.634  16.310  0.00  0.00    +0.000 OA
ENDBRANCH   4   7
BRANCH   6  17
ATOM     17  C   UNL     1       0.342  10.833  18.817  0.00  0.00    +0.000 C 
BRANCH  17  18
ATOM     18  N   UNL     1      -0.479  10.513  17.670  0.00  0.00    +0.000 N 
ATOM     19  H   UNL     1      -0.194   9.668  17.189  0.00  0.00    +0.000 HD
BRANCH  18  20
ATOM     20  C   UNL     1      -1.842  10.797  17.668  0.00  0.00    +0.000 A 
ATOM     21  C   UNL     1      -2.757  10.185  16.798  0.00  0.00    +0.000 A 
ATOM     22  C   UNL     1      -4.136  10.411  16.902  0.00  0.00    +0.000 A 
ATOM     23  C   UNL     1      -4.625  11.244  17.902  0.00  0.00    +0.000 A 
ATOM     24 BR   UNL     1      -6.486  11.532  18.059  0.00  0.00    +0.000 Br
ATOM     25  C   UNL     1      -3.747  11.853  18.790  0.00  0.00    +0.000 A 
ATOM     26  C   UNL     1      -2.369  11.622  18.675  0.00  0.00    +0.000 A 
ENDBRANCH  18  20
ENDBRANCH  17  18
ENDBRANCH   6  17
TORSDOF 4
ENDMDL
MODEL 3
REMARK VINA RESULT:      -8.0      1.056      1.558
REMARK  Name = 
REMARK  4 active torsions:
REMARK  status: ('A' for Active; 'I' for Inactive)
REMARK    1  A    between atoms: C_4  and  C_5
REMARK    2  A    between atoms: N_16  and  C_17
REMARK    3  A    between atoms: C_17  and  N_18
REMARK    4  A    between atoms: N_18  and  C_19
REMARK                            x       y       z     vdW  Elec       q    Type
REMARK                         _______ _______ _______ _____ _____    ______ ____
ROOT
ATOM      1  S   UNL     1       1.104   2.989  19.961  0.00  0.00    +0.000 S 
ATOM      2  C   UNL     1       2.194   4.179  19.610  0.00  0.00    +0.000 A 
ATOM      3  O   UNL     1       3.162   3.952  18.681  0.00  0.00    +0.000 OA
ATOM      4  C   UNL     1       3.803   5.141  18.588  0.00  0.00    +0.000 A 
ATOM      5  N   UNL     1       3.371   6.072  19.380  0.00  0.00    +0.000 NA
ATOM      6  N   UNL     1       2.341   5.466  20.057  0.00  0.00    +0.000 N 
ENDROOT
BRANCH   4   7
ATOM      7  C   UNL     1       4.858   5.254  17.569  0.00  0.00    +0.000 A 
ATOM      8  C   UNL     1       6.097   5.851  17.848  0.00  0.00    +0.000 A 
ATOM      9  C   UNL     1       7.094   5.885  16.866  0.00  0.00    +0.000 A 
ATOM     10  C   UNL     1       6.855   5.330  15.609  0.00  0.00    +0.000 A 
ATOM     11  C   UNL     1       5.627   4.720  15.336  0.00  0.00    +0.000 A 
ATOM     12  C   UNL     1       4.625   4.692  16.307  0.00  0.00    +0.000 A 
ATOM     13  O   UNL     1       5.330   4.127  14.136  0.00  0.00    +0.000 OA
ATOM     14  C   UNL     1       6.514   3.880  13.367  0.00  0.00    +0.000 C 
ATOM     15  C   UNL     1       7.422   5.100  13.372  0.00  0.00    +0.000 C 
ATOM     16  O   UNL     1       7.876   5.400  14.695  0.00  0.00    +0.000 OA
ENDBRANCH   4   7
BRANCH   6  17
ATOM     17  C   UNL     1       1.404   6.249  20.845  0.00  0.00    +0.000 C 
BRANCH  17  18
ATOM     18  N   UNL     1       1.869   7.616  20.914  0.00  0.00    +0.000 N 
ATOM     19  H   UNL     1       2.606   7.829  20.252  0.00  0.00    +0.000 HD
BRANCH  18  20
ATOM     20  C   UNL     1       0.990   8.653  21.217  0.00  0.00    +0.000 A 
ATOM     21  C   UNL     1       0.595   8.973  22.524  0.00  0.00    +0.000 A 
ATOM     22  C   UNL     1      -0.199  10.094  22.801  0.00  0.00    +0.000 A 
ATOM     23  C   UNL     1      -0.595  10.931  21.764  0.00  0.00    +0.000 A 
ATOM     24 BR   UNL     1      -1.646  12.456  22.135  0.00  0.00    +0.000 Br
ATOM     25  C   UNL     1      -0.206  10.652  20.459  0.00  0.00    +0.000 A 
ATOM     26  C   UNL     1       0.585   9.526  20.193  0.00  0.00    +0.000 A 
ENDBRANCH  18  20
ENDBRANCH  17  18
ENDBRANCH   6  17
TORSDOF 4
ENDMDL
MODEL 4
REMARK VINA RESULT:      -8.0      0.442      1.057
REMARK  Name = 
REMARK  4 active torsions:
REMARK  status: ('A' for Active; 'I' for Inactive)
REMARK    1  A    between atoms: C_4  and  C_5
REMARK    2  A    between atoms: N_16  and  C_17
REMARK    3  A    between atoms: C_17  and  N_18
REMARK    4  A    between atoms: N_18  and  C_19
REMARK                            x       y       z     vdW  Elec       q    Type
REMARK                         _______ _______ _______ _____ _____    ______ ____
ROOT
ATOM      1  S   UNL     1       1.386   2.906  20.389  0.00  0.00    +0.000 S 
ATOM      2  C   UNL     1       2.369   4.134  19.887  0.00  0.00    +0.000 A 
ATOM      3  O   UNL     1       3.345   3.884  18.972  0.00  0.00    +0.000 OA
ATOM      4  C   UNL     1       3.883   5.103  18.734  0.00  0.00    +0.000 A 
ATOM      5  N   UNL     1       3.379   6.080  19.423  0.00  0.00    +0.000 NA
ATOM      6  N   UNL     1       2.410   5.473  20.182  0.00  0.00    +0.000 N 
ENDROOT
BRANCH   4   7
ATOM      7  C   UNL     1       4.917   5.186  17.691  0.00  0.00    +0.000 A 
ATOM      8  C   UNL     1       6.198   5.691  17.956  0.00  0.00    +0.000 A 
ATOM      9  C   UNL     1       7.170   5.698  16.948  0.00  0.00    +0.000 A 
ATOM     10  C   UNL     1       6.863   5.207  15.679  0.00  0.00    +0.000 A 
ATOM     11  C   UNL     1       5.591   4.688  15.419  0.00  0.00    +0.000 A 
ATOM     12  C   UNL     1       4.615   4.688  16.416  0.00  0.00    +0.000 A 
ATOM     13  O   UNL     1       5.225   4.161  14.208  0.00  0.00    +0.000 OA
ATOM     14  C   UNL     1       6.370   3.867  13.397  0.00  0.00    +0.000 C 
ATOM     15  C   UNL     1       7.356   5.025  13.420  0.00  0.00    +0.000 C 
ATOM     16  O   UNL     1       7.862   5.245  14.740  0.00  0.00    +0.000 OA
ENDBRANCH   4   7
BRANCH   6  17
ATOM     17  C   UNL     1       1.415   6.259  20.892  0.00  0.00    +0.000 C 
BRANCH  17  18
ATOM     18  N   UNL     1       1.869   7.630  20.977  0.00  0.00    +0.000 N 
ATOM     19  H   UNL     1       2.877   7.727  20.945  0.00  0.00    +0.000 HD
BRANCH  18  20
ATOM     20  C   UNL     1       1.128   8.663  20.409  0.00  0.00    +0.000 A 
ATOM     21  C   UNL     1       0.184   9.418  21.121  0.00  0.00    +0.000 A 
ATOM     22  C   UNL     1      -0.459  10.523  20.547  0.00  0.00    +0.000 A 
ATOM     23  C   UNL     1      -0.147  10.904  19.247  0.00  0.00    +0.000 A 
ATOM     24 BR   UNL     1      -0.994  12.407  18.479  0.00  0.00    +0.000 Br
ATOM     25  C   UNL     1       0.797  10.187  18.520  0.00  0.00    +0.000 A 
ATOM     26  C   UNL     1       1.431   9.082  19.103  0.00  0.00    +0.000 A 
ENDBRANCH  18  20
ENDBRANCH  17  18
ENDBRANCH   6  17
TORSDOF 4
ENDMDL
MODEL 5
REMARK VINA RESULT:      -8.0      1.390      1.628
REMARK  Name = 
REMARK  4 active torsions:
REMARK  status: ('A' for Active; 'I' for Inactive)
REMARK    1  A    between atoms: C_4  and  C_5
REMARK    2  A    between atoms: N_16  and  C_17
REMARK    3  A    between atoms: C_17  and  N_18
REMARK    4  A    between atoms: N_18  and  C_19
REMARK                            x       y       z     vdW  Elec       q    Type
REMARK                         _______ _______ _______ _____ _____    ______ ____
ROOT
ATOM      1  S   UNL     1       1.830   3.383  21.488  0.00  0.00    +0.000 S 
ATOM      2  C   UNL     1       2.578   4.542  20.581  0.00  0.00    +0.000 A 
ATOM      3  O   UNL     1       3.605   4.194  19.759  0.00  0.00    +0.000 OA
ATOM      4  C   UNL     1       3.911   5.348  19.120  0.00  0.00    +0.000 A 
ATOM      5  N   UNL     1       3.218   6.385  19.477  0.00  0.00    +0.000 NA
ATOM      6  N   UNL     1       2.361   5.887  20.427  0.00  0.00    +0.000 N 
ENDROOT
BRANCH   4   7
ATOM      7  C   UNL     1       4.937   5.279  18.068  0.00  0.00    +0.000 A 
ATOM      8  C   UNL     1       6.292   5.524  18.335  0.00  0.00    +0.000 A 
ATOM      9  C   UNL     1       7.242   5.390  17.316  0.00  0.00    +0.000 A 
ATOM     10  C   UNL     1       6.841   5.017  16.033  0.00  0.00    +0.000 A 
ATOM     11  C   UNL     1       5.493   4.757  15.770  0.00  0.00    +0.000 A 
ATOM     12  C   UNL     1       4.540   4.899  16.779  0.00  0.00    +0.000 A 
ATOM     13  O   UNL     1       5.028   4.357  14.544  0.00  0.00    +0.000 OA
ATOM     14  C   UNL     1       6.092   3.888  13.707  0.00  0.00    +0.000 C 
ATOM     15  C   UNL     1       7.279   4.839  13.763  0.00  0.00    +0.000 C 
ATOM     16  O   UNL     1       7.825   4.906  15.083  0.00  0.00    +0.000 OA
ENDBRANCH   4   7
BRANCH   6  17
ATOM     17  C   UNL     1       1.220   6.663  20.883  0.00  0.00    +0.000 C 
BRANCH  17  18
ATOM     18  N   UNL     1       1.694   7.877  21.511  0.00  0.00    +0.000 N 
ATOM     19  H   UNL     1       2.680   8.052  21.364  0.00  0.00    +0.000 HD
BRANCH  18  20
ATOM     20  C   UNL     1       0.872   8.997  21.607  0.00  0.00    +0.000 A 
ATOM     21  C   UNL     1       0.430   9.727  20.494  0.00  0.00    +0.000 A 
ATOM     22  C   UNL     1      -0.488  10.779  20.620  0.00  0.00    +0.000 A 
ATOM     23  C   UNL     1      -0.996  11.104  21.873  0.00  0.00    +0.000 A 
ATOM     24 BR   UNL     1      -2.251  12.505  22.044  0.00  0.00    +0.000 Br
ATOM     25  C   UNL     1      -0.591  10.389  22.994  0.00  0.00    +0.000 A 
ATOM     26  C   UNL     1       0.330   9.341  22.856  0.00  0.00    +0.000 A 
ENDBRANCH  18  20
ENDBRANCH  17  18
ENDBRANCH   6  17
TORSDOF 4
ENDMDL
MODEL 6
REMARK VINA RESULT:      -8.0      3.384      7.396
REMARK  Name = 
REMARK  4 active torsions:
REMARK  status: ('A' for Active; 'I' for Inactive)
REMARK    1  A    between atoms: C_4  and  C_5
REMARK    2  A    between atoms: N_16  and  C_17
REMARK    3  A    between atoms: C_17  and  N_18
REMARK    4  A    between atoms: N_18  and  C_19
REMARK                            x       y       z     vdW  Elec       q    Type
REMARK                         _______ _______ _______ _____ _____    ______ ____
ROOT
ATOM      1  S   UNL     1       3.353   2.527  19.427  0.00  0.00    +0.000 S 
ATOM      2  C   UNL     1       3.299   3.997  18.677  0.00  0.00    +0.000 A 
ATOM      3  O   UNL     1       2.571   5.007  19.227  0.00  0.00    +0.000 OA
ATOM      4  C   UNL     1       2.819   6.062  18.416  0.00  0.00    +0.000 A 
ATOM      5  N   UNL     1       3.589   5.816  17.401  0.00  0.00    +0.000 NA
ATOM      6  N   UNL     1       3.899   4.487  17.546  0.00  0.00    +0.000 N 
ENDROOT
BRANCH   4   7
ATOM      7  C   UNL     1       2.246   7.358  18.809  0.00  0.00    +0.000 A 
ATOM      8  C   UNL     1       2.080   8.405  17.890  0.00  0.00    +0.000 A 
ATOM      9  C   UNL     1       1.476   9.601  18.294  0.00  0.00    +0.000 A 
ATOM     10  C   UNL     1       1.045   9.756  19.611  0.00  0.00    +0.000 A 
ATOM     11  C   UNL     1       1.194   8.707  20.523  0.00  0.00    +0.000 A 
ATOM     12  C   UNL     1       1.805   7.515  20.129  0.00  0.00    +0.000 A 
ATOM     13  O   UNL     1       0.768   8.773  21.824  0.00  0.00    +0.000 OA
ATOM     14  C   UNL     1      -0.155   9.852  22.019  0.00  0.00    +0.000 C 
ATOM     15  C   UNL     1       0.356  11.122  21.354  0.00  0.00    +0.000 C 
ATOM     16  O   UNL     1       0.463  10.955  19.937  0.00  0.00    +0.000 OA
ENDBRANCH   4   7
BRANCH   6  17
ATOM     17  C   UNL     1       4.968   3.881  16.771  0.00  0.00    +0.000 C 
BRANCH  17  18
ATOM     18  N   UNL     1       6.208   3.992  17.508  0.00  0.00    +0.000 N 
ATOM     19  H   UNL     1       6.800   3.174  17.432  0.00  0.00    +0.000 HD
BRANCH  18  20
ATOM     20  C   UNL     1       6.856   5.218  17.631  0.00  0.00    +0.000 A 
ATOM     21  C   UNL     1       6.688   6.274  16.723  0.00  0.00    +0.000 A 
ATOM     22  C   UNL     1       7.267   7.532  16.942  0.00  0.00    +0.000 A 
ATOM     23  C   UNL     1       8.012   7.757  18.094  0.00  0.00    +0.000 A 
ATOM     24 BR   UNL     1       8.775   9.458  18.403  0.00  0.00    +0.000 Br
ATOM     25  C   UNL     1       8.184   6.736  19.021  0.00  0.00    +0.000 A 
ATOM     26  C   UNL     1       7.603   5.482  18.791  0.00  0.00    +0.000 A 
ENDBRANCH  18  20
ENDBRANCH  17  18
ENDBRANCH   6  17
TORSDOF 4
ENDMDL
MODEL 7
REMARK VINA RESULT:      -8.0      3.716      7.952
REMARK  Name = 
REMARK  4 active torsions:
REMARK  status: ('A' for Active; 'I' for Inactive)
REMARK    1  A    between atoms: C_4  and  C_5
REMARK    2  A    between atoms: N_16  and  C_17
REMARK    3  A    between atoms: C_17  and  N_18
REMARK    4  A    between atoms: N_18  and  C_19
REMARK                            x       y       z     vdW  Elec       q    Type
REMARK                         _______ _______ _______ _____ _____    ______ ____
ROOT
ATOM      1  S   UNL     1       1.996   3.045  21.646  0.00  0.00    +0.000 S 
ATOM      2  C   UNL     1       2.361   4.319  20.662  0.00  0.00    +0.000 A 
ATOM      3  O   UNL     1       1.683   5.491  20.800  0.00  0.00    +0.000 OA
ATOM      4  C   UNL     1       2.289   6.319  19.915  0.00  0.00    +0.000 A 
ATOM      5  N   UNL     1       3.242   5.786  19.215  0.00  0.00    +0.000 NA
ATOM      6  N   UNL     1       3.295   4.493  19.674  0.00  0.00    +0.000 N 
ENDROOT
BRANCH   4   7
ATOM      7  C   UNL     1       1.843   7.720  19.897  0.00  0.00    +0.000 A 
ATOM      8  C   UNL     1       1.808   8.472  18.713  0.00  0.00    +0.000 A 
ATOM      9  C   UNL     1       1.322   9.784  18.731  0.00  0.00    +0.000 A 
ATOM     10  C   UNL     1       0.876  10.347  19.927  0.00  0.00    +0.000 A 
ATOM     11  C   UNL     1       0.895   9.593  21.104  0.00  0.00    +0.000 A 
ATOM     12  C   UNL     1       1.388   8.288  21.094  0.00  0.00    +0.000 A 
ATOM     13  O   UNL     1       0.446  10.067  22.309  0.00  0.00    +0.000 OA
ATOM     14  C   UNL     1      -0.365  11.237  22.143  0.00  0.00    +0.000 C 
ATOM     15  C   UNL     1       0.290  12.211  21.176  0.00  0.00    +0.000 C 
ATOM     16  O   UNL     1       0.414  11.637  19.871  0.00  0.00    +0.000 OA
ENDBRANCH   4   7
BRANCH   6  17
ATOM     17  C   UNL     1       4.418   3.631  19.348  0.00  0.00    +0.000 C 
BRANCH  17  18
ATOM     18  N   UNL     1       5.524   4.445  18.894  0.00  0.00    +0.000 N 
ATOM     19  H   UNL     1       6.293   4.490  19.551  0.00  0.00    +0.000 HD
BRANCH  18  20
ATOM     20  C   UNL     1       5.859   4.504  17.543  0.00  0.00    +0.000 A 
ATOM     21  C   UNL     1       7.144   4.818  17.079  0.00  0.00    +0.000 A 
ATOM     22  C   UNL     1       7.472   4.755  15.719  0.00  0.00    +0.000 A 
ATOM     23  C   UNL     1       6.514   4.352  14.796  0.00  0.00    +0.000 A 
ATOM     24 BR   UNL     1       6.959   4.243  12.963  0.00  0.00    +0.000 Br
ATOM     25  C   UNL     1       5.235   4.017  15.225  0.00  0.00    +0.000 A 
ATOM     26  C   UNL     1       4.916   4.087  16.588  0.00  0.00    +0.000 A 
ENDBRANCH  18  20
ENDBRANCH  17  18
ENDBRANCH   6  17
TORSDOF 4
ENDMDL
MODEL 8
REMARK VINA RESULT:      -8.0      5.923      7.714
REMARK  Name = 
REMARK  4 active torsions:
REMARK  status: ('A' for Active; 'I' for Inactive)
REMARK    1  A    between atoms: C_4  and  C_5
REMARK    2  A    between atoms: N_16  and  C_17
REMARK    3  A    between atoms: C_17  and  N_18
REMARK    4  A    between atoms: N_18  and  C_19
REMARK                            x       y       z     vdW  Elec       q    Type
REMARK                         _______ _______ _______ _____ _____    ______ ____
ROOT
ATOM      1  S   UNL     1       7.915   5.148  18.735  0.00  0.00    +0.000 S 
ATOM      2  C   UNL     1       7.787   6.746  18.339  0.00  0.00    +0.000 A 
ATOM      3  O   UNL     1       8.586   7.658  18.956  0.00  0.00    +0.000 OA
ATOM      4  C   UNL     1       8.281   8.824  18.338  0.00  0.00    +0.000 A 
ATOM      5  N   UNL     1       7.355   8.750  17.432  0.00  0.00    +0.000 NA
ATOM      6  N   UNL     1       7.015   7.419  17.427  0.00  0.00    +0.000 N 
ENDROOT
BRANCH   4   7
ATOM      7  C   UNL     1       9.067  10.008  18.716  0.00  0.00    +0.000 A 
ATOM      8  C   UNL     1       9.320  10.333  20.057  0.00  0.00    +0.000 A 
ATOM      9  C   UNL     1      10.122  11.437  20.370  0.00  0.00    +0.000 A 
ATOM     10  C   UNL     1      10.666  12.216  19.349  0.00  0.00    +0.000 A 
ATOM     11  C   UNL     1      10.428  11.883  18.013  0.00  0.00    +0.000 A 
ATOM     12  C   UNL     1       9.621  10.790  17.694  0.00  0.00    +0.000 A 
ATOM     13  O   UNL     1      10.953  12.582  16.957  0.00  0.00    +0.000 OA
ATOM     14  C   UNL     1      12.037  13.423  17.372  0.00  0.00    +0.000 C 
ATOM     15  C   UNL     1      11.674  14.181  18.640  0.00  0.00    +0.000 C 
ATOM     16  O   UNL     1      11.441  13.283  19.729  0.00  0.00    +0.000 OA
ENDBRANCH   4   7
BRANCH   6  17
ATOM     17  C   UNL     1       6.208   6.859  16.357  0.00  0.00    +0.000 C 
BRANCH  17  18
ATOM     18  N   UNL     1       4.809   7.003  16.695  0.00  0.00    +0.000 N 
ATOM     19  H   UNL     1       4.295   7.595  16.054  0.00  0.00    +0.000 HD
BRANCH  18  20
ATOM     20  C   UNL     1       4.102   5.948  17.266  0.00  0.00    +0.000 A 
ATOM     21  C   UNL     1       2.923   6.120  18.007  0.00  0.00    +0.000 A 
ATOM     22  C   UNL     1       2.178   5.027  18.470  0.00  0.00    +0.000 A 
ATOM     23  C   UNL     1       2.594   3.734  18.175  0.00  0.00    +0.000 A 
ATOM     24 BR   UNL     1       1.579   2.259  18.777  0.00  0.00    +0.000 Br
ATOM     25  C   UNL     1       3.749   3.529  17.429  0.00  0.00    +0.000 A 
ATOM     26  C   UNL     1       4.489   4.629  16.974  0.00  0.00    +0.000 A 
ENDBRANCH  18  20
ENDBRANCH  17  18
ENDBRANCH   6  17
TORSDOF 4
ENDMDL
MODEL 9
REMARK VINA RESULT:      -7.9      3.326      7.122
REMARK  Name = 
REMARK  4 active torsions:
REMARK  status: ('A' for Active; 'I' for Inactive)
REMARK    1  A    between atoms: C_4  and  C_5
REMARK    2  A    between atoms: N_16  and  C_17
REMARK    3  A    between atoms: C_17  and  N_18
REMARK    4  A    between atoms: N_18  and  C_19
REMARK                            x       y       z     vdW  Elec       q    Type
REMARK                         _______ _______ _______ _____ _____    ______ ____
ROOT
ATOM      1  S   UNL     1       3.397   1.834  18.282  0.00  0.00    +0.000 S 
ATOM      2  C   UNL     1       3.426   3.455  17.970  0.00  0.00    +0.000 A 
ATOM      3  O   UNL     1       2.627   4.292  18.687  0.00  0.00    +0.000 OA
ATOM      4  C   UNL     1       2.967   5.524  18.238  0.00  0.00    +0.000 A 
ATOM      5  N   UNL     1       3.858   5.548  17.296  0.00  0.00    +0.000 NA
ATOM      6  N   UNL     1       4.157   4.222  17.101  0.00  0.00    +0.000 N 
ENDROOT
BRANCH   4   7
ATOM      7  C   UNL     1       2.340   6.676  18.904  0.00  0.00    +0.000 A 
ATOM      8  C   UNL     1       1.962   6.636  20.255  0.00  0.00    +0.000 A 
ATOM      9  C   UNL     1       1.423   7.775  20.864  0.00  0.00    +0.000 A 
ATOM     10  C   UNL     1       1.256   8.948  20.128  0.00  0.00    +0.000 A 
ATOM     11  C   UNL     1       1.648   8.993  18.787  0.00  0.00    +0.000 A 
ATOM     12  C   UNL     1       2.177   7.858  18.171  0.00  0.00    +0.000 A 
ATOM     13  O   UNL     1       1.544  10.117  18.009  0.00  0.00    +0.000 OA
ATOM     14  C   UNL     1       1.354  11.291  18.808  0.00  0.00    +0.000 C 
ATOM     15  C   UNL     1       0.303  11.047  19.880  0.00  0.00    +0.000 C 
ATOM     16  O   UNL     1       0.721  10.024  20.789  0.00  0.00    +0.000 OA
ENDBRANCH   4   7
BRANCH   6  17
ATOM     17  C   UNL     1       5.319   3.826  16.323  0.00  0.00    +0.000 C 
BRANCH  17  18
ATOM     18  N   UNL     1       6.504   3.959  17.142  0.00  0.00    +0.000 N 
ATOM     19  H   UNL     1       7.215   3.266  16.943  0.00  0.00    +0.000 HD
BRANCH  18  20
ATOM     20  C   UNL     1       6.956   5.215  17.541  0.00  0.00    +0.000 A 
ATOM     21  C   UNL     1       7.620   5.445  18.755  0.00  0.00    +0.000 A 
ATOM     22  C   UNL     1       8.161   6.698  19.072  0.00  0.00    +0.000 A 
ATOM     23  C   UNL     1       8.062   7.743  18.160  0.00  0.00    +0.000 A 
ATOM     24 BR   UNL     1       8.811   9.427  18.574  0.00  0.00    +0.000 Br
ATOM     25  C   UNL     1       7.424   7.543  16.941  0.00  0.00    +0.000 A 
ATOM     26  C   UNL     1       6.884   6.286  16.636  0.00  0.00    +0.000 A 
ENDBRANCH  18  20
ENDBRANCH  17  18
ENDBRANCH   6  17
TORSDOF 4
ENDMDL
