MODEL 1
REMARK VINA RESULT:      -7.7      0.000      0.000
REMARK  Name = 
REMARK  5 active torsions:
REMARK  status: ('A' for Active; 'I' for Inactive)
REMARK    1  A    between atoms: C_1  and  C_2
REMARK    2  A    between atoms: N_8  and  C_9
REMARK    3  A    between atoms: C_15  and  N_16
REMARK    4  A    between atoms: C_23  and  C_24
REMARK    5  A    between atoms: C_24  and  O_25
REMARK                            x       y       z     vdW  Elec       q    Type
REMARK                         _______ _______ _______ _____ _____    ______ ____
ROOT
ATOM      1  C   UNL     1       1.991   5.498  19.471  0.00  0.00    +0.000 A 
ATOM      2  C   UNL     1       1.189   4.998  20.524  0.00  0.00    +0.000 A 
ATOM      3  C   UNL     1       0.900   3.641  20.665  0.00  0.00    +0.000 A 
ATOM      4  C   UNL     1       1.393   2.750  19.731  0.00  0.00    +0.000 A 
ATOM      5  F   UNL     1       1.131   1.444  19.860  0.00  0.00    +0.000 F 
ATOM      6  C   UNL     1       2.180   3.190  18.675  0.00  0.00    +0.000 A 
ATOM      7  C   UNL     1       2.522   4.552  18.558  0.00  0.00    +0.000 A 
ENDROOT
BRANCH   1  15
ATOM      8  C   UNL     1       1.351  11.939  18.746  0.00  0.00    +0.000 C 
ATOM      9  C   UNL     1       1.229  10.949  19.877  0.00  0.00    +0.000 C 
ATOM     10  O   UNL     1       1.321  11.335  21.043  0.00  0.00    +0.000 OA
ATOM     11  N   UNL     1       0.993   9.626  19.540  0.00  0.00    +0.000 N 
ATOM     12  C   UNL     1       0.963   9.102  18.174  0.00  0.00    +0.000 C 
ATOM     13  C   UNL     1       2.320   8.634  17.657  0.00  0.00    +0.000 C 
ATOM     14  C   UNL     1       3.030   7.549  18.472  0.00  0.00    +0.000 C 
ATOM     15  N   UNL     1       2.126   6.889  19.411  0.00  0.00    +0.000 N 
ATOM     16  C   UNL     1       1.947   7.599  20.704  0.00  0.00    +0.000 C 
ATOM     17  C   UNL     1       0.816   8.636  20.612  0.00  0.00    +0.000 C 
ENDBRANCH   1  15
BRANCH   7  18
ATOM     18  N   UNL     1       3.456   4.845  17.525  0.00  0.00    +0.000 N 
ATOM     19  C   UNL     1       4.809   4.926  17.781  0.00  0.00    +0.000 C 
ATOM     20  O   UNL     1       5.310   4.762  18.892  0.00  0.00    +0.000 OA
ATOM     21  N   UNL     1       5.601   5.177  16.681  0.00  0.00    +0.000 N 
ATOM     22  C   UNL     1       5.176   5.551  15.342  0.00  0.00    +0.000 C 
ATOM     23  C   UNL     1       6.361   5.133  14.497  0.00  0.00    +0.000 C 
ATOM     24  C   UNL     1       7.560   5.499  15.368  0.00  0.00    +0.000 C 
ATOM     25  C   UNL     1       7.042   5.419  16.820  0.00  0.00    +0.000 C 
ATOM     26  H   UNL     1       3.251   4.432  16.633  0.00  0.00    +0.000 HD
BRANCH  25  27
ATOM     27  C   UNL     1       7.854   4.417  17.657  0.00  0.00    +0.000 C 
BRANCH  27  28
ATOM     28  O   UNL     1       8.119   4.966  18.951  0.00  0.00    +0.000 OA
ATOM     29  H   UNL     1       7.530   4.499  19.574  0.00  0.00    +0.000 HD
ENDBRANCH  27  28
ENDBRANCH  25  27
ENDBRANCH   7  18
TORSDOF 4
ENDMDL
MODEL 2
REMARK VINA RESULT:      -7.1      2.118      6.768
REMARK  Name = 
REMARK  5 active torsions:
REMARK  status: ('A' for Active; 'I' for Inactive)
REMARK    1  A    between atoms: C_1  and  C_2
REMARK    2  A    between atoms: N_8  and  C_9
REMARK    3  A    between atoms: C_15  and  N_16
REMARK    4  A    between atoms: C_23  and  C_24
REMARK    5  A    between atoms: C_24  and  O_25
REMARK                            x       y       z     vdW  Elec       q    Type
REMARK                         _______ _______ _______ _____ _____    ______ ____
ROOT
ATOM      1  C   UNL     1       3.652   4.629  18.686  0.00  0.00    +0.000 A 
ATOM      2  C   UNL     1       3.812   3.309  19.170  0.00  0.00    +0.000 A 
ATOM      3  C   UNL     1       3.261   2.884  20.378  0.00  0.00    +0.000 A 
ATOM      4  C   UNL     1       2.552   3.786  21.147  0.00  0.00    +0.000 A 
ATOM      5  F   UNL     1       2.010   3.388  22.305  0.00  0.00    +0.000 F 
ATOM      6  C   UNL     1       2.372   5.096  20.721  0.00  0.00    +0.000 A 
ATOM      7  C   UNL     1       2.878   5.517  19.476  0.00  0.00    +0.000 A 
ENDROOT
BRANCH   1  15
ATOM      8  C   UNL     1       7.860   5.480  13.788  0.00  0.00    +0.000 C 
ATOM      9  C   UNL     1       6.800   4.473  14.155  0.00  0.00    +0.000 C 
ATOM     10  O   UNL     1       6.308   3.755  13.285  0.00  0.00    +0.000 OA
ATOM     11  N   UNL     1       6.441   4.388  15.491  0.00  0.00    +0.000 N 
ATOM     12  C   UNL     1       6.930   5.275  16.548  0.00  0.00    +0.000 C 
ATOM     13  C   UNL     1       6.081   6.526  16.753  0.00  0.00    +0.000 C 
ATOM     14  C   UNL     1       4.602   6.307  17.084  0.00  0.00    +0.000 C 
ATOM     15  N   UNL     1       4.330   4.934  17.502  0.00  0.00    +0.000 N 
ATOM     16  C   UNL     1       4.115   3.977  16.385  0.00  0.00    +0.000 C 
ATOM     17  C   UNL     1       5.449   3.384  15.902  0.00  0.00    +0.000 C 
ENDBRANCH   1  15
BRANCH   7  18
ATOM     18  N   UNL     1       2.493   6.832  19.090  0.00  0.00    +0.000 N 
ATOM     19  C   UNL     1       1.741   7.634  19.922  0.00  0.00    +0.000 C 
ATOM     20  O   UNL     1       1.343   7.291  21.034  0.00  0.00    +0.000 OA
ATOM     21  N   UNL     1       1.475   8.897  19.438  0.00  0.00    +0.000 N 
ATOM     22  C   UNL     1       1.723   9.411  18.100  0.00  0.00    +0.000 C 
ATOM     23  C   UNL     1       1.775  10.906  18.331  0.00  0.00    +0.000 C 
ATOM     24  C   UNL     1       0.679  11.140  19.368  0.00  0.00    +0.000 C 
ATOM     25  C   UNL     1       0.578   9.814  20.152  0.00  0.00    +0.000 C 
ATOM     26  H   UNL     1       3.184   7.345  18.572  0.00  0.00    +0.000 HD
BRANCH  25  27
ATOM     27  C   UNL     1       0.826  10.024  21.655  0.00  0.00    +0.000 C 
BRANCH  27  28
ATOM     28  O   UNL     1      -0.180   9.347  22.413  0.00  0.00    +0.000 OA
ATOM     29  H   UNL     1      -0.868   9.073  21.777  0.00  0.00    +0.000 HD
ENDBRANCH  27  28
ENDBRANCH  25  27
ENDBRANCH   7  18
TORSDOF 4
ENDMDL
MODEL 3
REMARK VINA RESULT:      -6.8      6.328     11.123
REMARK  Name = 
REMARK  5 active torsions:
REMARK  status: ('A' for Active; 'I' for Inactive)
REMARK    1  A    between atoms: C_1  and  C_2
REMARK    2  A    between atoms: N_8  and  C_9
REMARK    3  A    between atoms: C_15  and  N_16
REMARK    4  A    between atoms: C_23  and  C_24
REMARK    5  A    between atoms: C_24  and  O_25
REMARK                            x       y       z     vdW  Elec       q    Type
REMARK                         _______ _______ _______ _____ _____    ______ ____
ROOT
ATOM      1  C   UNL     1      -1.544  13.420  22.243  0.00  0.00    +0.000 A 
ATOM      2  C   UNL     1      -1.055  13.970  23.452  0.00  0.00    +0.000 A 
ATOM      3  C   UNL     1      -1.791  14.879  24.211  0.00  0.00    +0.000 A 
ATOM      4  C   UNL     1      -3.033  15.280  23.759  0.00  0.00    +0.000 A 
ATOM      5  F   UNL     1      -3.753  16.146  24.482  0.00  0.00    +0.000 F 
ATOM      6  C   UNL     1      -3.556  14.776  22.575  0.00  0.00    +0.000 A 
ATOM      7  C   UNL     1      -2.843  13.815  21.832  0.00  0.00    +0.000 A 
ENDROOT
BRANCH   1  15
ATOM      8  C   UNL     1       1.586   9.496  18.092  0.00  0.00    +0.000 C 
ATOM      9  C   UNL     1       1.566  10.973  18.396  0.00  0.00    +0.000 C 
ATOM     10  O   UNL     1       2.517  11.681  18.062  0.00  0.00    +0.000 OA
ATOM     11  N   UNL     1       0.441  11.475  19.031  0.00  0.00    +0.000 N 
ATOM     12  C   UNL     1      -0.673  10.665  19.525  0.00  0.00    +0.000 C 
ATOM     13  C   UNL     1      -0.500  10.180  20.961  0.00  0.00    +0.000 C 
ATOM     14  C   UNL     1      -0.298  11.255  22.032  0.00  0.00    +0.000 C 
ATOM     15  N   UNL     1      -0.662  12.585  21.549  0.00  0.00    +0.000 N 
ATOM     16  C   UNL     1       0.408  13.285  20.791  0.00  0.00    +0.000 C 
ATOM     17  C   UNL     1       0.357  12.918  19.300  0.00  0.00    +0.000 C 
ENDBRANCH   1  15
BRANCH   7  18
ATOM     18  N   UNL     1      -3.554  13.267  20.728  0.00  0.00    +0.000 N 
ATOM     19  C   UNL     1      -4.699  12.520  20.910  0.00  0.00    +0.000 C 
ATOM     20  O   UNL     1      -5.186  12.264  22.009  0.00  0.00    +0.000 OA
ATOM     21  N   UNL     1      -5.307  12.086  19.751  0.00  0.00    +0.000 N 
ATOM     22  C   UNL     1      -4.793  12.156  18.393  0.00  0.00    +0.000 C 
ATOM     23  C   UNL     1      -6.057  12.081  17.563  0.00  0.00    +0.000 C 
ATOM     24  C   UNL     1      -6.914  11.069  18.319  0.00  0.00    +0.000 C 
ATOM     25  C   UNL     1      -6.457  11.174  19.790  0.00  0.00    +0.000 C 
ATOM     26  H   UNL     1      -3.594  13.853  19.913  0.00  0.00    +0.000 HD
BRANCH  25  27
ATOM     27  C   UNL     1      -7.623  11.538  20.722  0.00  0.00    +0.000 C 
BRANCH  27  28
ATOM     28  O   UNL     1      -7.646  10.652  21.844  0.00  0.00    +0.000 OA
ATOM     29  H   UNL     1      -7.866   9.768  21.493  0.00  0.00    +0.000 HD
ENDBRANCH  27  28
ENDBRANCH  25  27
ENDBRANCH   7  18
TORSDOF 4
ENDMDL
MODEL 4
REMARK VINA RESULT:      -6.8      6.300      9.893
REMARK  Name = 
REMARK  5 active torsions:
REMARK  status: ('A' for Active; 'I' for Inactive)
REMARK    1  A    between atoms: C_1  and  C_2
REMARK    2  A    between atoms: N_8  and  C_9
REMARK    3  A    between atoms: C_15  and  N_16
REMARK    4  A    between atoms: C_23  and  C_24
REMARK    5  A    between atoms: C_24  and  O_25
REMARK                            x       y       z     vdW  Elec       q    Type
REMARK                         _______ _______ _______ _____ _____    ______ ____
ROOT
ATOM      1  C   UNL     1       0.780  11.640  19.675  0.00  0.00    +0.000 A 
ATOM      2  C   UNL     1       1.168  10.508  18.920  0.00  0.00    +0.000 A 
ATOM      3  C   UNL     1       1.216   9.225  19.464  0.00  0.00    +0.000 A 
ATOM      4  C   UNL     1       0.897   9.050  20.796  0.00  0.00    +0.000 A 
ATOM      5  F   UNL     1       0.930   7.823  21.330  0.00  0.00    +0.000 F 
ATOM      6  C   UNL     1       0.516  10.129  21.584  0.00  0.00    +0.000 A 
ATOM      7  C   UNL     1       0.411  11.418  21.027  0.00  0.00    +0.000 A 
ENDROOT
BRANCH   1  15
ATOM      8  C   UNL     1       1.447  17.852  17.836  0.00  0.00    +0.000 C 
ATOM      9  C   UNL     1       2.313  16.617  17.848  0.00  0.00    +0.000 C 
ATOM     10  O   UNL     1       3.291  16.546  17.105  0.00  0.00    +0.000 OA
ATOM     11  N   UNL     1       1.965  15.608  18.733  0.00  0.00    +0.000 N 
ATOM     12  C   UNL     1       0.766  15.605  19.571  0.00  0.00    +0.000 C 
ATOM     13  C   UNL     1      -0.455  14.974  18.907  0.00  0.00    +0.000 C 
ATOM     14  C   UNL     1      -0.310  13.525  18.434  0.00  0.00    +0.000 C 
ATOM     15  N   UNL     1       0.859  12.872  19.018  0.00  0.00    +0.000 N 
ATOM     16  C   UNL     1       2.136  13.126  18.301  0.00  0.00    +0.000 C 
ATOM     17  C   UNL     1       2.810  14.408  18.814  0.00  0.00    +0.000 C 
ENDBRANCH   1  15
BRANCH   7  18
ATOM     18  N   UNL     1      -0.136  12.401  21.898  0.00  0.00    +0.000 N 
ATOM     19  C   UNL     1      -1.490  12.660  21.929  0.00  0.00    +0.000 C 
ATOM     20  O   UNL     1      -2.317  12.085  21.224  0.00  0.00    +0.000 OA
ATOM     21  N   UNL     1      -1.886  13.608  22.849  0.00  0.00    +0.000 N 
ATOM     22  C   UNL     1      -1.044  14.491  23.639  0.00  0.00    +0.000 C 
ATOM     23  C   UNL     1      -1.947  14.848  24.800  0.00  0.00    +0.000 C 
ATOM     24  C   UNL     1      -3.318  14.999  24.146  0.00  0.00    +0.000 C 
ATOM     25  C   UNL     1      -3.274  14.081  22.906  0.00  0.00    +0.000 C 
ATOM     26  H   UNL     1       0.294  12.457  22.804  0.00  0.00    +0.000 HD
BRANCH  25  27
ATOM     27  C   UNL     1      -4.386  13.020  22.947  0.00  0.00    +0.000 C 
BRANCH  27  28
ATOM     28  O   UNL     1      -4.070  12.022  23.922  0.00  0.00    +0.000 OA
ATOM     29  H   UNL     1      -4.616  12.221  24.707  0.00  0.00    +0.000 HD
ENDBRANCH  27  28
ENDBRANCH  25  27
ENDBRANCH   7  18
TORSDOF 4
ENDMDL
MODEL 5
REMARK VINA RESULT:      -6.8      1.383      1.757
REMARK  Name = 
REMARK  5 active torsions:
REMARK  status: ('A' for Active; 'I' for Inactive)
REMARK    1  A    between atoms: C_1  and  C_2
REMARK    2  A    between atoms: N_8  and  C_9
REMARK    3  A    between atoms: C_15  and  N_16
REMARK    4  A    between atoms: C_23  and  C_24
REMARK    5  A    between atoms: C_24  and  O_25
REMARK                            x       y       z     vdW  Elec       q    Type
REMARK                         _______ _______ _______ _____ _____    ______ ____
ROOT
ATOM      1  C   UNL     1       2.074   5.571  19.671  0.00  0.00    +0.000 A 
ATOM      2  C   UNL     1       0.965   5.035  20.368  0.00  0.00    +0.000 A 
ATOM      3  C   UNL     1       0.743   3.663  20.476  0.00  0.00    +0.000 A 
ATOM      4  C   UNL     1       1.620   2.790  19.862  0.00  0.00    +0.000 A 
ATOM      5  F   UNL     1       1.423   1.470  19.966  0.00  0.00    +0.000 F 
ATOM      6  C   UNL     1       2.720   3.265  19.159  0.00  0.00    +0.000 A 
ATOM      7  C   UNL     1       2.982   4.648  19.093  0.00  0.00    +0.000 A 
ENDROOT
BRANCH   1  15
ATOM      8  C   UNL     1       1.005  11.946  18.870  0.00  0.00    +0.000 C 
ATOM      9  C   UNL     1       1.018  10.977  20.026  0.00  0.00    +0.000 C 
ATOM     10  O   UNL     1       1.163  11.394  21.175  0.00  0.00    +0.000 OA
ATOM     11  N   UNL     1       0.838   9.635  19.730  0.00  0.00    +0.000 N 
ATOM     12  C   UNL     1       0.750   9.079  18.379  0.00  0.00    +0.000 C 
ATOM     13  C   UNL     1       2.095   8.679  17.781  0.00  0.00    +0.000 C 
ATOM     14  C   UNL     1       2.920   7.656  18.566  0.00  0.00    +0.000 C 
ATOM     15  N   UNL     1       2.121   6.966  19.576  0.00  0.00    +0.000 N 
ATOM     16  C   UNL     1       1.987   7.693  20.865  0.00  0.00    +0.000 C 
ATOM     17  C   UNL     1       0.793   8.661  20.829  0.00  0.00    +0.000 C 
ENDBRANCH   1  15
BRANCH   7  18
ATOM     18  N   UNL     1       4.219   4.991  18.479  0.00  0.00    +0.000 N 
ATOM     19  C   UNL     1       4.601   4.439  17.274  0.00  0.00    +0.000 C 
ATOM     20  O   UNL     1       3.929   3.622  16.648  0.00  0.00    +0.000 OA
ATOM     21  N   UNL     1       5.804   4.893  16.776  0.00  0.00    +0.000 N 
ATOM     22  C   UNL     1       6.792   5.722  17.445  0.00  0.00    +0.000 C 
ATOM     23  C   UNL     1       7.546   6.331  16.283  0.00  0.00    +0.000 C 
ATOM     24  C   UNL     1       7.633   5.184  15.280  0.00  0.00    +0.000 C 
ATOM     25  C   UNL     1       6.400   4.301  15.572  0.00  0.00    +0.000 C 
ATOM     26  H   UNL     1       4.489   5.955  18.571  0.00  0.00    +0.000 HD
BRANCH  25  27
ATOM     27  C   UNL     1       5.503   4.153  14.333  0.00  0.00    +0.000 C 
BRANCH  27  28
ATOM     28  O   UNL     1       6.186   3.402  13.325  0.00  0.00    +0.000 OA
ATOM     29  H   UNL     1       6.992   3.046  13.744  0.00  0.00    +0.000 HD
ENDBRANCH  27  28
ENDBRANCH  25  27
ENDBRANCH   7  18
TORSDOF 4
ENDMDL
MODEL 6
REMARK VINA RESULT:      -6.7      3.536      6.219
REMARK  Name = 
REMARK  5 active torsions:
REMARK  status: ('A' for Active; 'I' for Inactive)
REMARK    1  A    between atoms: C_1  and  C_2
REMARK    2  A    between atoms: N_8  and  C_9
REMARK    3  A    between atoms: C_15  and  N_16
REMARK    4  A    between atoms: C_23  and  C_24
REMARK    5  A    between atoms: C_24  and  O_25
REMARK                            x       y       z     vdW  Elec       q    Type
REMARK                         _______ _______ _______ _____ _____    ______ ____
ROOT
ATOM      1  C   UNL     1      -0.139  11.689  18.737  0.00  0.00    +0.000 A 
ATOM      2  C   UNL     1      -1.354  12.401  18.878  0.00  0.00    +0.000 A 
ATOM      3  C   UNL     1      -2.567  11.912  18.396  0.00  0.00    +0.000 A 
ATOM      4  C   UNL     1      -2.586  10.700  17.734  0.00  0.00    +0.000 A 
ATOM      5  F   UNL     1      -3.746  10.215  17.274  0.00  0.00    +0.000 F 
ATOM      6  C   UNL     1      -1.420   9.965  17.562  0.00  0.00    +0.000 A 
ATOM      7  C   UNL     1      -0.201  10.426  18.095  0.00  0.00    +0.000 A 
ENDROOT
BRANCH   1  15
ATOM      8  C   UNL     1       4.451  15.831  20.786  0.00  0.00    +0.000 C 
ATOM      9  C   UNL     1       3.447  14.908  21.429  0.00  0.00    +0.000 C 
ATOM     10  O   UNL     1       3.615  14.530  22.588  0.00  0.00    +0.000 OA
ATOM     11  N   UNL     1       2.347  14.540  20.670  0.00  0.00    +0.000 N 
ATOM     12  C   UNL     1       2.145  14.889  19.263  0.00  0.00    +0.000 C 
ATOM     13  C   UNL     1       2.731  13.878  18.281  0.00  0.00    +0.000 C 
ATOM     14  C   UNL     1       2.230  12.436  18.398  0.00  0.00    +0.000 C 
ATOM     15  N   UNL     1       1.010  12.341  19.197  0.00  0.00    +0.000 N 
ATOM     16  C   UNL     1       1.232  12.274  20.664  0.00  0.00    +0.000 C 
ATOM     17  C   UNL     1       1.317  13.683  21.274  0.00  0.00    +0.000 C 
ENDBRANCH   1  15
BRANCH   7  18
ATOM     18  N   UNL     1       0.882   9.509  17.986  0.00  0.00    +0.000 N 
ATOM     19  C   UNL     1       1.200   8.646  19.013  0.00  0.00    +0.000 C 
ATOM     20  O   UNL     1       0.597   8.599  20.084  0.00  0.00    +0.000 OA
ATOM     21  N   UNL     1       2.246   7.786  18.755  0.00  0.00    +0.000 N 
ATOM     22  C   UNL     1       3.162   7.808  17.626  0.00  0.00    +0.000 C 
ATOM     23  C   UNL     1       3.664   6.380  17.587  0.00  0.00    +0.000 C 
ATOM     24  C   UNL     1       3.812   6.019  19.063  0.00  0.00    +0.000 C 
ATOM     25  C   UNL     1       2.781   6.902  19.798  0.00  0.00    +0.000 C 
ATOM     26  H   UNL     1       1.003   9.098  17.077  0.00  0.00    +0.000 HD
BRANCH  25  27
ATOM     27  C   UNL     1       1.777   6.056  20.597  0.00  0.00    +0.000 C 
BRANCH  27  28
ATOM     28  O   UNL     1       2.463   5.004  21.281  0.00  0.00    +0.000 OA
ATOM     29  H   UNL     1       2.052   4.935  22.164  0.00  0.00    +0.000 HD
ENDBRANCH  27  28
ENDBRANCH  25  27
ENDBRANCH   7  18
TORSDOF 4
ENDMDL
MODEL 7
REMARK VINA RESULT:      -6.6      7.009      9.719
REMARK  Name = 
REMARK  5 active torsions:
REMARK  status: ('A' for Active; 'I' for Inactive)
REMARK    1  A    between atoms: C_1  and  C_2
REMARK    2  A    between atoms: N_8  and  C_9
REMARK    3  A    between atoms: C_15  and  N_16
REMARK    4  A    between atoms: C_23  and  C_24
REMARK    5  A    between atoms: C_24  and  O_25
REMARK                            x       y       z     vdW  Elec       q    Type
REMARK                         _______ _______ _______ _____ _____    ______ ____
ROOT
ATOM      1  C   UNL     1      -1.770  14.230  22.941  0.00  0.00    +0.000 A 
ATOM      2  C   UNL     1      -2.462  14.902  23.976  0.00  0.00    +0.000 A 
ATOM      3  C   UNL     1      -3.427  14.273  24.762  0.00  0.00    +0.000 A 
ATOM      4  C   UNL     1      -3.740  12.952  24.509  0.00  0.00    +0.000 A 
ATOM      5  F   UNL     1      -4.659  12.333  25.262  0.00  0.00    +0.000 F 
ATOM      6  C   UNL     1      -3.095  12.249  23.500  0.00  0.00    +0.000 A 
ATOM      7  C   UNL     1      -2.080  12.861  22.740  0.00  0.00    +0.000 A 
ENDROOT
BRANCH   1  15
ATOM      8  C   UNL     1       2.639  16.703  18.834  0.00  0.00    +0.000 C 
ATOM      9  C   UNL     1       1.138  16.553  18.866  0.00  0.00    +0.000 C 
ATOM     10  O   UNL     1       0.434  17.273  18.159  0.00  0.00    +0.000 OA
ATOM     11  N   UNL     1       0.617  15.571  19.694  0.00  0.00    +0.000 N 
ATOM     12  C   UNL     1       1.402  14.750  20.617  0.00  0.00    +0.000 C 
ATOM     13  C   UNL     1       1.561  15.357  22.008  0.00  0.00    +0.000 C 
ATOM     14  C   UNL     1       0.272  15.675  22.771  0.00  0.00    +0.000 C 
ATOM     15  N   UNL     1      -0.891  15.012  22.185  0.00  0.00    +0.000 N 
ATOM     16  C   UNL     1      -1.509  15.738  21.045  0.00  0.00    +0.000 C 
ATOM     17  C   UNL     1      -0.836  15.354  19.717  0.00  0.00    +0.000 C 
ENDBRANCH   1  15
BRANCH   7  18
ATOM     18  N   UNL     1      -1.395  11.990  21.848  0.00  0.00    +0.000 N 
ATOM     19  C   UNL     1      -1.792  11.847  20.535  0.00  0.00    +0.000 C 
ATOM     20  O   UNL     1      -2.749  12.438  20.037  0.00  0.00    +0.000 OA
ATOM     21  N   UNL     1      -1.013  11.001  19.774  0.00  0.00    +0.000 N 
ATOM     22  C   UNL     1       0.041  10.109  20.227  0.00  0.00    +0.000 C 
ATOM     23  C   UNL     1       0.861   9.910  18.971  0.00  0.00    +0.000 C 
ATOM     24  C   UNL     1      -0.195   9.827  17.871  0.00  0.00    +0.000 C 
ATOM     25  C   UNL     1      -1.390  10.650  18.399  0.00  0.00    +0.000 C 
ATOM     26  H   UNL     1      -0.397  11.962  21.960  0.00  0.00    +0.000 HD
BRANCH  25  27
ATOM     27  C   UNL     1      -1.751  11.800  17.445  0.00  0.00    +0.000 C 
BRANCH  27  28
ATOM     28  O   UNL     1      -3.168  11.847  17.255  0.00  0.00    +0.000 OA
ATOM     29  H   UNL     1      -3.471  12.691  17.640  0.00  0.00    +0.000 HD
ENDBRANCH  27  28
ENDBRANCH  25  27
ENDBRANCH   7  18
TORSDOF 4
ENDMDL
MODEL 8
REMARK VINA RESULT:      -6.6      6.881     10.445
REMARK  Name = 
REMARK  5 active torsions:
REMARK  status: ('A' for Active; 'I' for Inactive)
REMARK    1  A    between atoms: C_1  and  C_2
REMARK    2  A    between atoms: N_8  and  C_9
REMARK    3  A    between atoms: C_15  and  N_16
REMARK    4  A    between atoms: C_23  and  C_24
REMARK    5  A    between atoms: C_24  and  O_25
REMARK                            x       y       z     vdW  Elec       q    Type
REMARK                         _______ _______ _______ _____ _____    ______ ____
ROOT
ATOM      1  C   UNL     1       0.030  11.724  20.486  0.00  0.00    +0.000 A 
ATOM      2  C   UNL     1       0.259  10.534  19.754  0.00  0.00    +0.000 A 
ATOM      3  C   UNL     1       0.139   9.269  20.326  0.00  0.00    +0.000 A 
ATOM      4  C   UNL     1      -0.191   9.166  21.663  0.00  0.00    +0.000 A 
ATOM      5  F   UNL     1      -0.318   7.957  22.223  0.00  0.00    +0.000 F 
ATOM      6  C   UNL     1      -0.419  10.302  22.429  0.00  0.00    +0.000 A 
ATOM      7  C   UNL     1      -0.354  11.582  21.844  0.00  0.00    +0.000 A 
ENDROOT
BRANCH   1  15
ATOM      8  C   UNL     1       1.583  17.726  18.491  0.00  0.00    +0.000 C 
ATOM      9  C   UNL     1       2.236  16.367  18.477  0.00  0.00    +0.000 C 
ATOM     10  O   UNL     1       3.144  16.130  17.680  0.00  0.00    +0.000 OA
ATOM     11  N   UNL     1       1.784  15.436  19.400  0.00  0.00    +0.000 N 
ATOM     12  C   UNL     1       0.652  15.637  20.305  0.00  0.00    +0.000 C 
ATOM     13  C   UNL     1      -0.692  15.207  19.726  0.00  0.00    +0.000 C 
ATOM     14  C   UNL     1      -0.812  13.749  19.273  0.00  0.00    +0.000 C 
ATOM     15  N   UNL     1       0.269  12.920  19.802  0.00  0.00    +0.000 N 
ATOM     16  C   UNL     1       1.524  12.955  19.007  0.00  0.00    +0.000 C 
ATOM     17  C   UNL     1       2.427  14.116  19.456  0.00  0.00    +0.000 C 
ENDBRANCH   1  15
BRANCH   7  18
ATOM     18  N   UNL     1      -0.759  12.648  22.695  0.00  0.00    +0.000 N 
ATOM     19  C   UNL     1      -2.082  13.026  22.795  0.00  0.00    +0.000 C 
ATOM     20  O   UNL     1      -2.998  12.495  22.170  0.00  0.00    +0.000 OA
ATOM     21  N   UNL     1      -2.336  14.045  23.687  0.00  0.00    +0.000 N 
ATOM     22  C   UNL     1      -1.373  14.885  24.380  0.00  0.00    +0.000 C 
ATOM     23  C   UNL     1      -2.167  15.372  25.574  0.00  0.00    +0.000 C 
ATOM     24  C   UNL     1      -3.559  15.614  24.996  0.00  0.00    +0.000 C 
ATOM     25  C   UNL     1      -3.673  14.641  23.803  0.00  0.00    +0.000 C 
ATOM     26  H   UNL     1      -0.269  12.706  23.570  0.00  0.00    +0.000 HD
BRANCH  25  27
ATOM     27  C   UNL     1      -4.866  13.685  23.964  0.00  0.00    +0.000 C 
BRANCH  27  28
ATOM     28  O   UNL     1      -4.585  12.724  24.985  0.00  0.00    +0.000 OA
ATOM     29  H   UNL     1      -5.366  12.141  25.038  0.00  0.00    +0.000 HD
ENDBRANCH  27  28
ENDBRANCH  25  27
ENDBRANCH   7  18
TORSDOF 4
ENDMDL
MODEL 9
REMARK VINA RESULT:      -6.6      8.211     11.521
REMARK  Name = 
REMARK  5 active torsions:
REMARK  status: ('A' for Active; 'I' for Inactive)
REMARK    1  A    between atoms: C_1  and  C_2
REMARK    2  A    between atoms: N_8  and  C_9
REMARK    3  A    between atoms: C_15  and  N_16
REMARK    4  A    between atoms: C_23  and  C_24
REMARK    5  A    between atoms: C_24  and  O_25
REMARK                            x       y       z     vdW  Elec       q    Type
REMARK                         _______ _______ _______ _____ _____    ______ ____
ROOT
ATOM      1  C   UNL     1      -2.165  12.216  19.291  0.00  0.00    +0.000 A 
ATOM      2  C   UNL     1      -1.245  11.296  18.733  0.00  0.00    +0.000 A 
ATOM      3  C   UNL     1      -1.641  10.268  17.879  0.00  0.00    +0.000 A 
ATOM      4  C   UNL     1      -2.982  10.120  17.584  0.00  0.00    +0.000 A 
ATOM      5  F   UNL     1      -3.374   9.141  16.758  0.00  0.00    +0.000 F 
ATOM      6  C   UNL     1      -3.926  10.991  18.111  0.00  0.00    +0.000 A 
ATOM      7  C   UNL     1      -3.528  12.066  18.929  0.00  0.00    +0.000 A 
ENDROOT
BRANCH   1  15
ATOM      8  C   UNL     1      -0.956  16.963  23.583  0.00  0.00    +0.000 C 
ATOM      9  C   UNL     1      -1.211  15.478  23.640  0.00  0.00    +0.000 C 
ATOM     10  O   UNL     1      -0.851  14.830  24.623  0.00  0.00    +0.000 OA
ATOM     11  N   UNL     1      -1.873  14.907  22.565  0.00  0.00    +0.000 N 
ATOM     12  C   UNL     1      -2.243  15.613  21.337  0.00  0.00    +0.000 C 
ATOM     13  C   UNL     1      -1.169  15.580  20.254  0.00  0.00    +0.000 C 
ATOM     14  C   UNL     1      -0.710  14.197  19.782  0.00  0.00    +0.000 C 
ATOM     15  N   UNL     1      -1.633  13.142  20.194  0.00  0.00    +0.000 N 
ATOM     16  C   UNL     1      -1.415  12.630  21.572  0.00  0.00    +0.000 C 
ATOM     17  C   UNL     1      -2.188  13.471  22.600  0.00  0.00    +0.000 C 
ENDBRANCH   1  15
BRANCH   7  18
ATOM     18  N   UNL     1      -4.570  12.970  19.275  0.00  0.00    +0.000 N 
ATOM     19  C   UNL     1      -5.269  12.843  20.457  0.00  0.00    +0.000 C 
ATOM     20  O   UNL     1      -5.062  11.961  21.288  0.00  0.00    +0.000 OA
ATOM     21  N   UNL     1      -6.224  13.812  20.682  0.00  0.00    +0.000 N 
ATOM     22  C   UNL     1      -6.708  14.821  19.754  0.00  0.00    +0.000 C 
ATOM     23  C   UNL     1      -7.262  15.879  20.684  0.00  0.00    +0.000 C 
ATOM     24  C   UNL     1      -7.916  15.062  21.796  0.00  0.00    +0.000 C 
ATOM     25  C   UNL     1      -7.133  13.733  21.832  0.00  0.00    +0.000 C 
ATOM     26  H   UNL     1      -4.409  13.928  19.017  0.00  0.00    +0.000 HD
BRANCH  25  27
ATOM     27  C   UNL     1      -6.511  13.480  23.215  0.00  0.00    +0.000 C 
BRANCH  27  28
ATOM     28  O   UNL     1      -6.781  12.139  23.632  0.00  0.00    +0.000 OA
ATOM     29  H   UNL     1      -5.925  11.670  23.627  0.00  0.00    +0.000 HD
ENDBRANCH  27  28
ENDBRANCH  25  27
ENDBRANCH   7  18
TORSDOF 4
ENDMDL
