MODEL 1
REMARK VINA RESULT:      -8.5      0.000      0.000
REMARK  Name = 
REMARK  8 active torsions:
REMARK  status: ('A' for Active; 'I' for Inactive)
REMARK    1  A    between atoms: C_1  and  C_2
REMARK    2  A    between atoms: C_4  and  C_5
REMARK    3  A    between atoms: C_5  and  C_6
REMARK    4  A    between atoms: C_5  and  N_10
REMARK    5  A    between atoms: C_6  and  C_7
REMARK    6  A    between atoms: C_11  and  C_13
REMARK    7  A    between atoms: C_17  and  C_18
REMARK    8  A    between atoms: C_23  and  C_24
REMARK                            x       y       z     vdW  Elec       q    Type
REMARK                         _______ _______ _______ _____ _____    ______ ____
ROOT
ATOM      1  C   UNL     1       3.614   4.920  19.527  0.00  0.00    +0.000 A 
ATOM      2  C   UNL     1       2.999   3.718  19.849  0.00  0.00    +0.000 A 
ATOM      3  C   UNL     1       1.757   3.761  20.462  0.00  0.00    +0.000 A 
ATOM      4  C   UNL     1       1.172   4.998  20.722  0.00  0.00    +0.000 A 
ATOM      5  C   UNL     1       1.837   6.173  20.356  0.00  0.00    +0.000 A 
ATOM      6  N   UNL     1       3.066   6.146  19.772  0.00  0.00    +0.000 NA
ENDROOT
BRANCH   5   7
ATOM      7  C   UNL     1       1.253   7.516  20.587  0.00  0.00    +0.000 A 
ATOM      8  C   UNL     1       0.465   7.802  21.722  0.00  0.00    +0.000 A 
ATOM      9  C   UNL     1      -0.061   9.080  21.939  0.00  0.00    +0.000 A 
ATOM     10  C   UNL     1       0.183  10.093  21.024  0.00  0.00    +0.000 A 
ATOM     11  F   UNL     1      -0.330  11.307  21.269  0.00  0.00    +0.000 F 
ATOM     12  C   UNL     1       0.940   9.860  19.884  0.00  0.00    +0.000 A 
ATOM     13  C   UNL     1       1.466   8.569  19.676  0.00  0.00    +0.000 A 
BRANCH  12  14
ATOM     14  C   UNL     1       1.212  10.952  18.892  0.00  0.00    +0.000 C 
ATOM     15  F   UNL     1       1.835  12.051  19.396  0.00  0.00    +0.000 F 
ATOM     16  F   UNL     1       1.996  10.525  17.861  0.00  0.00    +0.000 F 
ATOM     17  F   UNL     1       0.067  11.416  18.310  0.00  0.00    +0.000 F 
ENDBRANCH  12  14
ENDBRANCH   5   7
BRANCH   1  19
ATOM     18  N   UNL     1       5.198   5.880  17.942  0.00  0.00    +0.000 N 
ATOM     19  C   UNL     1       4.958   4.884  18.858  0.00  0.00    +0.000 C 
ATOM     20  O   UNL     1       5.777   4.013  19.130  0.00  0.00    +0.000 OA
ATOM     21  H   UNL     1       4.472   6.571  17.776  0.00  0.00    +0.000 HD
BRANCH  18  22
ATOM     22  C   UNL     1       6.429   5.944  17.158  0.00  0.00    +0.000 C 
BRANCH  22  26
ATOM     23  C   UNL     1       8.792  10.229  18.038  0.00  0.00    +0.000 C 
ATOM     24  C   UNL     1       8.285   8.846  18.012  0.00  0.00    +0.000 A 
ATOM     25  N   UNL     1       7.399   8.289  17.220  0.00  0.00    +0.000 NA
ATOM     26  C   UNL     1       7.334   7.004  17.720  0.00  0.00    +0.000 A 
ATOM     27  N   UNL     1       8.151   6.771  18.761  0.00  0.00    +0.000 NA
ATOM     28  O   UNL     1       8.788   7.996  18.951  0.00  0.00    +0.000 OA
ENDBRANCH  22  26
BRANCH  22  29
ATOM     29  C   UNL     1       6.146   6.145  15.650  0.00  0.00    +0.000 C 
BRANCH  29  30
ATOM     30  C   UNL     1       5.506   4.948  14.986  0.00  0.00    +0.000 C 
ATOM     31  C   UNL     1       6.269   4.124  13.977  0.00  0.00    +0.000 C 
ATOM     32  C   UNL     1       5.985   3.564  15.341  0.00  0.00    +0.000 C 
ENDBRANCH  29  30
ENDBRANCH  22  29
ENDBRANCH  18  22
ENDBRANCH   1  19
TORSDOF 7
ENDMDL
MODEL 2
REMARK VINA RESULT:      -8.2      2.863      4.586
REMARK  Name = 
REMARK  8 active torsions:
REMARK  status: ('A' for Active; 'I' for Inactive)
REMARK    1  A    between atoms: C_1  and  C_2
REMARK    2  A    between atoms: C_4  and  C_5
REMARK    3  A    between atoms: C_5  and  C_6
REMARK    4  A    between atoms: C_5  and  N_10
REMARK    5  A    between atoms: C_6  and  C_7
REMARK    6  A    between atoms: C_11  and  C_13
REMARK    7  A    between atoms: C_17  and  C_18
REMARK    8  A    between atoms: C_23  and  C_24
REMARK                            x       y       z     vdW  Elec       q    Type
REMARK                         _______ _______ _______ _____ _____    ______ ____
ROOT
ATOM      1  C   UNL     1       2.095   7.922  19.077  0.00  0.00    +0.000 A 
ATOM      2  C   UNL     1       2.391   8.575  17.888  0.00  0.00    +0.000 A 
ATOM      3  C   UNL     1       1.837   9.826  17.671  0.00  0.00    +0.000 A 
ATOM      4  C   UNL     1       1.016  10.383  18.649  0.00  0.00    +0.000 A 
ATOM      5  C   UNL     1       0.770   9.680  19.833  0.00  0.00    +0.000 A 
ATOM      6  N   UNL     1       1.292   8.442  20.051  0.00  0.00    +0.000 NA
ENDROOT
BRANCH   5   7
ATOM      7  C   UNL     1      -0.076  10.232  20.918  0.00  0.00    +0.000 A 
ATOM      8  C   UNL     1      -0.077   9.681  22.217  0.00  0.00    +0.000 A 
ATOM      9  C   UNL     1      -0.863  10.226  23.238  0.00  0.00    +0.000 A 
ATOM     10  C   UNL     1      -1.669  11.325  22.978  0.00  0.00    +0.000 A 
ATOM     11  F   UNL     1      -2.403  11.825  23.982  0.00  0.00    +0.000 F 
ATOM     12  C   UNL     1      -1.717  11.895  21.713  0.00  0.00    +0.000 A 
ATOM     13  C   UNL     1      -0.919  11.338  20.693  0.00  0.00    +0.000 A 
BRANCH  12  14
ATOM     14  C   UNL     1      -2.583  13.084  21.426  0.00  0.00    +0.000 C 
ATOM     15  F   UNL     1      -2.326  14.186  22.182  0.00  0.00    +0.000 F 
ATOM     16  F   UNL     1      -2.476  13.496  20.130  0.00  0.00    +0.000 F 
ATOM     17  F   UNL     1      -3.908  12.815  21.614  0.00  0.00    +0.000 F 
ENDBRANCH  12  14
ENDBRANCH   5   7
BRANCH   1  19
ATOM     18  N   UNL     1       3.126   5.893  18.208  0.00  0.00    +0.000 N 
ATOM     19  C   UNL     1       2.695   6.568  19.323  0.00  0.00    +0.000 C 
ATOM     20  O   UNL     1       2.787   6.114  20.459  0.00  0.00    +0.000 OA
ATOM     21  H   UNL     1       3.023   6.339  17.301  0.00  0.00    +0.000 HD
BRANCH  18  22
ATOM     22  C   UNL     1       3.670   4.538  18.273  0.00  0.00    +0.000 C 
BRANCH  22  26
ATOM     23  C   UNL     1       7.202   4.652  14.775  0.00  0.00    +0.000 C 
ATOM     24  C   UNL     1       6.403   4.542  16.007  0.00  0.00    +0.000 A 
ATOM     25  N   UNL     1       5.106   4.647  16.182  0.00  0.00    +0.000 NA
ATOM     26  C   UNL     1       4.986   4.485  17.548  0.00  0.00    +0.000 A 
ATOM     27  N   UNL     1       6.149   4.273  18.186  0.00  0.00    +0.000 NA
ATOM     28  O   UNL     1       7.091   4.305  17.160  0.00  0.00    +0.000 OA
ENDBRANCH  22  26
BRANCH  22  29
ATOM     29  C   UNL     1       2.664   3.484  17.754  0.00  0.00    +0.000 C 
BRANCH  29  30
ATOM     30  C   UNL     1       1.321   3.533  18.443  0.00  0.00    +0.000 C 
ATOM     31  C   UNL     1       0.587   2.263  18.801  0.00  0.00    +0.000 C 
ATOM     32  C   UNL     1       1.213   3.096  19.881  0.00  0.00    +0.000 C 
ENDBRANCH  29  30
ENDBRANCH  22  29
ENDBRANCH  18  22
ENDBRANCH   1  19
TORSDOF 7
ENDMDL
MODEL 3
REMARK VINA RESULT:      -8.2      2.708      4.046
REMARK  Name = 
REMARK  8 active torsions:
REMARK  status: ('A' for Active; 'I' for Inactive)
REMARK    1  A    between atoms: C_1  and  C_2
REMARK    2  A    between atoms: C_4  and  C_5
REMARK    3  A    between atoms: C_5  and  C_6
REMARK    4  A    between atoms: C_5  and  N_10
REMARK    5  A    between atoms: C_6  and  C_7
REMARK    6  A    between atoms: C_11  and  C_13
REMARK    7  A    between atoms: C_17  and  C_18
REMARK    8  A    between atoms: C_23  and  C_24
REMARK                            x       y       z     vdW  Elec       q    Type
REMARK                         _______ _______ _______ _____ _____    ______ ____
ROOT
ATOM      1  C   UNL     1       2.377   7.539  19.173  0.00  0.00    +0.000 A 
ATOM      2  C   UNL     1       2.505   8.025  17.879  0.00  0.00    +0.000 A 
ATOM      3  C   UNL     1       1.810   9.173  17.538  0.00  0.00    +0.000 A 
ATOM      4  C   UNL     1       1.020   9.798  18.500  0.00  0.00    +0.000 A 
ATOM      5  C   UNL     1       0.946   9.267  19.792  0.00  0.00    +0.000 A 
ATOM      6  N   UNL     1       1.608   8.128  20.135  0.00  0.00    +0.000 NA
ENDROOT
BRANCH   5   7
ATOM      7  C   UNL     1       0.140   9.901  20.863  0.00  0.00    +0.000 A 
ATOM      8  C   UNL     1       0.156   9.425  22.190  0.00  0.00    +0.000 A 
ATOM      9  C   UNL     1      -0.591  10.047  23.196  0.00  0.00    +0.000 A 
ATOM     10  C   UNL     1      -1.375  11.150  22.892  0.00  0.00    +0.000 A 
ATOM     11  F   UNL     1      -2.072  11.725  23.882  0.00  0.00    +0.000 F 
ATOM     12  C   UNL     1      -1.438  11.649  21.598  0.00  0.00    +0.000 A 
ATOM     13  C   UNL     1      -0.679  11.015  20.594  0.00  0.00    +0.000 A 
BRANCH  12  14
ATOM     14  C   UNL     1      -2.281  12.844  21.263  0.00  0.00    +0.000 C 
ATOM     15  F   UNL     1      -3.607  12.714  21.538  0.00  0.00    +0.000 F 
ATOM     16  F   UNL     1      -1.875  13.961  21.932  0.00  0.00    +0.000 F 
ATOM     17  F   UNL     1      -2.213  13.167  19.938  0.00  0.00    +0.000 F 
ENDBRANCH  12  14
ENDBRANCH   5   7
BRANCH   1  19
ATOM     18  N   UNL     1       4.322   6.098  18.901  0.00  0.00    +0.000 N 
ATOM     19  C   UNL     1       3.131   6.297  19.554  0.00  0.00    +0.000 C 
ATOM     20  O   UNL     1       2.693   5.526  20.400  0.00  0.00    +0.000 OA
ATOM     21  H   UNL     1       4.622   6.787  18.217  0.00  0.00    +0.000 HD
BRANCH  18  22
ATOM     22  C   UNL     1       5.140   4.905  19.109  0.00  0.00    +0.000 C 
BRANCH  22  26
ATOM     23  C   UNL     1       7.237   4.810  14.602  0.00  0.00    +0.000 C 
ATOM     24  C   UNL     1       6.905   4.729  16.034  0.00  0.00    +0.000 A 
ATOM     25  N   UNL     1       5.768   4.956  16.650  0.00  0.00    +0.000 NA
ATOM     26  C   UNL     1       6.110   4.750  17.971  0.00  0.00    +0.000 A 
ATOM     27  N   UNL     1       7.392   4.396  18.165  0.00  0.00    +0.000 NA
ATOM     28  O   UNL     1       7.919   4.377  16.875  0.00  0.00    +0.000 OA
ENDBRANCH  22  26
BRANCH  22  29
ATOM     29  C   UNL     1       4.276   3.640  19.327  0.00  0.00    +0.000 C 
BRANCH  29  30
ATOM     30  C   UNL     1       3.869   2.951  18.046  0.00  0.00    +0.000 C 
ATOM     31  C   UNL     1       3.155   1.622  18.075  0.00  0.00    +0.000 C 
ATOM     32  C   UNL     1       2.409   2.865  17.686  0.00  0.00    +0.000 C 
ENDBRANCH  29  30
ENDBRANCH  22  29
ENDBRANCH  18  22
ENDBRANCH   1  19
TORSDOF 7
ENDMDL
MODEL 4
REMARK VINA RESULT:      -8.1      1.048      2.215
REMARK  Name = 
REMARK  8 active torsions:
REMARK  status: ('A' for Active; 'I' for Inactive)
REMARK    1  A    between atoms: C_1  and  C_2
REMARK    2  A    between atoms: C_4  and  C_5
REMARK    3  A    between atoms: C_5  and  C_6
REMARK    4  A    between atoms: C_5  and  N_10
REMARK    5  A    between atoms: C_6  and  C_7
REMARK    6  A    between atoms: C_11  and  C_13
REMARK    7  A    between atoms: C_17  and  C_18
REMARK    8  A    between atoms: C_23  and  C_24
REMARK                            x       y       z     vdW  Elec       q    Type
REMARK                         _______ _______ _______ _____ _____    ______ ____
ROOT
ATOM      1  C   UNL     1       3.806   5.043  19.514  0.00  0.00    +0.000 A 
ATOM      2  C   UNL     1       3.111   3.874  19.793  0.00  0.00    +0.000 A 
ATOM      3  C   UNL     1       1.816   3.981  20.274  0.00  0.00    +0.000 A 
ATOM      4  C   UNL     1       1.261   5.247  20.451  0.00  0.00    +0.000 A 
ATOM      5  C   UNL     1       2.010   6.385  20.135  0.00  0.00    +0.000 A 
ATOM      6  N   UNL     1       3.289   6.296  19.680  0.00  0.00    +0.000 NA
ENDROOT
BRANCH   5   7
ATOM      7  C   UNL     1       1.464   7.756  20.282  0.00  0.00    +0.000 A 
ATOM      8  C   UNL     1       1.484   8.684  19.220  0.00  0.00    +0.000 A 
ATOM      9  C   UNL     1       0.944   9.967  19.365  0.00  0.00    +0.000 A 
ATOM     10  C   UNL     1       0.383  10.348  20.575  0.00  0.00    +0.000 A 
ATOM     11  F   UNL     1      -0.131  11.582  20.675  0.00  0.00    +0.000 F 
ATOM     12  C   UNL     1       0.352   9.478  21.656  0.00  0.00    +0.000 A 
ATOM     13  C   UNL     1       0.898   8.187  21.497  0.00  0.00    +0.000 A 
BRANCH  12  14
ATOM     14  C   UNL     1      -0.256   9.882  22.965  0.00  0.00    +0.000 C 
ATOM     15  F   UNL     1      -0.470  11.217  23.118  0.00  0.00    +0.000 F 
ATOM     16  F   UNL     1      -1.467   9.290  23.173  0.00  0.00    +0.000 F 
ATOM     17  F   UNL     1       0.517   9.512  24.029  0.00  0.00    +0.000 F 
ENDBRANCH  12  14
ENDBRANCH   5   7
BRANCH   1  19
ATOM     18  N   UNL     1       5.639   5.989  18.216  0.00  0.00    +0.000 N 
ATOM     19  C   UNL     1       5.209   4.937  18.987  0.00  0.00    +0.000 C 
ATOM     20  O   UNL     1       5.910   3.965  19.245  0.00  0.00    +0.000 OA
ATOM     21  H   UNL     1       5.002   6.764  18.053  0.00  0.00    +0.000 HD
BRANCH  18  22
ATOM     22  C   UNL     1       6.952   6.006  17.574  0.00  0.00    +0.000 C 
BRANCH  22  26
ATOM     23  C   UNL     1       8.678  10.661  17.830  0.00  0.00    +0.000 C 
ATOM     24  C   UNL     1       8.373   9.230  17.998  0.00  0.00    +0.000 A 
ATOM     25  N   UNL     1       7.577   8.451  17.304  0.00  0.00    +0.000 NA
ATOM     26  C   UNL     1       7.696   7.249  17.973  0.00  0.00    +0.000 A 
ATOM     27  N   UNL     1       8.537   7.277  19.020  0.00  0.00    +0.000 NA
ATOM     28  O   UNL     1       8.992   8.594  19.033  0.00  0.00    +0.000 OA
ENDBRANCH  22  26
BRANCH  22  29
ATOM     29  C   UNL     1       6.849   5.843  16.039  0.00  0.00    +0.000 C 
BRANCH  29  30
ATOM     30  C   UNL     1       6.462   4.450  15.599  0.00  0.00    +0.000 C 
ATOM     31  C   UNL     1       5.173   4.204  14.854  0.00  0.00    +0.000 C 
ATOM     32  C   UNL     1       6.485   4.108  14.131  0.00  0.00    +0.000 C 
ENDBRANCH  29  30
ENDBRANCH  22  29
ENDBRANCH  18  22
ENDBRANCH   1  19
TORSDOF 7
ENDMDL
MODEL 5
REMARK VINA RESULT:      -8.1      0.759      1.003
REMARK  Name = 
REMARK  8 active torsions:
REMARK  status: ('A' for Active; 'I' for Inactive)
REMARK    1  A    between atoms: C_1  and  C_2
REMARK    2  A    between atoms: C_4  and  C_5
REMARK    3  A    between atoms: C_5  and  C_6
REMARK    4  A    between atoms: C_5  and  N_10
REMARK    5  A    between atoms: C_6  and  C_7
REMARK    6  A    between atoms: C_11  and  C_13
REMARK    7  A    between atoms: C_17  and  C_18
REMARK    8  A    between atoms: C_23  and  C_24
REMARK                            x       y       z     vdW  Elec       q    Type
REMARK                         _______ _______ _______ _____ _____    ______ ____
ROOT
ATOM      1  C   UNL     1       3.648   4.544  19.680  0.00  0.00    +0.000 A 
ATOM      2  C   UNL     1       2.866   3.402  19.796  0.00  0.00    +0.000 A 
ATOM      3  C   UNL     1       1.540   3.551  20.171  0.00  0.00    +0.000 A 
ATOM      4  C   UNL     1       1.042   4.830  20.406  0.00  0.00    +0.000 A 
ATOM      5  C   UNL     1       1.878   5.941  20.254  0.00  0.00    +0.000 A 
ATOM      6  N   UNL     1       3.187   5.809  19.907  0.00  0.00    +0.000 NA
ENDROOT
BRANCH   5   7
ATOM      7  C   UNL     1       1.397   7.327  20.470  0.00  0.00    +0.000 A 
ATOM      8  C   UNL     1       0.758   7.718  21.665  0.00  0.00    +0.000 A 
ATOM      9  C   UNL     1       0.330   9.035  21.864  0.00  0.00    +0.000 A 
ATOM     10  C   UNL     1       0.523   9.983  20.870  0.00  0.00    +0.000 A 
ATOM     11  F   UNL     1       0.107  11.236  21.098  0.00  0.00    +0.000 F 
ATOM     12  C   UNL     1       1.133   9.646  19.669  0.00  0.00    +0.000 A 
ATOM     13  C   UNL     1       1.561   8.316  19.480  0.00  0.00    +0.000 A 
BRANCH  12  14
ATOM     14  C   UNL     1       1.348  10.666  18.591  0.00  0.00    +0.000 C 
ATOM     15  F   UNL     1       2.105  11.738  18.950  0.00  0.00    +0.000 F 
ATOM     16  F   UNL     1       1.962  10.134  17.496  0.00  0.00    +0.000 F 
ATOM     17  F   UNL     1       0.173  11.187  18.132  0.00  0.00    +0.000 F 
ENDBRANCH  12  14
ENDBRANCH   5   7
BRANCH   1  19
ATOM     18  N   UNL     1       5.638   5.471  18.623  0.00  0.00    +0.000 N 
ATOM     19  C   UNL     1       5.084   4.394  19.270  0.00  0.00    +0.000 C 
ATOM     20  O   UNL     1       5.707   3.365  19.511  0.00  0.00    +0.000 OA
ATOM     21  H   UNL     1       5.060   6.292  18.466  0.00  0.00    +0.000 HD
BRANCH  18  22
ATOM     22  C   UNL     1       7.002   5.456  18.100  0.00  0.00    +0.000 C 
BRANCH  22  26
ATOM     23  C   UNL     1       9.293   9.810  18.821  0.00  0.00    +0.000 C 
ATOM     24  C   UNL     1       8.497   8.666  18.343  0.00  0.00    +0.000 A 
ATOM     25  N   UNL     1       8.298   7.490  18.892  0.00  0.00    +0.000 NA
ATOM     26  C   UNL     1       7.504   6.865  17.951  0.00  0.00    +0.000 A 
ATOM     27  N   UNL     1       7.211   7.622  16.880  0.00  0.00    +0.000 NA
ATOM     28  O   UNL     1       7.867   8.822  17.144  0.00  0.00    +0.000 OA
ENDBRANCH  22  26
BRANCH  22  29
ATOM     29  C   UNL     1       7.111   4.646  16.787  0.00  0.00    +0.000 C 
BRANCH  29  30
ATOM     30  C   UNL     1       5.802   4.508  16.046  0.00  0.00    +0.000 C 
ATOM     31  C   UNL     1       5.469   5.415  14.886  0.00  0.00    +0.000 C 
ATOM     32  C   UNL     1       5.805   3.973  14.637  0.00  0.00    +0.000 C 
ENDBRANCH  29  30
ENDBRANCH  22  29
ENDBRANCH  18  22
ENDBRANCH   1  19
TORSDOF 7
ENDMDL
MODEL 6
REMARK VINA RESULT:      -7.9      4.803      8.231
REMARK  Name = 
REMARK  8 active torsions:
REMARK  status: ('A' for Active; 'I' for Inactive)
REMARK    1  A    between atoms: C_1  and  C_2
REMARK    2  A    between atoms: C_4  and  C_5
REMARK    3  A    between atoms: C_5  and  C_6
REMARK    4  A    between atoms: C_5  and  N_10
REMARK    5  A    between atoms: C_6  and  C_7
REMARK    6  A    between atoms: C_11  and  C_13
REMARK    7  A    between atoms: C_17  and  C_18
REMARK    8  A    between atoms: C_23  and  C_24
REMARK                            x       y       z     vdW  Elec       q    Type
REMARK                         _______ _______ _______ _____ _____    ______ ____
ROOT
ATOM      1  C   UNL     1       1.705   8.448  19.352  0.00  0.00    +0.000 A 
ATOM      2  C   UNL     1       1.193   8.092  20.593  0.00  0.00    +0.000 A 
ATOM      3  C   UNL     1       1.444   6.814  21.064  0.00  0.00    +0.000 A 
ATOM      4  C   UNL     1       2.202   5.941  20.285  0.00  0.00    +0.000 A 
ATOM      5  C   UNL     1       2.703   6.368  19.051  0.00  0.00    +0.000 A 
ATOM      6  N   UNL     1       2.448   7.614  18.567  0.00  0.00    +0.000 NA
ENDROOT
BRANCH   5   7
ATOM      7  C   UNL     1       3.534   5.491  18.190  0.00  0.00    +0.000 A 
ATOM      8  C   UNL     1       3.006   4.340  17.569  0.00  0.00    +0.000 A 
ATOM      9  C   UNL     1       3.795   3.534  16.740  0.00  0.00    +0.000 A 
ATOM     10  C   UNL     1       5.126   3.859  16.524  0.00  0.00    +0.000 A 
ATOM     11  F   UNL     1       5.850   3.069  15.719  0.00  0.00    +0.000 F 
ATOM     12  C   UNL     1       5.698   4.973  17.124  0.00  0.00    +0.000 A 
ATOM     13  C   UNL     1       4.892   5.778  17.956  0.00  0.00    +0.000 A 
BRANCH  12  14
ATOM     14  C   UNL     1       7.135   5.333  16.892  0.00  0.00    +0.000 C 
ATOM     15  F   UNL     1       7.567   6.446  17.545  0.00  0.00    +0.000 F 
ATOM     16  F   UNL     1       7.981   4.333  17.271  0.00  0.00    +0.000 F 
ATOM     17  F   UNL     1       7.404   5.556  15.572  0.00  0.00    +0.000 F 
ENDBRANCH  12  14
ENDBRANCH   5   7
BRANCH   1  19
ATOM     18  N   UNL     1       0.390  10.498  19.415  0.00  0.00    +0.000 N 
ATOM     19  C   UNL     1       1.443   9.834  18.836  0.00  0.00    +0.000 C 
ATOM     20  O   UNL     1       2.141  10.323  17.955  0.00  0.00    +0.000 OA
ATOM     21  H   UNL     1      -0.138  10.028  20.146  0.00  0.00    +0.000 HD
BRANCH  18  22
ATOM     22  C   UNL     1      -0.036  11.825  18.977  0.00  0.00    +0.000 C 
BRANCH  22  26
ATOM     23  C   UNL     1      -0.657  15.694  22.038  0.00  0.00    +0.000 C 
ATOM     24  C   UNL     1      -0.239  14.466  21.340  0.00  0.00    +0.000 A 
ATOM     25  N   UNL     1      -0.656  13.960  20.203  0.00  0.00    +0.000 NA
ATOM     26  C   UNL     1       0.085  12.799  20.116  0.00  0.00    +0.000 A 
ATOM     27  N   UNL     1       0.932  12.602  21.140  0.00  0.00    +0.000 NA
ATOM     28  O   UNL     1       0.721  13.716  21.951  0.00  0.00    +0.000 OA
ENDBRANCH  22  26
BRANCH  22  29
ATOM     29  C   UNL     1      -1.456  11.806  18.363  0.00  0.00    +0.000 C 
BRANCH  29  30
ATOM     30  C   UNL     1      -1.752  10.565  17.553  0.00  0.00    +0.000 C 
ATOM     31  C   UNL     1      -3.119   9.925  17.590  0.00  0.00    +0.000 C 
ATOM     32  C   UNL     1      -2.670  10.664  16.362  0.00  0.00    +0.000 C 
ENDBRANCH  29  30
ENDBRANCH  22  29
ENDBRANCH  18  22
ENDBRANCH   1  19
TORSDOF 7
ENDMDL
MODEL 7
REMARK VINA RESULT:      -7.8      0.977      1.267
REMARK  Name = 
REMARK  8 active torsions:
REMARK  status: ('A' for Active; 'I' for Inactive)
REMARK    1  A    between atoms: C_1  and  C_2
REMARK    2  A    between atoms: C_4  and  C_5
REMARK    3  A    between atoms: C_5  and  C_6
REMARK    4  A    between atoms: C_5  and  N_10
REMARK    5  A    between atoms: C_6  and  C_7
REMARK    6  A    between atoms: C_11  and  C_13
REMARK    7  A    between atoms: C_17  and  C_18
REMARK    8  A    between atoms: C_23  and  C_24
REMARK                            x       y       z     vdW  Elec       q    Type
REMARK                         _______ _______ _______ _____ _____    ______ ____
ROOT
ATOM      1  C   UNL     1       3.265   4.602  19.446  0.00  0.00    +0.000 A 
ATOM      2  C   UNL     1       2.570   3.494  19.913  0.00  0.00    +0.000 A 
ATOM      3  C   UNL     1       1.421   3.707  20.656  0.00  0.00    +0.000 A 
ATOM      4  C   UNL     1       1.003   5.014  20.899  0.00  0.00    +0.000 A 
ATOM      5  C   UNL     1       1.739   6.086  20.385  0.00  0.00    +0.000 A 
ATOM      6  N   UNL     1       2.881   5.892  19.670  0.00  0.00    +0.000 NA
ENDROOT
BRANCH   5   7
ATOM      7  C   UNL     1       1.330   7.497  20.592  0.00  0.00    +0.000 A 
ATOM      8  C   UNL     1       0.763   7.939  21.806  0.00  0.00    +0.000 A 
ATOM      9  C   UNL     1       0.403   9.277  21.996  0.00  0.00    +0.000 A 
ATOM     10  C   UNL     1       0.594  10.196  20.975  0.00  0.00    +0.000 A 
ATOM     11  F   UNL     1       0.245  11.471  21.195  0.00  0.00    +0.000 F 
ATOM     12  C   UNL     1       1.134   9.810  19.756  0.00  0.00    +0.000 A 
ATOM     13  C   UNL     1       1.495   8.458  19.576  0.00  0.00    +0.000 A 
BRANCH  12  14
ATOM     14  C   UNL     1       1.348  10.798  18.649  0.00  0.00    +0.000 C 
ATOM     15  F   UNL     1       2.125  11.868  18.968  0.00  0.00    +0.000 F 
ATOM     16  F   UNL     1       1.937  10.229  17.559  0.00  0.00    +0.000 F 
ATOM     17  F   UNL     1       0.173  11.325  18.194  0.00  0.00    +0.000 F 
ENDBRANCH  12  14
ENDBRANCH   5   7
BRANCH   1  19
ATOM     18  N   UNL     1       4.531   4.979  17.398  0.00  0.00    +0.000 N 
ATOM     19  C   UNL     1       4.509   4.381  18.635  0.00  0.00    +0.000 C 
ATOM     20  O   UNL     1       5.437   3.709  19.070  0.00  0.00    +0.000 OA
ATOM     21  H   UNL     1       3.726   5.528  17.110  0.00  0.00    +0.000 HD
BRANCH  18  22
ATOM     22  C   UNL     1       5.640   4.804  16.462  0.00  0.00    +0.000 C 
BRANCH  22  26
ATOM     23  C   UNL     1       8.099   8.789  18.133  0.00  0.00    +0.000 C 
ATOM     24  C   UNL     1       7.595   7.612  17.404  0.00  0.00    +0.000 A 
ATOM     25  N   UNL     1       6.531   6.876  17.626  0.00  0.00    +0.000 NA
ATOM     26  C   UNL     1       6.631   5.920  16.635  0.00  0.00    +0.000 A 
ATOM     27  N   UNL     1       7.695   6.066  15.828  0.00  0.00    +0.000 NA
ATOM     28  O   UNL     1       8.333   7.196  16.336  0.00  0.00    +0.000 OA
ENDBRANCH  22  26
BRANCH  22  29
ATOM     29  C   UNL     1       5.149   4.668  15.001  0.00  0.00    +0.000 C 
BRANCH  29  30
ATOM     30  C   UNL     1       5.968   3.708  14.170  0.00  0.00    +0.000 C 
ATOM     31  C   UNL     1       5.581   3.393  12.746  0.00  0.00    +0.000 C 
ATOM     32  C   UNL     1       6.788   4.241  13.024  0.00  0.00    +0.000 C 
ENDBRANCH  29  30
ENDBRANCH  22  29
ENDBRANCH  18  22
ENDBRANCH   1  19
TORSDOF 7
ENDMDL
MODEL 8
REMARK VINA RESULT:      -7.8      2.842      4.805
REMARK  Name = 
REMARK  8 active torsions:
REMARK  status: ('A' for Active; 'I' for Inactive)
REMARK    1  A    between atoms: C_1  and  C_2
REMARK    2  A    between atoms: C_4  and  C_5
REMARK    3  A    between atoms: C_5  and  C_6
REMARK    4  A    between atoms: C_5  and  N_10
REMARK    5  A    between atoms: C_6  and  C_7
REMARK    6  A    between atoms: C_11  and  C_13
REMARK    7  A    between atoms: C_17  and  C_18
REMARK    8  A    between atoms: C_23  and  C_24
REMARK                            x       y       z     vdW  Elec       q    Type
REMARK                         _______ _______ _______ _____ _____    ______ ____
ROOT
ATOM      1  C   UNL     1       1.824   8.331  19.333  0.00  0.00    +0.000 A 
ATOM      2  C   UNL     1       2.289   8.914  18.162  0.00  0.00    +0.000 A 
ATOM      3  C   UNL     1       1.945  10.232  17.905  0.00  0.00    +0.000 A 
ATOM      4  C   UNL     1       1.160  10.920  18.827  0.00  0.00    +0.000 A 
ATOM      5  C   UNL     1       0.738  10.279  19.996  0.00  0.00    +0.000 A 
ATOM      6  N   UNL     1       1.051   8.980  20.253  0.00  0.00    +0.000 NA
ENDROOT
BRANCH   5   7
ATOM      7  C   UNL     1      -0.080  10.968  21.024  0.00  0.00    +0.000 A 
ATOM      8  C   UNL     1      -0.547  10.302  22.176  0.00  0.00    +0.000 A 
ATOM      9  C   UNL     1      -1.298  10.970  23.149  0.00  0.00    +0.000 A 
ATOM     10  C   UNL     1      -1.605  12.312  22.984  0.00  0.00    +0.000 A 
ATOM     11  F   UNL     1      -2.320  12.922  23.940  0.00  0.00    +0.000 F 
ATOM     12  C   UNL     1      -1.183  13.010  21.860  0.00  0.00    +0.000 A 
ATOM     13  C   UNL     1      -0.425  12.327  20.888  0.00  0.00    +0.000 A 
BRANCH  12  14
ATOM     14  C   UNL     1      -1.508  14.463  21.677  0.00  0.00    +0.000 C 
ATOM     15  F   UNL     1      -1.014  15.293  22.636  0.00  0.00    +0.000 F 
ATOM     16  F   UNL     1      -1.037  14.949  20.494  0.00  0.00    +0.000 F 
ATOM     17  F   UNL     1      -2.854  14.691  21.655  0.00  0.00    +0.000 F 
ENDBRANCH  12  14
ENDBRANCH   5   7
BRANCH   1  19
ATOM     18  N   UNL     1       2.937   6.272  18.657  0.00  0.00    +0.000 N 
ATOM     19  C   UNL     1       2.195   6.905  19.624  0.00  0.00    +0.000 C 
ATOM     20  O   UNL     1       1.850   6.362  20.667  0.00  0.00    +0.000 OA
ATOM     21  H   UNL     1       3.192   6.792  17.822  0.00  0.00    +0.000 HD
BRANCH  18  22
ATOM     22  C   UNL     1       3.320   4.865  18.758  0.00  0.00    +0.000 C 
BRANCH  22  26
ATOM     23  C   UNL     1       7.453   4.543  16.013  0.00  0.00    +0.000 C 
ATOM     24  C   UNL     1       6.428   4.565  17.071  0.00  0.00    +0.000 A 
ATOM     25  N   UNL     1       5.131   4.747  16.984  0.00  0.00    +0.000 NA
ATOM     26  C   UNL     1       4.744   4.693  18.307  0.00  0.00    +0.000 A 
ATOM     27  N   UNL     1       5.748   4.472  19.172  0.00  0.00    +0.000 NA
ATOM     28  O   UNL     1       6.868   4.381  18.348  0.00  0.00    +0.000 OA
ENDBRANCH  22  26
BRANCH  22  29
ATOM     29  C   UNL     1       2.341   3.941  17.996  0.00  0.00    +0.000 C 
BRANCH  29  30
ATOM     30  C   UNL     1       1.121   3.552  18.798  0.00  0.00    +0.000 C 
ATOM     31  C   UNL     1       0.677   2.111  18.881  0.00  0.00    +0.000 C 
ATOM     32  C   UNL     1       1.298   2.774  20.077  0.00  0.00    +0.000 C 
ENDBRANCH  29  30
ENDBRANCH  22  29
ENDBRANCH  18  22
ENDBRANCH   1  19
TORSDOF 7
ENDMDL
MODEL 9
REMARK VINA RESULT:      -7.8      3.174      5.091
REMARK  Name = 
REMARK  8 active torsions:
REMARK  status: ('A' for Active; 'I' for Inactive)
REMARK    1  A    between atoms: C_1  and  C_2
REMARK    2  A    between atoms: C_4  and  C_5
REMARK    3  A    between atoms: C_5  and  C_6
REMARK    4  A    between atoms: C_5  and  N_10
REMARK    5  A    between atoms: C_6  and  C_7
REMARK    6  A    between atoms: C_11  and  C_13
REMARK    7  A    between atoms: C_17  and  C_18
REMARK    8  A    between atoms: C_23  and  C_24
REMARK                            x       y       z     vdW  Elec       q    Type
REMARK                         _______ _______ _______ _____ _____    ______ ____
ROOT
ATOM      1  C   UNL     1       1.743   8.820  19.035  0.00  0.00    +0.000 A 
ATOM      2  C   UNL     1       2.174   9.618  17.983  0.00  0.00    +0.000 A 
ATOM      3  C   UNL     1       1.686  10.912  17.900  0.00  0.00    +0.000 A 
ATOM      4  C   UNL     1       0.797  11.365  18.871  0.00  0.00    +0.000 A 
ATOM      5  C   UNL     1       0.416  10.516  19.916  0.00  0.00    +0.000 A 
ATOM      6  N   UNL     1       0.871   9.237  19.999  0.00  0.00    +0.000 NA
ENDROOT
BRANCH   5   7
ATOM      7  C   UNL     1      -0.510  10.951  20.990  0.00  0.00    +0.000 A 
ATOM      8  C   UNL     1      -0.393  10.476  22.313  0.00  0.00    +0.000 A 
ATOM      9  C   UNL     1      -1.259  10.912  23.321  0.00  0.00    +0.000 A 
ATOM     10  C   UNL     1      -2.262  11.824  23.026  0.00  0.00    +0.000 A 
ATOM     11  F   UNL     1      -3.068  12.225  24.018  0.00  0.00    +0.000 F 
ATOM     12  C   UNL     1      -2.429  12.311  21.736  0.00  0.00    +0.000 A 
ATOM     13  C   UNL     1      -1.550  11.865  20.728  0.00  0.00    +0.000 A 
BRANCH  12  14
ATOM     14  C   UNL     1      -3.509  13.299  21.410  0.00  0.00    +0.000 C 
ATOM     15  F   UNL     1      -3.373  14.520  21.994  0.00  0.00    +0.000 F 
ATOM     16  F   UNL     1      -3.595  13.541  20.071  0.00  0.00    +0.000 F 
ATOM     17  F   UNL     1      -4.745  12.853  21.779  0.00  0.00    +0.000 F 
ENDBRANCH  12  14
ENDBRANCH   5   7
BRANCH   1  19
ATOM     18  N   UNL     1       2.882   6.925  18.011  0.00  0.00    +0.000 N 
ATOM     19  C   UNL     1       2.270   7.418  19.137  0.00  0.00    +0.000 C 
ATOM     20  O   UNL     1       2.153   6.772  20.173  0.00  0.00    +0.000 OA
ATOM     21  H   UNL     1       2.948   7.525  17.193  0.00  0.00    +0.000 HD
BRANCH  18  22
ATOM     22  C   UNL     1       3.386   5.556  17.927  0.00  0.00    +0.000 C 
BRANCH  22  26
ATOM     23  C   UNL     1       6.367   3.952  14.286  0.00  0.00    +0.000 C 
ATOM     24  C   UNL     1       5.655   4.701  15.335  0.00  0.00    +0.000 A 
ATOM     25  N   UNL     1       4.703   4.311  16.150  0.00  0.00    +0.000 NA
ATOM     26  C   UNL     1       4.436   5.467  16.855  0.00  0.00    +0.000 A 
ATOM     27  N   UNL     1       5.196   6.519  16.506  0.00  0.00    +0.000 NA
ATOM     28  O   UNL     1       6.011   6.007  15.499  0.00  0.00    +0.000 OA
ENDBRANCH  22  26
BRANCH  22  29
ATOM     29  C   UNL     1       2.245   4.530  17.726  0.00  0.00    +0.000 C 
BRANCH  29  30
ATOM     30  C   UNL     1       2.165   3.487  18.816  0.00  0.00    +0.000 C 
ATOM     31  C   UNL     1       0.873   2.759  19.098  0.00  0.00    +0.000 C 
ATOM     32  C   UNL     1       2.012   2.036  18.439  0.00  0.00    +0.000 C 
ENDBRANCH  29  30
ENDBRANCH  22  29
ENDBRANCH  18  22
ENDBRANCH   1  19
TORSDOF 7
ENDMDL
