MODEL 1
REMARK VINA RESULT:      -8.2      0.000      0.000
REMARK  Name = 
REMARK  12 active torsions:
REMARK  status: ('A' for Active; 'I' for Inactive)
REMARK    1  A    between atoms: C_1  and  C_2
REMARK    2  A    between atoms: C_2  and  O_3
REMARK    3  A    between atoms: O_3  and  C_4
REMARK    4  A    between atoms: C_9  and  C_10
REMARK    5  A    between atoms: C_10  and  C_11
REMARK    6  A    between atoms: C_12  and  O_13
REMARK    7  A    between atoms: O_13  and  C_14
REMARK    8  A    between atoms: C_14  and  C_15
REMARK    9  A    between atoms: C_14  and  C_16
REMARK   10  A    between atoms: C_22  and  C_23
REMARK   11  A    between atoms: C_23  and  C_24
REMARK   12  A    between atoms: C_27  and  C_28
REMARK                            x       y       z     vdW  Elec       q    Type
REMARK                         _______ _______ _______ _____ _____    ______ ____
ROOT
ATOM      1  C   UNL     1       3.000   5.740  18.540  0.00  0.00    +0.000 A 
ATOM      2  C   UNL     1       2.461   5.256  19.754  0.00  0.00    +0.000 A 
ATOM      3  N   UNL     1       1.830   6.186  20.466  0.00  0.00    +0.000 NA
ATOM      4  N   UNL     1       1.866   7.301  19.671  0.00  0.00    +0.000 N 
ATOM      5  C   UNL     1       1.316   8.574  20.091  0.00  0.00    +0.000 A 
ATOM      6  N   UNL     1       1.326   8.884  21.404  0.00  0.00    +0.000 NA
ATOM      7  C   UNL     1       1.142  10.188  21.715  0.00  0.00    +0.000 A 
ATOM      8  C   UNL     1       0.900  11.185  20.790  0.00  0.00    +0.000 A 
ATOM      9  C   UNL     1       0.793  10.732  19.495  0.00  0.00    +0.000 A 
ATOM     10  N   UNL     1       0.999   9.462  19.118  0.00  0.00    +0.000 NA
ATOM     11  C   UNL     1       2.603   7.066  18.513  0.00  0.00    +0.000 A 
ATOM     12  C   UNL     1       2.995   8.120  17.533  0.00  0.00    +0.000 C 
ENDROOT
BRANCH   8  13
ATOM     13  C   UNL     1       0.782  12.655  21.069  0.00  0.00    +0.000 C 
ATOM     14  C   UNL     1      -0.344  13.096  21.994  0.00  0.00    +0.000 C 
ENDBRANCH   8  13
BRANCH   1  15
ATOM     15  C   UNL     1       3.937   5.088  17.585  0.00  0.00    +0.000 C 
BRANCH  15  21
ATOM     16  C   UNL     1       6.141   6.301  16.993  0.00  0.00    +0.000 A 
ATOM     17  C   UNL     1       7.365   6.817  17.447  0.00  0.00    +0.000 A 
ATOM     18  C   UNL     1       7.868   6.489  18.705  0.00  0.00    +0.000 A 
ATOM     19  C   UNL     1       7.137   5.663  19.541  0.00  0.00    +0.000 A 
ATOM     20  C   UNL     1       5.886   5.192  19.135  0.00  0.00    +0.000 A 
ATOM     21  C   UNL     1       5.358   5.516  17.869  0.00  0.00    +0.000 A 
BRANCH  16  22
ATOM     22  O   UNL     1       5.667   6.551  15.725  0.00  0.00    +0.000 OA
BRANCH  22  24
ATOM     23  C   UNL     1       6.968   4.877  14.516  0.00  0.00    +0.000 C 
ATOM     24  C   UNL     1       5.585   5.390  14.879  0.00  0.00    +0.000 C 
ENDBRANCH  22  24
ENDBRANCH  16  22
ENDBRANCH  15  21
ENDBRANCH   1  15
BRANCH   2  25
ATOM     25  O   UNL     1       2.659   4.010  20.262  0.00  0.00    +0.000 OA
BRANCH  25  26
ATOM     26  C   UNL     1       1.474   3.212  20.419  0.00  0.00    +0.000 C 
ATOM     27  C   UNL     1       1.388   2.165  19.308  0.00  0.00    +0.000 C 
ATOM     28  C   UNL     1       1.572   2.491  21.767  0.00  0.00    +0.000 C 
ENDBRANCH  25  26
ENDBRANCH   2  25
TORSDOF 7
ENDMDL
MODEL 2
REMARK VINA RESULT:      -7.8      1.705      2.766
REMARK  Name = 
REMARK  12 active torsions:
REMARK  status: ('A' for Active; 'I' for Inactive)
REMARK    1  A    between atoms: C_1  and  C_2
REMARK    2  A    between atoms: C_2  and  O_3
REMARK    3  A    between atoms: O_3  and  C_4
REMARK    4  A    between atoms: C_9  and  C_10
REMARK    5  A    between atoms: C_10  and  C_11
REMARK    6  A    between atoms: C_12  and  O_13
REMARK    7  A    between atoms: O_13  and  C_14
REMARK    8  A    between atoms: C_14  and  C_15
REMARK    9  A    between atoms: C_14  and  C_16
REMARK   10  A    between atoms: C_22  and  C_23
REMARK   11  A    between atoms: C_23  and  C_24
REMARK   12  A    between atoms: C_27  and  C_28
REMARK                            x       y       z     vdW  Elec       q    Type
REMARK                         _______ _______ _______ _____ _____    ______ ____
ROOT
ATOM      1  C   UNL     1       2.728   6.682  18.912  0.00  0.00    +0.000 A 
ATOM      2  C   UNL     1       2.322   6.156  20.160  0.00  0.00    +0.000 A 
ATOM      3  N   UNL     1       1.546   6.981  20.858  0.00  0.00    +0.000 NA
ATOM      4  N   UNL     1       1.350   8.048  20.023  0.00  0.00    +0.000 N 
ATOM      5  C   UNL     1       0.581   9.212  20.415  0.00  0.00    +0.000 A 
ATOM      6  N   UNL     1       0.568   9.573  21.715  0.00  0.00    +0.000 NA
ATOM      7  C   UNL     1       0.149  10.832  21.985  0.00  0.00    +0.000 A 
ATOM      8  C   UNL     1      -0.302  11.726  21.033  0.00  0.00    +0.000 A 
ATOM      9  C   UNL     1      -0.356  11.206  19.759  0.00  0.00    +0.000 A 
ATOM     10  N   UNL     1       0.075   9.982  19.422  0.00  0.00    +0.000 NA
ATOM     11  C   UNL     1       2.087   7.907  18.850  0.00  0.00    +0.000 A 
ATOM     12  C   UNL     1       2.246   8.973  17.820  0.00  0.00    +0.000 C 
ENDROOT
BRANCH   8  13
ATOM     13  C   UNL     1      -0.687  13.157  21.262  0.00  0.00    +0.000 C 
ATOM     14  C   UNL     1      -1.864  13.695  20.461  0.00  0.00    +0.000 C 
ENDBRANCH   8  13
BRANCH   1  15
ATOM     15  C   UNL     1       3.744   6.177  17.949  0.00  0.00    +0.000 C 
BRANCH  15  21
ATOM     16  C   UNL     1       4.718   3.886  18.644  0.00  0.00    +0.000 A 
ATOM     17  C   UNL     1       4.519   2.501  18.753  0.00  0.00    +0.000 A 
ATOM     18  C   UNL     1       3.456   1.869  18.110  0.00  0.00    +0.000 A 
ATOM     19  C   UNL     1       2.558   2.620  17.372  0.00  0.00    +0.000 A 
ATOM     20  C   UNL     1       2.700   4.008  17.305  0.00  0.00    +0.000 A 
ATOM     21  C   UNL     1       3.765   4.666  17.952  0.00  0.00    +0.000 A 
BRANCH  16  22
ATOM     22  O   UNL     1       5.805   4.515  19.207  0.00  0.00    +0.000 OA
BRANCH  22  24
ATOM     23  C   UNL     1       7.790   5.877  18.805  0.00  0.00    +0.000 C 
ATOM     24  C   UNL     1       6.889   4.766  18.294  0.00  0.00    +0.000 C 
ENDBRANCH  22  24
ENDBRANCH  16  22
ENDBRANCH  15  21
ENDBRANCH   1  15
BRANCH   2  25
ATOM     25  O   UNL     1       2.765   4.992  20.705  0.00  0.00    +0.000 OA
BRANCH  25  26
ATOM     26  C   UNL     1       1.743   4.123  21.220  0.00  0.00    +0.000 C 
ATOM     27  C   UNL     1       0.731   3.787  20.123  0.00  0.00    +0.000 C 
ATOM     28  C   UNL     1       2.419   2.827  21.678  0.00  0.00    +0.000 C 
ENDBRANCH  25  26
ENDBRANCH   2  25
TORSDOF 7
ENDMDL
MODEL 3
REMARK VINA RESULT:      -7.7      0.886      1.135
REMARK  Name = 
REMARK  12 active torsions:
REMARK  status: ('A' for Active; 'I' for Inactive)
REMARK    1  A    between atoms: C_1  and  C_2
REMARK    2  A    between atoms: C_2  and  O_3
REMARK    3  A    between atoms: O_3  and  C_4
REMARK    4  A    between atoms: C_9  and  C_10
REMARK    5  A    between atoms: C_10  and  C_11
REMARK    6  A    between atoms: C_12  and  O_13
REMARK    7  A    between atoms: O_13  and  C_14
REMARK    8  A    between atoms: C_14  and  C_15
REMARK    9  A    between atoms: C_14  and  C_16
REMARK   10  A    between atoms: C_22  and  C_23
REMARK   11  A    between atoms: C_23  and  C_24
REMARK   12  A    between atoms: C_27  and  C_28
REMARK                            x       y       z     vdW  Elec       q    Type
REMARK                         _______ _______ _______ _____ _____    ______ ____
ROOT
ATOM      1  C   UNL     1       3.091   5.409  18.115  0.00  0.00    +0.000 A 
ATOM      2  C   UNL     1       2.331   4.831  19.158  0.00  0.00    +0.000 A 
ATOM      3  N   UNL     1       1.657   5.721  19.881  0.00  0.00    +0.000 NA
ATOM      4  N   UNL     1       1.895   6.915  19.256  0.00  0.00    +0.000 N 
ATOM      5  C   UNL     1       1.370   8.171  19.751  0.00  0.00    +0.000 A 
ATOM      6  N   UNL     1       1.188   8.320  21.079  0.00  0.00    +0.000 NA
ATOM      7  C   UNL     1       1.043   9.588  21.528  0.00  0.00    +0.000 A 
ATOM      8  C   UNL     1       1.020  10.706  20.717  0.00  0.00    +0.000 A 
ATOM      9  C   UNL     1       1.094  10.422  19.372  0.00  0.00    +0.000 A 
ATOM     10  N   UNL     1       1.274   9.193  18.866  0.00  0.00    +0.000 NA
ATOM     11  C   UNL     1       2.792   6.758  18.202  0.00  0.00    +0.000 A 
ATOM     12  C   UNL     1       3.407   7.883  17.441  0.00  0.00    +0.000 C 
ENDROOT
BRANCH   8  13
ATOM     13  C   UNL     1       0.956  12.136  21.166  0.00  0.00    +0.000 C 
ATOM     14  C   UNL     1       1.792  13.144  20.389  0.00  0.00    +0.000 C 
ENDBRANCH   8  13
BRANCH   1  15
ATOM     15  C   UNL     1       4.125   4.797  17.236  0.00  0.00    +0.000 C 
BRANCH  15  21
ATOM     16  C   UNL     1       6.400   5.932  16.775  0.00  0.00    +0.000 A 
ATOM     17  C   UNL     1       7.562   6.511  17.309  0.00  0.00    +0.000 A 
ATOM     18  C   UNL     1       7.895   6.359  18.654  0.00  0.00    +0.000 A 
ATOM     19  C   UNL     1       7.054   5.648  19.491  0.00  0.00    +0.000 A 
ATOM     20  C   UNL     1       5.860   5.120  18.995  0.00  0.00    +0.000 A 
ATOM     21  C   UNL     1       5.502   5.267  17.640  0.00  0.00    +0.000 A 
BRANCH  16  22
ATOM     22  O   UNL     1       6.096   6.007  15.434  0.00  0.00    +0.000 OA
BRANCH  22  24
ATOM     23  C   UNL     1       5.933   3.988  14.073  0.00  0.00    +0.000 C 
ATOM     24  C   UNL     1       6.832   5.092  14.603  0.00  0.00    +0.000 C 
ENDBRANCH  22  24
ENDBRANCH  16  22
ENDBRANCH  15  21
ENDBRANCH   1  15
BRANCH   2  25
ATOM     25  O   UNL     1       2.361   3.521  19.521  0.00  0.00    +0.000 OA
BRANCH  25  26
ATOM     26  C   UNL     1       3.101   3.229  20.718  0.00  0.00    +0.000 C 
ATOM     27  C   UNL     1       2.184   2.602  21.769  0.00  0.00    +0.000 C 
ATOM     28  C   UNL     1       4.195   2.219  20.356  0.00  0.00    +0.000 C 
ENDBRANCH  25  26
ENDBRANCH   2  25
TORSDOF 7
ENDMDL
MODEL 4
REMARK VINA RESULT:      -7.2      3.213      8.072
REMARK  Name = 
REMARK  12 active torsions:
REMARK  status: ('A' for Active; 'I' for Inactive)
REMARK    1  A    between atoms: C_1  and  C_2
REMARK    2  A    between atoms: C_2  and  O_3
REMARK    3  A    between atoms: O_3  and  C_4
REMARK    4  A    between atoms: C_9  and  C_10
REMARK    5  A    between atoms: C_10  and  C_11
REMARK    6  A    between atoms: C_12  and  O_13
REMARK    7  A    between atoms: O_13  and  C_14
REMARK    8  A    between atoms: C_14  and  C_15
REMARK    9  A    between atoms: C_14  and  C_16
REMARK   10  A    between atoms: C_22  and  C_23
REMARK   11  A    between atoms: C_23  and  C_24
REMARK   12  A    between atoms: C_27  and  C_28
REMARK                            x       y       z     vdW  Elec       q    Type
REMARK                         _______ _______ _______ _____ _____    ______ ____
ROOT
ATOM      1  C   UNL     1       1.069   9.440  19.311  0.00  0.00    +0.000 A 
ATOM      2  C   UNL     1       0.496   9.098  20.558  0.00  0.00    +0.000 A 
ATOM      3  N   UNL     1       0.877   7.906  21.010  0.00  0.00    +0.000 NA
ATOM      4  N   UNL     1       1.797   7.475  20.091  0.00  0.00    +0.000 N 
ATOM      5  C   UNL     1       2.442   6.181  20.184  0.00  0.00    +0.000 A 
ATOM      6  N   UNL     1       1.766   5.158  20.746  0.00  0.00    +0.000 NA
ATOM      7  C   UNL     1       2.242   3.915  20.499  0.00  0.00    +0.000 A 
ATOM      8  C   UNL     1       3.381   3.647  19.765  0.00  0.00    +0.000 A 
ATOM      9  C   UNL     1       4.053   4.772  19.344  0.00  0.00    +0.000 A 
ATOM     10  N   UNL     1       3.616   6.027  19.526  0.00  0.00    +0.000 NA
ATOM     11  C   UNL     1       1.904   8.372  19.031  0.00  0.00    +0.000 A 
ATOM     12  C   UNL     1       2.670   8.112  17.779  0.00  0.00    +0.000 C 
ENDROOT
BRANCH   8  13
ATOM     13  C   UNL     1       3.900   2.292  19.383  0.00  0.00    +0.000 C 
ATOM     14  C   UNL     1       3.459   1.737  18.036  0.00  0.00    +0.000 C 
ENDBRANCH   8  13
BRANCH   1  15
ATOM     15  C   UNL     1       0.744  10.562  18.389  0.00  0.00    +0.000 C 
BRANCH  15  21
ATOM     16  C   UNL     1      -1.515  11.775  18.714  0.00  0.00    +0.000 A 
ATOM     17  C   UNL     1      -2.858  11.898  18.323  0.00  0.00    +0.000 A 
ATOM     18  C   UNL     1      -3.479  10.922  17.546  0.00  0.00    +0.000 A 
ATOM     19  C   UNL     1      -2.756   9.821  17.123  0.00  0.00    +0.000 A 
ATOM     20  C   UNL     1      -1.400   9.711  17.445  0.00  0.00    +0.000 A 
ATOM     21  C   UNL     1      -0.753  10.690  18.226  0.00  0.00    +0.000 A 
BRANCH  16  22
ATOM     22  O   UNL     1      -0.908  12.690  19.544  0.00  0.00    +0.000 OA
BRANCH  22  24
ATOM     23  C   UNL     1       0.920  14.281  19.255  0.00  0.00    +0.000 C 
ATOM     24  C   UNL     1      -0.509  13.912  18.897  0.00  0.00    +0.000 C 
ENDBRANCH  22  24
ENDBRANCH  16  22
ENDBRANCH  15  21
ENDBRANCH   1  15
BRANCH   2  25
ATOM     25  O   UNL     1      -0.462   9.812  21.207  0.00  0.00    +0.000 OA
BRANCH  25  26
ATOM     26  C   UNL     1      -0.024  10.501  22.389  0.00  0.00    +0.000 C 
ATOM     27  C   UNL     1      -1.013  11.609  22.754  0.00  0.00    +0.000 C 
ATOM     28  C   UNL     1       0.016   9.483  23.534  0.00  0.00    +0.000 C 
ENDBRANCH  25  26
ENDBRANCH   2  25
TORSDOF 7
ENDMDL
MODEL 5
REMARK VINA RESULT:      -7.2      3.255      8.399
REMARK  Name = 
REMARK  12 active torsions:
REMARK  status: ('A' for Active; 'I' for Inactive)
REMARK    1  A    between atoms: C_1  and  C_2
REMARK    2  A    between atoms: C_2  and  O_3
REMARK    3  A    between atoms: O_3  and  C_4
REMARK    4  A    between atoms: C_9  and  C_10
REMARK    5  A    between atoms: C_10  and  C_11
REMARK    6  A    between atoms: C_12  and  O_13
REMARK    7  A    between atoms: O_13  and  C_14
REMARK    8  A    between atoms: C_14  and  C_15
REMARK    9  A    between atoms: C_14  and  C_16
REMARK   10  A    between atoms: C_22  and  C_23
REMARK   11  A    between atoms: C_23  and  C_24
REMARK   12  A    between atoms: C_27  and  C_28
REMARK                            x       y       z     vdW  Elec       q    Type
REMARK                         _______ _______ _______ _____ _____    ______ ____
ROOT
ATOM      1  C   UNL     1       0.741   9.742  19.396  0.00  0.00    +0.000 A 
ATOM      2  C   UNL     1       0.257   9.320  20.656  0.00  0.00    +0.000 A 
ATOM      3  N   UNL     1       0.719   8.129  21.031  0.00  0.00    +0.000 NA
ATOM      4  N   UNL     1       1.604   7.784  20.046  0.00  0.00    +0.000 N 
ATOM      5  C   UNL     1       2.313   6.521  20.044  0.00  0.00    +0.000 A 
ATOM      6  N   UNL     1       1.719   5.442  20.596  0.00  0.00    +0.000 NA
ATOM      7  C   UNL     1       2.237   4.236  20.267  0.00  0.00    +0.000 A 
ATOM      8  C   UNL     1       3.345   4.055  19.461  0.00  0.00    +0.000 A 
ATOM      9  C   UNL     1       3.937   5.230  19.054  0.00  0.00    +0.000 A 
ATOM     10  N   UNL     1       3.454   6.452  19.316  0.00  0.00    +0.000 NA
ATOM     11  C   UNL     1       1.608   8.729  19.023  0.00  0.00    +0.000 A 
ATOM     12  C   UNL     1       2.312   8.561  17.720  0.00  0.00    +0.000 C 
ENDROOT
BRANCH   8  13
ATOM     13  C   UNL     1       3.903   2.745  18.990  0.00  0.00    +0.000 C 
ATOM     14  C   UNL     1       3.138   2.021  17.891  0.00  0.00    +0.000 C 
ENDBRANCH   8  13
BRANCH   1  15
ATOM     15  C   UNL     1       0.312  10.884  18.544  0.00  0.00    +0.000 C 
BRANCH  15  21
ATOM     16  C   UNL     1      -2.160  11.626  18.691  0.00  0.00    +0.000 A 
ATOM     17  C   UNL     1      -3.450  11.553  18.144  0.00  0.00    +0.000 A 
ATOM     18  C   UNL     1      -3.783  10.582  17.201  0.00  0.00    +0.000 A 
ATOM     19  C   UNL     1      -2.821   9.687  16.770  0.00  0.00    +0.000 A 
ATOM     20  C   UNL     1      -1.513   9.784  17.252  0.00  0.00    +0.000 A 
ATOM     21  C   UNL     1      -1.155  10.762  18.202  0.00  0.00    +0.000 A 
BRANCH  16  22
ATOM     22  O   UNL     1      -1.835  12.527  19.680  0.00  0.00    +0.000 OA
BRANCH  22  24
ATOM     23  C   UNL     1      -2.619  14.455  20.954  0.00  0.00    +0.000 C 
ATOM     24  C   UNL     1      -2.965  13.101  20.360  0.00  0.00    +0.000 C 
ENDBRANCH  22  24
ENDBRANCH  16  22
ENDBRANCH  15  21
ENDBRANCH   1  15
BRANCH   2  25
ATOM     25  O   UNL     1      -0.695   9.957  21.388  0.00  0.00    +0.000 OA
BRANCH  25  26
ATOM     26  C   UNL     1      -0.226  10.600  22.584  0.00  0.00    +0.000 C 
ATOM     27  C   UNL     1      -1.269  11.595  23.096  0.00  0.00    +0.000 C 
ATOM     28  C   UNL     1      -0.021   9.515  23.647  0.00  0.00    +0.000 C 
ENDBRANCH  25  26
ENDBRANCH   2  25
TORSDOF 7
ENDMDL
MODEL 6
REMARK VINA RESULT:      -7.2      1.706      2.500
REMARK  Name = 
REMARK  12 active torsions:
REMARK  status: ('A' for Active; 'I' for Inactive)
REMARK    1  A    between atoms: C_1  and  C_2
REMARK    2  A    between atoms: C_2  and  O_3
REMARK    3  A    between atoms: O_3  and  C_4
REMARK    4  A    between atoms: C_9  and  C_10
REMARK    5  A    between atoms: C_10  and  C_11
REMARK    6  A    between atoms: C_12  and  O_13
REMARK    7  A    between atoms: O_13  and  C_14
REMARK    8  A    between atoms: C_14  and  C_15
REMARK    9  A    between atoms: C_14  and  C_16
REMARK   10  A    between atoms: C_22  and  C_23
REMARK   11  A    between atoms: C_23  and  C_24
REMARK   12  A    between atoms: C_27  and  C_28
REMARK                            x       y       z     vdW  Elec       q    Type
REMARK                         _______ _______ _______ _____ _____    ______ ____
ROOT
ATOM      1  C   UNL     1       3.262   7.338  17.823  0.00  0.00    +0.000 A 
ATOM      2  C   UNL     1       3.284   6.348  18.833  0.00  0.00    +0.000 A 
ATOM      3  N   UNL     1       2.537   6.651  19.891  0.00  0.00    +0.000 NA
ATOM      4  N   UNL     1       1.926   7.828  19.549  0.00  0.00    +0.000 N 
ATOM      5  C   UNL     1       1.041   8.537  20.450  0.00  0.00    +0.000 A 
ATOM      6  N   UNL     1       1.257   8.443  21.779  0.00  0.00    +0.000 NA
ATOM      7  C   UNL     1       0.656   9.376  22.553  0.00  0.00    +0.000 A 
ATOM      8  C   UNL     1      -0.187  10.362  22.076  0.00  0.00    +0.000 A 
ATOM      9  C   UNL     1      -0.427  10.285  20.722  0.00  0.00    +0.000 A 
ATOM     10  N   UNL     1       0.164   9.409  19.897  0.00  0.00    +0.000 NA
ATOM     11  C   UNL     1       2.379   8.285  18.313  0.00  0.00    +0.000 A 
ATOM     12  C   UNL     1       2.060   9.624  17.740  0.00  0.00    +0.000 C 
ENDROOT
BRANCH   8  13
ATOM     13  C   UNL     1      -0.803  11.474  22.873  0.00  0.00    +0.000 C 
ATOM     14  C   UNL     1      -0.826  12.854  22.232  0.00  0.00    +0.000 C 
ENDBRANCH   8  13
BRANCH   1  15
ATOM     15  C   UNL     1       4.108   7.478  16.607  0.00  0.00    +0.000 C 
BRANCH  15  21
ATOM     16  C   UNL     1       6.471   6.677  17.280  0.00  0.00    +0.000 A 
ATOM     17  C   UNL     1       7.358   5.598  17.421  0.00  0.00    +0.000 A 
ATOM     18  C   UNL     1       7.086   4.357  16.849  0.00  0.00    +0.000 A 
ATOM     19  C   UNL     1       5.906   4.168  16.151  0.00  0.00    +0.000 A 
ATOM     20  C   UNL     1       4.979   5.209  16.055  0.00  0.00    +0.000 A 
ATOM     21  C   UNL     1       5.233   6.470  16.631  0.00  0.00    +0.000 A 
BRANCH  16  22
ATOM     22  O   UNL     1       6.760   7.930  17.772  0.00  0.00    +0.000 OA
BRANCH  22  24
ATOM     23  C   UNL     1       8.461   9.632  18.179  0.00  0.00    +0.000 C 
ATOM     24  C   UNL     1       8.151   8.149  18.068  0.00  0.00    +0.000 C 
ENDBRANCH  22  24
ENDBRANCH  16  22
ENDBRANCH  15  21
ENDBRANCH   1  15
BRANCH   2  25
ATOM     25  O   UNL     1       4.081   5.247  18.838  0.00  0.00    +0.000 OA
BRANCH  25  26
ATOM     26  C   UNL     1       3.433   4.019  19.209  0.00  0.00    +0.000 C 
ATOM     27  C   UNL     1       2.557   3.513  18.061  0.00  0.00    +0.000 C 
ATOM     28  C   UNL     1       4.525   2.981  19.487  0.00  0.00    +0.000 C 
ENDBRANCH  25  26
ENDBRANCH   2  25
TORSDOF 7
ENDMDL
MODEL 7
REMARK VINA RESULT:      -7.2      1.566      2.131
REMARK  Name = 
REMARK  12 active torsions:
REMARK  status: ('A' for Active; 'I' for Inactive)
REMARK    1  A    between atoms: C_1  and  C_2
REMARK    2  A    between atoms: C_2  and  O_3
REMARK    3  A    between atoms: O_3  and  C_4
REMARK    4  A    between atoms: C_9  and  C_10
REMARK    5  A    between atoms: C_10  and  C_11
REMARK    6  A    between atoms: C_12  and  O_13
REMARK    7  A    between atoms: O_13  and  C_14
REMARK    8  A    between atoms: C_14  and  C_15
REMARK    9  A    between atoms: C_14  and  C_16
REMARK   10  A    between atoms: C_22  and  C_23
REMARK   11  A    between atoms: C_23  and  C_24
REMARK   12  A    between atoms: C_27  and  C_28
REMARK                            x       y       z     vdW  Elec       q    Type
REMARK                         _______ _______ _______ _____ _____    ______ ____
ROOT
ATOM      1  C   UNL     1       2.529   6.594  18.690  0.00  0.00    +0.000 A 
ATOM      2  C   UNL     1       2.175   6.241  20.013  0.00  0.00    +0.000 A 
ATOM      3  N   UNL     1       1.585   7.226  20.686  0.00  0.00    +0.000 NA
ATOM      4  N   UNL     1       1.456   8.233  19.768  0.00  0.00    +0.000 N 
ATOM      5  C   UNL     1       0.889   9.524  20.102  0.00  0.00    +0.000 A 
ATOM      6  N   UNL     1       1.044   9.995  21.357  0.00  0.00    +0.000 NA
ATOM      7  C   UNL     1       0.825  11.318  21.534  0.00  0.00    +0.000 A 
ATOM      8  C   UNL     1       0.410  12.181  20.537  0.00  0.00    +0.000 A 
ATOM      9  C   UNL     1       0.169  11.566  19.330  0.00  0.00    +0.000 A 
ATOM     10  N   UNL     1       0.401  10.269  19.082  0.00  0.00    +0.000 NA
ATOM     11  C   UNL     1       2.055   7.888  18.559  0.00  0.00    +0.000 A 
ATOM     12  C   UNL     1       2.259   8.827  17.419  0.00  0.00    +0.000 C 
ENDROOT
BRANCH   8  13
ATOM     13  C   UNL     1       0.243  13.668  20.654  0.00  0.00    +0.000 C 
ATOM     14  C   UNL     1       1.131  14.387  21.659  0.00  0.00    +0.000 C 
ENDBRANCH   8  13
BRANCH   1  15
ATOM     15  C   UNL     1       3.376   5.869  17.705  0.00  0.00    +0.000 C 
BRANCH  15  21
ATOM     16  C   UNL     1       5.578   5.238  18.901  0.00  0.00    +0.000 A 
ATOM     17  C   UNL     1       6.973   5.379  18.961  0.00  0.00    +0.000 A 
ATOM     18  C   UNL     1       7.631   6.382  18.250  0.00  0.00    +0.000 A 
ATOM     19  C   UNL     1       6.904   7.240  17.445  0.00  0.00    +0.000 A 
ATOM     20  C   UNL     1       5.522   7.074  17.319  0.00  0.00    +0.000 A 
ATOM     21  C   UNL     1       4.839   6.064  18.025  0.00  0.00    +0.000 A 
BRANCH  16  22
ATOM     22  O   UNL     1       4.905   4.304  19.656  0.00  0.00    +0.000 OA
BRANCH  22  24
ATOM     23  C   UNL     1       3.829   2.474  18.451  0.00  0.00    +0.000 C 
ATOM     24  C   UNL     1       5.061   2.947  19.204  0.00  0.00    +0.000 C 
ENDBRANCH  22  24
ENDBRANCH  16  22
ENDBRANCH  15  21
ENDBRANCH   1  15
BRANCH   2  25
ATOM     25  O   UNL     1       2.508   5.078  20.634  0.00  0.00    +0.000 OA
BRANCH  25  26
ATOM     26  C   UNL     1       1.411   4.192  20.912  0.00  0.00    +0.000 C 
ATOM     27  C   UNL     1       0.805   3.672  19.608  0.00  0.00    +0.000 C 
ATOM     28  C   UNL     1       1.962   3.003  21.706  0.00  0.00    +0.000 C 
ENDBRANCH  25  26
ENDBRANCH   2  25
TORSDOF 7
ENDMDL
MODEL 8
REMARK VINA RESULT:      -7.2      1.164      1.270
REMARK  Name = 
REMARK  12 active torsions:
REMARK  status: ('A' for Active; 'I' for Inactive)
REMARK    1  A    between atoms: C_1  and  C_2
REMARK    2  A    between atoms: C_2  and  O_3
REMARK    3  A    between atoms: O_3  and  C_4
REMARK    4  A    between atoms: C_9  and  C_10
REMARK    5  A    between atoms: C_10  and  C_11
REMARK    6  A    between atoms: C_12  and  O_13
REMARK    7  A    between atoms: O_13  and  C_14
REMARK    8  A    between atoms: C_14  and  C_15
REMARK    9  A    between atoms: C_14  and  C_16
REMARK   10  A    between atoms: C_22  and  C_23
REMARK   11  A    between atoms: C_23  and  C_24
REMARK   12  A    between atoms: C_27  and  C_28
REMARK                            x       y       z     vdW  Elec       q    Type
REMARK                         _______ _______ _______ _____ _____    ______ ____
ROOT
ATOM      1  C   UNL     1       3.206   6.085  18.144  0.00  0.00    +0.000 A 
ATOM      2  C   UNL     1       2.840   5.334  19.285  0.00  0.00    +0.000 A 
ATOM      3  N   UNL     1       2.128   6.025  20.171  0.00  0.00    +0.000 NA
ATOM      4  N   UNL     1       1.931   7.241  19.573  0.00  0.00    +0.000 N 
ATOM      5  C   UNL     1       1.223   8.324  20.225  0.00  0.00    +0.000 A 
ATOM      6  N   UNL     1       1.283   8.421  21.569  0.00  0.00    +0.000 NA
ATOM      7  C   UNL     1       0.923   9.612  22.102  0.00  0.00    +0.000 A 
ATOM      8  C   UNL     1       0.460  10.688  21.369  0.00  0.00    +0.000 A 
ATOM      9  C   UNL     1       0.328  10.431  20.023  0.00  0.00    +0.000 A 
ATOM     10  N   UNL     1       0.700   9.288  19.430  0.00  0.00    +0.000 NA
ATOM     11  C   UNL     1       2.607   7.315  18.357  0.00  0.00    +0.000 A 
ATOM     12  C   UNL     1       2.756   8.559  17.549  0.00  0.00    +0.000 C 
ENDROOT
BRANCH   8  13
ATOM     13  C   UNL     1       0.137  12.055  21.895  0.00  0.00    +0.000 C 
ATOM     14  C   UNL     1       0.110  13.196  20.886  0.00  0.00    +0.000 C 
ENDBRANCH   8  13
BRANCH   1  15
ATOM     15  C   UNL     1       4.159   5.754  17.050  0.00  0.00    +0.000 C 
BRANCH  15  21
ATOM     16  C   UNL     1       6.442   4.548  16.963  0.00  0.00    +0.000 A 
ATOM     17  C   UNL     1       7.739   4.432  17.489  0.00  0.00    +0.000 A 
ATOM     18  C   UNL     1       8.088   5.035  18.696  0.00  0.00    +0.000 A 
ATOM     19  C   UNL     1       7.151   5.787  19.382  0.00  0.00    +0.000 A 
ATOM     20  C   UNL     1       5.874   5.969  18.844  0.00  0.00    +0.000 A 
ATOM     21  C   UNL     1       5.504   5.373  17.622  0.00  0.00    +0.000 A 
BRANCH  16  22
ATOM     22  O   UNL     1       6.059   3.896  15.813  0.00  0.00    +0.000 OA
BRANCH  22  24
ATOM     23  C   UNL     1       6.034   3.760  13.377  0.00  0.00    +0.000 C 
ATOM     24  C   UNL     1       6.604   4.452  14.603  0.00  0.00    +0.000 C 
ENDBRANCH  22  24
ENDBRANCH  16  22
ENDBRANCH  15  21
ENDBRANCH   1  15
BRANCH   2  25
ATOM     25  O   UNL     1       3.266   4.074  19.568  0.00  0.00    +0.000 OA
BRANCH  25  26
ATOM     26  C   UNL     1       2.555   3.018  18.902  0.00  0.00    +0.000 C 
ATOM     27  C   UNL     1       3.525   1.925  18.453  0.00  0.00    +0.000 C 
ATOM     28  C   UNL     1       1.567   2.416  19.907  0.00  0.00    +0.000 C 
ENDBRANCH  25  26
ENDBRANCH   2  25
TORSDOF 7
ENDMDL
MODEL 9
REMARK VINA RESULT:      -7.1      1.307      2.429
REMARK  Name = 
REMARK  12 active torsions:
REMARK  status: ('A' for Active; 'I' for Inactive)
REMARK    1  A    between atoms: C_1  and  C_2
REMARK    2  A    between atoms: C_2  and  O_3
REMARK    3  A    between atoms: O_3  and  C_4
REMARK    4  A    between atoms: C_9  and  C_10
REMARK    5  A    between atoms: C_10  and  C_11
REMARK    6  A    between atoms: C_12  and  O_13
REMARK    7  A    between atoms: O_13  and  C_14
REMARK    8  A    between atoms: C_14  and  C_15
REMARK    9  A    between atoms: C_14  and  C_16
REMARK   10  A    between atoms: C_22  and  C_23
REMARK   11  A    between atoms: C_23  and  C_24
REMARK   12  A    between atoms: C_27  and  C_28
REMARK                            x       y       z     vdW  Elec       q    Type
REMARK                         _______ _______ _______ _____ _____    ______ ____
ROOT
ATOM      1  C   UNL     1       4.085   5.281  18.851  0.00  0.00    +0.000 A 
ATOM      2  C   UNL     1       3.031   4.933  19.726  0.00  0.00    +0.000 A 
ATOM      3  N   UNL     1       2.137   5.904  19.895  0.00  0.00    +0.000 NA
ATOM      4  N   UNL     1       2.549   6.895  19.044  0.00  0.00    +0.000 N 
ATOM      5  C   UNL     1       1.867   8.169  18.943  0.00  0.00    +0.000 A 
ATOM      6  N   UNL     1       1.248   8.661  20.036  0.00  0.00    +0.000 NA
ATOM      7  C   UNL     1       0.938   9.978  20.010  0.00  0.00    +0.000 A 
ATOM      8  C   UNL     1       1.168  10.813  18.932  0.00  0.00    +0.000 A 
ATOM      9  C   UNL     1       1.693  10.173  17.832  0.00  0.00    +0.000 A 
ATOM     10  N   UNL     1       2.053   8.883  17.807  0.00  0.00    +0.000 NA
ATOM     11  C   UNL     1       3.750   6.555  18.426  0.00  0.00    +0.000 A 
ATOM     12  C   UNL     1       4.563   7.486  17.592  0.00  0.00    +0.000 C 
ENDROOT
BRANCH   8  13
ATOM     13  C   UNL     1       0.932  12.294  18.883  0.00  0.00    +0.000 C 
ATOM     14  C   UNL     1       0.719  13.006  20.211  0.00  0.00    +0.000 C 
ENDBRANCH   8  13
BRANCH   1  15
ATOM     15  C   UNL     1       5.364   4.573  18.570  0.00  0.00    +0.000 C 
BRANCH  15  21
ATOM     16  C   UNL     1       6.870   5.159  16.553  0.00  0.00    +0.000 A 
ATOM     17  C   UNL     1       7.152   4.964  15.192  0.00  0.00    +0.000 A 
ATOM     18  C   UNL     1       6.237   4.341  14.345  0.00  0.00    +0.000 A 
ATOM     19  C   UNL     1       5.037   3.878  14.854  0.00  0.00    +0.000 A 
ATOM     20  C   UNL     1       4.765   4.003  16.219  0.00  0.00    +0.000 A 
ATOM     21  C   UNL     1       5.679   4.625  17.093  0.00  0.00    +0.000 A 
BRANCH  16  22
ATOM     22  O   UNL     1       7.728   5.840  17.387  0.00  0.00    +0.000 OA
BRANCH  22  24
ATOM     23  C   UNL     1       8.302   7.956  18.461  0.00  0.00    +0.000 C 
ATOM     24  C   UNL     1       7.673   7.273  17.259  0.00  0.00    +0.000 C 
ENDBRANCH  22  24
ENDBRANCH  16  22
ENDBRANCH  15  21
ENDBRANCH   1  15
BRANCH   2  25
ATOM     25  O   UNL     1       2.961   3.791  20.460  0.00  0.00    +0.000 OA
BRANCH  25  26
ATOM     26  C   UNL     1       1.688   3.125  20.446  0.00  0.00    +0.000 C 
ATOM     27  C   UNL     1       1.672   2.032  19.377  0.00  0.00    +0.000 C 
ATOM     28  C   UNL     1       1.487   2.473  21.818  0.00  0.00    +0.000 C 
ENDBRANCH  25  26
ENDBRANCH   2  25
TORSDOF 7
ENDMDL
