MODEL 1
REMARK VINA RESULT:      -8.8      0.000      0.000
REMARK  Name = 
REMARK  12 active torsions:
REMARK  status: ('A' for Active; 'I' for Inactive)
REMARK    1  A    between atoms: C_1  and  C_2
REMARK    2  A    between atoms: C_2  and  C_3
REMARK    3  A    between atoms: C_3  and  C_4
REMARK    4  A    between atoms: C_6  and  C_7
REMARK    5  A    between atoms: C_10  and  C_11
REMARK    6  A    between atoms: C_11  and  O_13
REMARK    7  A    between atoms: O_13  and  C_14
REMARK    8  A    between atoms: C_14  and  C_15
REMARK    9  A    between atoms: C_18  and  C_19
REMARK   10  A    between atoms: C_19  and  C_20
REMARK   11  A    between atoms: C_23  and  C_24
REMARK   12  A    between atoms: C_29  and  C_30
REMARK                            x       y       z     vdW  Elec       q    Type
REMARK                         _______ _______ _______ _____ _____    ______ ____
ROOT
ATOM      1  C   UNL     1       0.287  10.112  20.775  0.00  0.00    +0.000 C 
ENDROOT
BRANCH   1  11
ATOM      2  C   UNL     1      -0.840  11.890  19.314  0.00  0.00    +0.000 A 
ATOM      3  N   UNL     1      -0.968  13.163  18.765  0.00  0.00    +0.000 NA
ATOM      4  C   UNL     1      -0.066  14.048  19.028  0.00  0.00    +0.000 A 
ATOM      5  C   UNL     1      -0.086  15.428  18.458  0.00  0.00    +0.000 C 
ATOM      6  N   UNL     1       0.984  13.750  19.868  0.00  0.00    +0.000 N 
ATOM      7  N   UNL     1       1.978  14.599  20.155  0.00  0.00    +0.000 NA
ATOM      8  C   UNL     1       2.757  13.865  20.969  0.00  0.00    +0.000 A 
ATOM      9  N   UNL     1       2.256  12.577  21.195  0.00  0.00    +0.000 NA
ATOM     10  C   UNL     1       1.135  12.540  20.487  0.00  0.00    +0.000 A 
ATOM     11  C   UNL     1       0.136  11.527  20.209  0.00  0.00    +0.000 A 
BRANCH   8  12
ATOM     12  C   UNL     1       4.010  14.442  21.514  0.00  0.00    +0.000 C 
ATOM     13  O   UNL     1       4.815  15.060  20.830  0.00  0.00    +0.000 OA
BRANCH  12  14
ATOM     14  O   UNL     1       4.185  14.220  22.856  0.00  0.00    +0.000 OA
BRANCH  14  15
ATOM     15  C   UNL     1       5.561  14.125  23.267  0.00  0.00    +0.000 C 
ATOM     16  C   UNL     1       6.002  12.672  23.337  0.00  0.00    +0.000 C 
ENDBRANCH  14  15
ENDBRANCH  12  14
ENDBRANCH   8  12
BRANCH   2  17
ATOM     17  C   UNL     1      -1.923  10.962  18.759  0.00  0.00    +0.000 C 
BRANCH  17  19
ATOM     18  C   UNL     1      -2.354   9.966  16.441  0.00  0.00    +0.000 C 
ATOM     19  C   UNL     1      -2.284  11.235  17.279  0.00  0.00    +0.000 C 
ENDBRANCH  17  19
ENDBRANCH   2  17
ENDBRANCH   1  11
BRANCH   1  20
ATOM     20  C   UNL     1       1.000   9.045  19.954  0.00  0.00    +0.000 A 
ATOM     21  C   UNL     1       1.282   9.254  18.598  0.00  0.00    +0.000 A 
ATOM     22  C   UNL     1       2.110   8.377  17.872  0.00  0.00    +0.000 A 
ATOM     23  C   UNL     1       2.672   7.232  18.452  0.00  0.00    +0.000 A 
ATOM     24  C   UNL     1       2.349   7.012  19.808  0.00  0.00    +0.000 A 
ATOM     25  C   UNL     1       1.537   7.899  20.547  0.00  0.00    +0.000 A 
BRANCH  23  26
ATOM     26  C   UNL     1       3.630   6.343  17.715  0.00  0.00    +0.000 A 
ATOM     27  C   UNL     1       4.746   6.952  17.082  0.00  0.00    +0.000 A 
ATOM     28  C   UNL     1       5.686   6.231  16.332  0.00  0.00    +0.000 A 
ATOM     29  C   UNL     1       5.521   4.870  16.147  0.00  0.00    +0.000 A 
ATOM     30  C   UNL     1       4.435   4.235  16.739  0.00  0.00    +0.000 A 
ATOM     31  C   UNL     1       3.502   4.936  17.548  0.00  0.00    +0.000 A 
BRANCH  31  32
ATOM     32  C   UNL     1       2.487   4.118  18.210  0.00  0.00    +0.000 A 
ATOM     33  N   UNL     1       2.687   3.465  19.406  0.00  0.00    +0.000 NA
ATOM     34  N   UNL     1       1.584   2.777  19.660  0.00  0.00    +0.000 NA
ATOM     35  N   UNL     1       0.796   3.001  18.607  0.00  0.00    +0.000 N 
ATOM     36  N   UNL     1       1.281   3.834  17.677  0.00  0.00    +0.000 NA
ATOM     37  H   UNL     1      -0.111   2.555  18.516  0.00  0.00    +0.000 HD
ENDBRANCH  31  32
ENDBRANCH  23  26
ENDBRANCH   1  20
TORSDOF 9
ENDMDL
MODEL 2
REMARK VINA RESULT:      -8.7      2.202      3.486
REMARK  Name = 
REMARK  12 active torsions:
REMARK  status: ('A' for Active; 'I' for Inactive)
REMARK    1  A    between atoms: C_1  and  C_2
REMARK    2  A    between atoms: C_2  and  C_3
REMARK    3  A    between atoms: C_3  and  C_4
REMARK    4  A    between atoms: C_6  and  C_7
REMARK    5  A    between atoms: C_10  and  C_11
REMARK    6  A    between atoms: C_11  and  O_13
REMARK    7  A    between atoms: O_13  and  C_14
REMARK    8  A    between atoms: C_14  and  C_15
REMARK    9  A    between atoms: C_18  and  C_19
REMARK   10  A    between atoms: C_19  and  C_20
REMARK   11  A    between atoms: C_23  and  C_24
REMARK   12  A    between atoms: C_29  and  C_30
REMARK                            x       y       z     vdW  Elec       q    Type
REMARK                         _______ _______ _______ _____ _____    ______ ____
ROOT
ATOM      1  C   UNL     1       1.567  10.123  17.922  0.00  0.00    +0.000 C 
ENDROOT
BRANCH   1  11
ATOM      2  C   UNL     1      -0.858  10.791  18.414  0.00  0.00    +0.000 A 
ATOM      3  N   UNL     1      -1.846  11.558  19.025  0.00  0.00    +0.000 NA
ATOM      4  C   UNL     1      -1.492  12.549  19.773  0.00  0.00    +0.000 A 
ATOM      5  C   UNL     1      -2.472  13.457  20.440  0.00  0.00    +0.000 C 
ATOM      6  N   UNL     1      -0.160  12.819  19.994  0.00  0.00    +0.000 N 
ATOM      7  N   UNL     1       0.284  13.851  20.722  0.00  0.00    +0.000 NA
ATOM      8  C   UNL     1       1.619  13.717  20.626  0.00  0.00    +0.000 A 
ATOM      9  N   UNL     1       2.006  12.614  19.854  0.00  0.00    +0.000 NA
ATOM     10  C   UNL     1       0.859  12.069  19.474  0.00  0.00    +0.000 A 
ATOM     11  C   UNL     1       0.489  10.949  18.630  0.00  0.00    +0.000 A 
BRANCH   8  12
ATOM     12  C   UNL     1       2.512  14.696  21.291  0.00  0.00    +0.000 C 
ATOM     13  O   UNL     1       2.511  14.889  22.500  0.00  0.00    +0.000 OA
BRANCH  12  14
ATOM     14  O   UNL     1       3.340  15.368  20.428  0.00  0.00    +0.000 OA
BRANCH  14  15
ATOM     15  C   UNL     1       2.667  16.306  19.569  0.00  0.00    +0.000 C 
ATOM     16  C   UNL     1       3.140  16.154  18.133  0.00  0.00    +0.000 C 
ENDBRANCH  14  15
ENDBRANCH  12  14
ENDBRANCH   8  12
BRANCH   2  17
ATOM     17  C   UNL     1      -1.489   9.773  17.462  0.00  0.00    +0.000 C 
BRANCH  17  19
ATOM     18  C   UNL     1      -2.816  10.256  15.327  0.00  0.00    +0.000 C 
ATOM     19  C   UNL     1      -2.832  10.238  16.849  0.00  0.00    +0.000 C 
ENDBRANCH  17  19
ENDBRANCH   2  17
ENDBRANCH   1  11
BRANCH   1  20
ATOM     20  C   UNL     1       1.965   8.765  18.486  0.00  0.00    +0.000 A 
ATOM     21  C   UNL     1       1.748   8.458  19.836  0.00  0.00    +0.000 A 
ATOM     22  C   UNL     1       1.919   7.152  20.333  0.00  0.00    +0.000 A 
ATOM     23  C   UNL     1       2.348   6.096  19.518  0.00  0.00    +0.000 A 
ATOM     24  C   UNL     1       2.601   6.426  18.170  0.00  0.00    +0.000 A 
ATOM     25  C   UNL     1       2.409   7.729  17.661  0.00  0.00    +0.000 A 
BRANCH  23  26
ATOM     26  C   UNL     1       2.444   4.683  20.017  0.00  0.00    +0.000 A 
ATOM     27  C   UNL     1       1.376   4.187  20.810  0.00  0.00    +0.000 A 
ATOM     28  C   UNL     1       1.371   2.898  21.363  0.00  0.00    +0.000 A 
ATOM     29  C   UNL     1       2.463   2.067  21.182  0.00  0.00    +0.000 A 
ATOM     30  C   UNL     1       3.536   2.518  20.421  0.00  0.00    +0.000 A 
ATOM     31  C   UNL     1       3.537   3.798  19.805  0.00  0.00    +0.000 A 
BRANCH  31  32
ATOM     32  C   UNL     1       4.673   4.086  18.931  0.00  0.00    +0.000 A 
ATOM     33  N   UNL     1       4.656   3.909  17.565  0.00  0.00    +0.000 NA
ATOM     34  N   UNL     1       5.867   4.205  17.121  0.00  0.00    +0.000 NA
ATOM     35  N   UNL     1       6.567   4.500  18.218  0.00  0.00    +0.000 N 
ATOM     36  N   UNL     1       5.890   4.463  19.374  0.00  0.00    +0.000 NA
ATOM     37  H   UNL     1       7.555   4.725  18.176  0.00  0.00    +0.000 HD
ENDBRANCH  31  32
ENDBRANCH  23  26
ENDBRANCH   1  20
TORSDOF 9
ENDMDL
MODEL 3
REMARK VINA RESULT:      -8.7      2.711      3.998
REMARK  Name = 
REMARK  12 active torsions:
REMARK  status: ('A' for Active; 'I' for Inactive)
REMARK    1  A    between atoms: C_1  and  C_2
REMARK    2  A    between atoms: C_2  and  C_3
REMARK    3  A    between atoms: C_3  and  C_4
REMARK    4  A    between atoms: C_6  and  C_7
REMARK    5  A    between atoms: C_10  and  C_11
REMARK    6  A    between atoms: C_11  and  O_13
REMARK    7  A    between atoms: O_13  and  C_14
REMARK    8  A    between atoms: C_14  and  C_15
REMARK    9  A    between atoms: C_18  and  C_19
REMARK   10  A    between atoms: C_19  and  C_20
REMARK   11  A    between atoms: C_23  and  C_24
REMARK   12  A    between atoms: C_29  and  C_30
REMARK                            x       y       z     vdW  Elec       q    Type
REMARK                         _______ _______ _______ _____ _____    ______ ____
ROOT
ATOM      1  C   UNL     1       1.057  10.629  18.382  0.00  0.00    +0.000 C 
ENDROOT
BRANCH   1  11
ATOM      2  C   UNL     1      -1.498  10.759  18.236  0.00  0.00    +0.000 A 
ATOM      3  N   UNL     1      -2.752  11.222  18.622  0.00  0.00    +0.000 NA
ATOM      4  C   UNL     1      -2.827  12.121  19.546  0.00  0.00    +0.000 A 
ATOM      5  C   UNL     1      -4.119  12.714  20.004  0.00  0.00    +0.000 C 
ATOM      6  N   UNL     1      -1.688  12.585  20.166  0.00  0.00    +0.000 N 
ATOM      7  N   UNL     1      -1.681  13.544  21.100  0.00  0.00    +0.000 NA
ATOM      8  C   UNL     1      -0.371  13.669  21.374  0.00  0.00    +0.000 A 
ATOM      9  N   UNL     1       0.432  12.799  20.626  0.00  0.00    +0.000 NA
ATOM     10  C   UNL     1      -0.432  12.128  19.877  0.00  0.00    +0.000 A 
ATOM     11  C   UNL     1      -0.319  11.118  18.842  0.00  0.00    +0.000 A 
BRANCH   8  12
ATOM     12  C   UNL     1       0.086  14.667  22.371  0.00  0.00    +0.000 C 
ATOM     13  O   UNL     1       1.266  14.853  22.640  0.00  0.00    +0.000 OA
BRANCH  12  14
ATOM     14  O   UNL     1      -0.934  15.365  22.965  0.00  0.00    +0.000 OA
BRANCH  14  15
ATOM     15  C   UNL     1      -1.117  15.074  24.362  0.00  0.00    +0.000 C 
ATOM     16  C   UNL     1      -2.576  14.775  24.663  0.00  0.00    +0.000 C 
ENDBRANCH  14  15
ENDBRANCH  12  14
ENDBRANCH   8  12
BRANCH   2  17
ATOM     17  C   UNL     1      -1.626   9.818  17.036  0.00  0.00    +0.000 C 
BRANCH  17  19
ATOM     18  C   UNL     1      -2.927  10.210  14.867  0.00  0.00    +0.000 C 
ATOM     19  C   UNL     1      -3.012   9.867  16.347  0.00  0.00    +0.000 C 
ENDBRANCH  17  19
ENDBRANCH   2  17
ENDBRANCH   1  11
BRANCH   1  20
ATOM     20  C   UNL     1       1.549   9.254  18.813  0.00  0.00    +0.000 A 
ATOM     21  C   UNL     1       1.372   8.809  20.130  0.00  0.00    +0.000 A 
ATOM     22  C   UNL     1       1.634   7.477  20.502  0.00  0.00    +0.000 A 
ATOM     23  C   UNL     1       2.117   6.530  19.588  0.00  0.00    +0.000 A 
ATOM     24  C   UNL     1       2.327   6.999  18.274  0.00  0.00    +0.000 A 
ATOM     25  C   UNL     1       2.046   8.329  17.891  0.00  0.00    +0.000 A 
BRANCH  23  26
ATOM     26  C   UNL     1       2.310   5.087  19.951  0.00  0.00    +0.000 A 
ATOM     27  C   UNL     1       1.240   4.419  20.603  0.00  0.00    +0.000 A 
ATOM     28  C   UNL     1       1.317   3.084  21.025  0.00  0.00    +0.000 A 
ATOM     29  C   UNL     1       2.492   2.374  20.851  0.00  0.00    +0.000 A 
ATOM     30  C   UNL     1       3.569   2.994  20.227  0.00  0.00    +0.000 A 
ATOM     31  C   UNL     1       3.493   4.326  19.741  0.00  0.00    +0.000 A 
BRANCH  31  32
ATOM     32  C   UNL     1       4.656   4.802  18.993  0.00  0.00    +0.000 A 
ATOM     33  N   UNL     1       4.841   4.591  17.645  0.00  0.00    +0.000 NA
ATOM     34  N   UNL     1       6.023   5.099  17.332  0.00  0.00    +0.000 NA
ATOM     35  N   UNL     1       6.515   5.548  18.489  0.00  0.00    +0.000 N 
ATOM     36  N   UNL     1       5.718   5.413  19.558  0.00  0.00    +0.000 NA
ATOM     37  H   UNL     1       7.442   5.955  18.551  0.00  0.00    +0.000 HD
ENDBRANCH  31  32
ENDBRANCH  23  26
ENDBRANCH   1  20
TORSDOF 9
ENDMDL
MODEL 4
REMARK VINA RESULT:      -8.6      0.615      1.084
REMARK  Name = 
REMARK  12 active torsions:
REMARK  status: ('A' for Active; 'I' for Inactive)
REMARK    1  A    between atoms: C_1  and  C_2
REMARK    2  A    between atoms: C_2  and  C_3
REMARK    3  A    between atoms: C_3  and  C_4
REMARK    4  A    between atoms: C_6  and  C_7
REMARK    5  A    between atoms: C_10  and  C_11
REMARK    6  A    between atoms: C_11  and  O_13
REMARK    7  A    between atoms: O_13  and  C_14
REMARK    8  A    between atoms: C_14  and  C_15
REMARK    9  A    between atoms: C_18  and  C_19
REMARK   10  A    between atoms: C_19  and  C_20
REMARK   11  A    between atoms: C_23  and  C_24
REMARK   12  A    between atoms: C_29  and  C_30
REMARK                            x       y       z     vdW  Elec       q    Type
REMARK                         _______ _______ _______ _____ _____    ______ ____
ROOT
ATOM      1  C   UNL     1       0.067  10.120  20.616  0.00  0.00    +0.000 C 
ENDROOT
BRANCH   1  11
ATOM      2  C   UNL     1      -1.017  11.960  19.201  0.00  0.00    +0.000 A 
ATOM      3  N   UNL     1      -1.112  13.248  18.681  0.00  0.00    +0.000 NA
ATOM      4  C   UNL     1      -0.185  14.102  18.959  0.00  0.00    +0.000 A 
ATOM      5  C   UNL     1      -0.170  15.495  18.420  0.00  0.00    +0.000 C 
ATOM      6  N   UNL     1       0.861  13.757  19.787  0.00  0.00    +0.000 N 
ATOM      7  N   UNL     1       1.879  14.572  20.087  0.00  0.00    +0.000 NA
ATOM      8  C   UNL     1       2.641  13.799  20.881  0.00  0.00    +0.000 A 
ATOM      9  N   UNL     1       2.105  12.520  21.081  0.00  0.00    +0.000 NA
ATOM     10  C   UNL     1       0.981  12.529  20.378  0.00  0.00    +0.000 A 
ATOM     11  C   UNL     1      -0.047  11.550  20.082  0.00  0.00    +0.000 A 
BRANCH   8  12
ATOM     12  C   UNL     1       3.912  14.329  21.432  0.00  0.00    +0.000 C 
ATOM     13  O   UNL     1       4.755  14.893  20.747  0.00  0.00    +0.000 OA
BRANCH  12  14
ATOM     14  O   UNL     1       4.057  14.129  22.781  0.00  0.00    +0.000 OA
BRANCH  14  15
ATOM     15  C   UNL     1       5.414  13.903  23.205  0.00  0.00    +0.000 C 
ATOM     16  C   UNL     1       5.601  14.319  24.655  0.00  0.00    +0.000 C 
ENDBRANCH  14  15
ENDBRANCH  12  14
ENDBRANCH   8  12
BRANCH   2  17
ATOM     17  C   UNL     1      -2.128  11.075  18.631  0.00  0.00    +0.000 C 
BRANCH  17  19
ATOM     18  C   UNL     1      -2.700  10.099  16.336  0.00  0.00    +0.000 C 
ATOM     19  C   UNL     1      -1.672  10.178  17.455  0.00  0.00    +0.000 C 
ENDBRANCH  17  19
ENDBRANCH   2  17
ENDBRANCH   1  11
BRANCH   1  20
ATOM     20  C   UNL     1       1.068   9.160  19.986  0.00  0.00    +0.000 A 
ATOM     21  C   UNL     1       1.490   8.012  20.671  0.00  0.00    +0.000 A 
ATOM     22  C   UNL     1       2.252   7.012  20.038  0.00  0.00    +0.000 A 
ATOM     23  C   UNL     1       2.659   7.121  18.701  0.00  0.00    +0.000 A 
ATOM     24  C   UNL     1       2.261   8.298  18.033  0.00  0.00    +0.000 A 
ATOM     25  C   UNL     1       1.478   9.294  18.657  0.00  0.00    +0.000 A 
BRANCH  23  26
ATOM     26  C   UNL     1       3.391   6.020  17.991  0.00  0.00    +0.000 A 
ATOM     27  C   UNL     1       4.371   6.386  17.033  0.00  0.00    +0.000 A 
ATOM     28  C   UNL     1       5.091   5.447  16.279  0.00  0.00    +0.000 A 
ATOM     29  C   UNL     1       4.824   4.097  16.424  0.00  0.00    +0.000 A 
ATOM     30  C   UNL     1       3.861   3.695  17.344  0.00  0.00    +0.000 A 
ATOM     31  C   UNL     1       3.161   4.626  18.157  0.00  0.00    +0.000 A 
BRANCH  31  32
ATOM     32  C   UNL     1       2.275   4.052  19.169  0.00  0.00    +0.000 A 
ATOM     33  N   UNL     1       2.690   3.663  20.422  0.00  0.00    +0.000 NA
ATOM     34  N   UNL     1       1.640   3.133  21.031  0.00  0.00    +0.000 NA
ATOM     35  N   UNL     1       0.664   3.180  20.123  0.00  0.00    +0.000 N 
ATOM     36  N   UNL     1       0.978   3.750  18.951  0.00  0.00    +0.000 NA
ATOM     37  H   UNL     1      -0.257   2.795  20.309  0.00  0.00    +0.000 HD
ENDBRANCH  31  32
ENDBRANCH  23  26
ENDBRANCH   1  20
TORSDOF 9
ENDMDL
MODEL 5
REMARK VINA RESULT:      -8.6      0.787      1.377
REMARK  Name = 
REMARK  12 active torsions:
REMARK  status: ('A' for Active; 'I' for Inactive)
REMARK    1  A    between atoms: C_1  and  C_2
REMARK    2  A    between atoms: C_2  and  C_3
REMARK    3  A    between atoms: C_3  and  C_4
REMARK    4  A    between atoms: C_6  and  C_7
REMARK    5  A    between atoms: C_10  and  C_11
REMARK    6  A    between atoms: C_11  and  O_13
REMARK    7  A    between atoms: O_13  and  C_14
REMARK    8  A    between atoms: C_14  and  C_15
REMARK    9  A    between atoms: C_18  and  C_19
REMARK   10  A    between atoms: C_19  and  C_20
REMARK   11  A    between atoms: C_23  and  C_24
REMARK   12  A    between atoms: C_29  and  C_30
REMARK                            x       y       z     vdW  Elec       q    Type
REMARK                         _______ _______ _______ _____ _____    ______ ____
ROOT
ATOM      1  C   UNL     1       0.341   9.848  20.682  0.00  0.00    +0.000 C 
ENDROOT
BRANCH   1  11
ATOM      2  C   UNL     1      -0.858  11.617  19.267  0.00  0.00    +0.000 A 
ATOM      3  N   UNL     1      -1.030  12.894  18.742  0.00  0.00    +0.000 NA
ATOM      4  C   UNL     1      -0.149  13.801  19.006  0.00  0.00    +0.000 A 
ATOM      5  C   UNL     1      -0.217  15.188  18.460  0.00  0.00    +0.000 C 
ATOM      6  N   UNL     1       0.922  13.518  19.825  0.00  0.00    +0.000 N 
ATOM      7  N   UNL     1       1.897  14.390  20.111  0.00  0.00    +0.000 NA
ATOM      8  C   UNL     1       2.709  13.666  20.901  0.00  0.00    +0.000 A 
ATOM      9  N   UNL     1       2.247  12.360  21.112  0.00  0.00    +0.000 NA
ATOM     10  C   UNL     1       1.117  12.303  20.422  0.00  0.00    +0.000 A 
ATOM     11  C   UNL     1       0.142  11.267  20.141  0.00  0.00    +0.000 A 
BRANCH   8  12
ATOM     12  C   UNL     1       3.953  14.268  21.436  0.00  0.00    +0.000 C 
ATOM     13  O   UNL     1       4.591  13.778  22.359  0.00  0.00    +0.000 OA
BRANCH  12  14
ATOM     14  O   UNL     1       4.327  15.425  20.802  0.00  0.00    +0.000 OA
BRANCH  14  15
ATOM     15  C   UNL     1       5.579  15.338  20.098  0.00  0.00    +0.000 C 
ATOM     16  C   UNL     1       5.349  15.054  18.623  0.00  0.00    +0.000 C 
ENDBRANCH  14  15
ENDBRANCH  12  14
ENDBRANCH   8  12
BRANCH   2  17
ATOM     17  C   UNL     1      -1.923  10.668  18.714  0.00  0.00    +0.000 C 
BRANCH  17  19
ATOM     18  C   UNL     1      -2.634  10.717  16.256  0.00  0.00    +0.000 C 
ATOM     19  C   UNL     1      -1.639  10.178  17.274  0.00  0.00    +0.000 C 
ENDBRANCH  17  19
ENDBRANCH   2  17
ENDBRANCH   1  11
BRANCH   1  20
ATOM     20  C   UNL     1       1.113   8.829  19.853  0.00  0.00    +0.000 A 
ATOM     21  C   UNL     1       1.495   9.117  18.536  0.00  0.00    +0.000 A 
ATOM     22  C   UNL     1       2.375   8.282  17.822  0.00  0.00    +0.000 A 
ATOM     23  C   UNL     1       2.891   7.101  18.372  0.00  0.00    +0.000 A 
ATOM     24  C   UNL     1       2.468   6.801  19.685  0.00  0.00    +0.000 A 
ATOM     25  C   UNL     1       1.603   7.646  20.413  0.00  0.00    +0.000 A 
BRANCH  23  26
ATOM     26  C   UNL     1       3.900   6.253  17.655  0.00  0.00    +0.000 A 
ATOM     27  C   UNL     1       5.055   6.896  17.136  0.00  0.00    +0.000 A 
ATOM     28  C   UNL     1       6.048   6.216  16.415  0.00  0.00    +0.000 A 
ATOM     29  C   UNL     1       5.900   4.867  16.144  0.00  0.00    +0.000 A 
ATOM     30  C   UNL     1       4.777   4.202  16.623  0.00  0.00    +0.000 A 
ATOM     31  C   UNL     1       3.788   4.858  17.403  0.00  0.00    +0.000 A 
BRANCH  31  32
ATOM     32  C   UNL     1       2.732   4.005  17.947  0.00  0.00    +0.000 A 
ATOM     33  N   UNL     1       1.451   3.954  17.444  0.00  0.00    +0.000 NA
ATOM     34  N   UNL     1       0.762   3.133  18.221  0.00  0.00    +0.000 NA
ATOM     35  N   UNL     1       1.625   2.764  19.171  0.00  0.00    +0.000 N 
ATOM     36  N   UNL     1       2.868   3.252  19.057  0.00  0.00    +0.000 NA
ATOM     37  H   UNL     1       1.347   2.160  19.938  0.00  0.00    +0.000 HD
ENDBRANCH  31  32
ENDBRANCH  23  26
ENDBRANCH   1  20
TORSDOF 9
ENDMDL
MODEL 6
REMARK VINA RESULT:      -8.6      0.871      1.516
REMARK  Name = 
REMARK  12 active torsions:
REMARK  status: ('A' for Active; 'I' for Inactive)
REMARK    1  A    between atoms: C_1  and  C_2
REMARK    2  A    between atoms: C_2  and  C_3
REMARK    3  A    between atoms: C_3  and  C_4
REMARK    4  A    between atoms: C_6  and  C_7
REMARK    5  A    between atoms: C_10  and  C_11
REMARK    6  A    between atoms: C_11  and  O_13
REMARK    7  A    between atoms: O_13  and  C_14
REMARK    8  A    between atoms: C_14  and  C_15
REMARK    9  A    between atoms: C_18  and  C_19
REMARK   10  A    between atoms: C_19  and  C_20
REMARK   11  A    between atoms: C_23  and  C_24
REMARK   12  A    between atoms: C_29  and  C_30
REMARK                            x       y       z     vdW  Elec       q    Type
REMARK                         _______ _______ _______ _____ _____    ______ ____
ROOT
ATOM      1  C   UNL     1       0.036  10.041  20.575  0.00  0.00    +0.000 C 
ENDROOT
BRANCH   1  11
ATOM      2  C   UNL     1      -1.041  11.890  19.166  0.00  0.00    +0.000 A 
ATOM      3  N   UNL     1      -1.142  13.186  18.667  0.00  0.00    +0.000 NA
ATOM      4  C   UNL     1      -0.235  14.048  18.983  0.00  0.00    +0.000 A 
ATOM      5  C   UNL     1      -0.228  15.450  18.469  0.00  0.00    +0.000 C 
ATOM      6  N   UNL     1       0.795  13.703  19.829  0.00  0.00    +0.000 N 
ATOM      7  N   UNL     1       1.793  14.528  20.169  0.00  0.00    +0.000 NA
ATOM      8  C   UNL     1       2.547  13.752  20.968  0.00  0.00    +0.000 A 
ATOM      9  N   UNL     1       2.026  12.462  21.132  0.00  0.00    +0.000 NA
ATOM     10  C   UNL     1       0.919  12.467  20.402  0.00  0.00    +0.000 A 
ATOM     11  C   UNL     1      -0.087  11.479  20.064  0.00  0.00    +0.000 A 
BRANCH   8  12
ATOM     12  C   UNL     1       3.796  14.290  21.560  0.00  0.00    +0.000 C 
ATOM     13  O   UNL     1       4.014  14.304  22.764  0.00  0.00    +0.000 OA
BRANCH  12  14
ATOM     14  O   UNL     1       4.686  14.771  20.634  0.00  0.00    +0.000 OA
BRANCH  14  15
ATOM     15  C   UNL     1       5.005  16.166  20.786  0.00  0.00    +0.000 C 
ATOM     16  C   UNL     1       6.285  16.509  20.042  0.00  0.00    +0.000 C 
ENDBRANCH  14  15
ENDBRANCH  12  14
ENDBRANCH   8  12
BRANCH   2  17
ATOM     17  C   UNL     1      -2.124  10.999  18.554  0.00  0.00    +0.000 C 
BRANCH  17  19
ATOM     18  C   UNL     1      -2.654  10.133  16.205  0.00  0.00    +0.000 C 
ATOM     19  C   UNL     1      -1.640  10.170  17.340  0.00  0.00    +0.000 C 
ENDBRANCH  17  19
ENDBRANCH   2  17
ENDBRANCH   1  11
BRANCH   1  20
ATOM     20  C   UNL     1       1.051   9.100  19.939  0.00  0.00    +0.000 A 
ATOM     21  C   UNL     1       1.517   7.974  20.630  0.00  0.00    +0.000 A 
ATOM     22  C   UNL     1       2.295   6.987  19.996  0.00  0.00    +0.000 A 
ATOM     23  C   UNL     1       2.675   7.090  18.651  0.00  0.00    +0.000 A 
ATOM     24  C   UNL     1       2.233   8.247  17.976  0.00  0.00    +0.000 A 
ATOM     25  C   UNL     1       1.434   9.229  18.601  0.00  0.00    +0.000 A 
BRANCH  23  26
ATOM     26  C   UNL     1       3.424   6.000  17.941  0.00  0.00    +0.000 A 
ATOM     27  C   UNL     1       4.418   6.382  17.002  0.00  0.00    +0.000 A 
ATOM     28  C   UNL     1       5.155   5.455  16.250  0.00  0.00    +0.000 A 
ATOM     29  C   UNL     1       4.893   4.102  16.377  0.00  0.00    +0.000 A 
ATOM     30  C   UNL     1       3.918   3.685  17.277  0.00  0.00    +0.000 A 
ATOM     31  C   UNL     1       3.200   4.603  18.089  0.00  0.00    +0.000 A 
BRANCH  31  32
ATOM     32  C   UNL     1       2.300   4.014  19.080  0.00  0.00    +0.000 A 
ATOM     33  N   UNL     1       2.709   3.558  20.313  0.00  0.00    +0.000 NA
ATOM     34  N   UNL     1       1.647   3.035  20.905  0.00  0.00    +0.000 NA
ATOM     35  N   UNL     1       0.667   3.153  20.006  0.00  0.00    +0.000 N 
ATOM     36  N   UNL     1       0.994   3.763  18.858  0.00  0.00    +0.000 NA
ATOM     37  H   UNL     1      -0.264   2.789  20.181  0.00  0.00    +0.000 HD
ENDBRANCH  31  32
ENDBRANCH  23  26
ENDBRANCH   1  20
TORSDOF 9
ENDMDL
MODEL 7
REMARK VINA RESULT:      -8.6      2.045      3.115
REMARK  Name = 
REMARK  12 active torsions:
REMARK  status: ('A' for Active; 'I' for Inactive)
REMARK    1  A    between atoms: C_1  and  C_2
REMARK    2  A    between atoms: C_2  and  C_3
REMARK    3  A    between atoms: C_3  and  C_4
REMARK    4  A    between atoms: C_6  and  C_7
REMARK    5  A    between atoms: C_10  and  C_11
REMARK    6  A    between atoms: C_11  and  O_13
REMARK    7  A    between atoms: O_13  and  C_14
REMARK    8  A    between atoms: C_14  and  C_15
REMARK    9  A    between atoms: C_18  and  C_19
REMARK   10  A    between atoms: C_19  and  C_20
REMARK   11  A    between atoms: C_23  and  C_24
REMARK   12  A    between atoms: C_29  and  C_30
REMARK                            x       y       z     vdW  Elec       q    Type
REMARK                         _______ _______ _______ _____ _____    ______ ____
ROOT
ATOM      1  C   UNL     1       1.685  10.207  17.976  0.00  0.00    +0.000 C 
ENDROOT
BRANCH   1  11
ATOM      2  C   UNL     1      -0.744  10.854  18.478  0.00  0.00    +0.000 A 
ATOM      3  N   UNL     1      -1.735  11.629  19.072  0.00  0.00    +0.000 NA
ATOM      4  C   UNL     1      -1.388  12.657  19.773  0.00  0.00    +0.000 A 
ATOM      5  C   UNL     1      -2.373  13.576  20.416  0.00  0.00    +0.000 C 
ATOM      6  N   UNL     1      -0.058  12.958  19.961  0.00  0.00    +0.000 N 
ATOM      7  N   UNL     1       0.380  14.027  20.638  0.00  0.00    +0.000 NA
ATOM      8  C   UNL     1       1.715  13.912  20.527  0.00  0.00    +0.000 A 
ATOM      9  N   UNL     1       2.109  12.784  19.796  0.00  0.00    +0.000 NA
ATOM     10  C   UNL     1       0.966  12.204  19.457  0.00  0.00    +0.000 A 
ATOM     11  C   UNL     1       0.604  11.044  18.666  0.00  0.00    +0.000 A 
BRANCH   8  12
ATOM     12  C   UNL     1       2.600  14.933  21.137  0.00  0.00    +0.000 C 
ATOM     13  O   UNL     1       2.987  15.927  20.537  0.00  0.00    +0.000 OA
BRANCH  12  14
ATOM     14  O   UNL     1       2.946  14.662  22.436  0.00  0.00    +0.000 OA
BRANCH  14  15
ATOM     15  C   UNL     1       4.297  15.022  22.778  0.00  0.00    +0.000 C 
ATOM     16  C   UNL     1       5.261  13.906  22.412  0.00  0.00    +0.000 C 
ENDBRANCH  14  15
ENDBRANCH  12  14
ENDBRANCH   8  12
BRANCH   2  17
ATOM     17  C   UNL     1      -1.371   9.787  17.579  0.00  0.00    +0.000 C 
BRANCH  17  19
ATOM     18  C   UNL     1      -2.793  10.293  15.512  0.00  0.00    +0.000 C 
ATOM     19  C   UNL     1      -2.765  10.173  17.029  0.00  0.00    +0.000 C 
ENDBRANCH  17  19
ENDBRANCH   2  17
ENDBRANCH   1  11
BRANCH   1  20
ATOM     20  C   UNL     1       2.039   8.833  18.529  0.00  0.00    +0.000 A 
ATOM     21  C   UNL     1       1.777   8.509  19.867  0.00  0.00    +0.000 A 
ATOM     22  C   UNL     1       1.908   7.193  20.349  0.00  0.00    +0.000 A 
ATOM     23  C   UNL     1       2.339   6.140  19.529  0.00  0.00    +0.000 A 
ATOM     24  C   UNL     1       2.636   6.486  18.194  0.00  0.00    +0.000 A 
ATOM     25  C   UNL     1       2.486   7.800  17.701  0.00  0.00    +0.000 A 
BRANCH  23  26
ATOM     26  C   UNL     1       2.392   4.719  20.008  0.00  0.00    +0.000 A 
ATOM     27  C   UNL     1       1.248   4.199  20.668  0.00  0.00    +0.000 A 
ATOM     28  C   UNL     1       1.193   2.899  21.193  0.00  0.00    +0.000 A 
ATOM     29  C   UNL     1       2.305   2.079  21.116  0.00  0.00    +0.000 A 
ATOM     30  C   UNL     1       3.452   2.553  20.488  0.00  0.00    +0.000 A 
ATOM     31  C   UNL     1       3.509   3.845  19.901  0.00  0.00    +0.000 A 
BRANCH  31  32
ATOM     32  C   UNL     1       4.732   4.159  19.162  0.00  0.00    +0.000 A 
ATOM     33  N   UNL     1       5.781   4.880  19.686  0.00  0.00    +0.000 NA
ATOM     34  N   UNL     1       6.674   5.022  18.718  0.00  0.00    +0.000 NA
ATOM     35  N   UNL     1       6.119   4.433  17.657  0.00  0.00    +0.000 N 
ATOM     36  N   UNL     1       4.924   3.863  17.860  0.00  0.00    +0.000 NA
ATOM     37  H   UNL     1       6.574   4.431  16.750  0.00  0.00    +0.000 HD
ENDBRANCH  31  32
ENDBRANCH  23  26
ENDBRANCH   1  20
TORSDOF 9
ENDMDL
MODEL 8
REMARK VINA RESULT:      -8.5      0.728      1.150
REMARK  Name = 
REMARK  12 active torsions:
REMARK  status: ('A' for Active; 'I' for Inactive)
REMARK    1  A    between atoms: C_1  and  C_2
REMARK    2  A    between atoms: C_2  and  C_3
REMARK    3  A    between atoms: C_3  and  C_4
REMARK    4  A    between atoms: C_6  and  C_7
REMARK    5  A    between atoms: C_10  and  C_11
REMARK    6  A    between atoms: C_11  and  O_13
REMARK    7  A    between atoms: O_13  and  C_14
REMARK    8  A    between atoms: C_14  and  C_15
REMARK    9  A    between atoms: C_18  and  C_19
REMARK   10  A    between atoms: C_19  and  C_20
REMARK   11  A    between atoms: C_23  and  C_24
REMARK   12  A    between atoms: C_29  and  C_30
REMARK                            x       y       z     vdW  Elec       q    Type
REMARK                         _______ _______ _______ _____ _____    ______ ____
ROOT
ATOM      1  C   UNL     1       0.389   9.976  20.680  0.00  0.00    +0.000 C 
ENDROOT
BRANCH   1  11
ATOM      2  C   UNL     1      -0.763  11.718  19.195  0.00  0.00    +0.000 A 
ATOM      3  N   UNL     1      -0.925  12.989  18.652  0.00  0.00    +0.000 NA
ATOM      4  C   UNL     1      -0.072  13.910  18.953  0.00  0.00    +0.000 A 
ATOM      5  C   UNL     1      -0.132  15.293  18.394  0.00  0.00    +0.000 C 
ATOM      6  N   UNL     1       0.961  13.648  19.826  0.00  0.00    +0.000 N 
ATOM      7  N   UNL     1       1.907  14.536  20.154  0.00  0.00    +0.000 NA
ATOM      8  C   UNL     1       2.689  13.829  20.989  0.00  0.00    +0.000 A 
ATOM      9  N   UNL     1       2.235  12.519  21.187  0.00  0.00    +0.000 NA
ATOM     10  C   UNL     1       1.142  12.440  20.441  0.00  0.00    +0.000 A 
ATOM     11  C   UNL     1       0.197  11.388  20.120  0.00  0.00    +0.000 A 
BRANCH   8  12
ATOM     12  C   UNL     1       3.896  14.453  21.582  0.00  0.00    +0.000 C 
ATOM     13  O   UNL     1       4.948  14.588  20.970  0.00  0.00    +0.000 OA
BRANCH  12  14
ATOM     14  O   UNL     1       3.728  14.867  22.878  0.00  0.00    +0.000 OA
BRANCH  14  15
ATOM     15  C   UNL     1       3.398  16.261  23.018  0.00  0.00    +0.000 C 
ATOM     16  C   UNL     1       4.020  16.836  24.280  0.00  0.00    +0.000 C 
ENDBRANCH  14  15
ENDBRANCH  12  14
ENDBRANCH   8  12
BRANCH   2  17
ATOM     17  C   UNL     1      -1.785  10.750  18.596  0.00  0.00    +0.000 C 
BRANCH  17  19
ATOM     18  C   UNL     1      -2.615   9.915  16.324  0.00  0.00    +0.000 C 
ATOM     19  C   UNL     1      -2.241  11.126  17.165  0.00  0.00    +0.000 C 
ENDBRANCH  17  19
ENDBRANCH   2  17
ENDBRANCH   1  11
BRANCH   1  20
ATOM     20  C   UNL     1       1.122   8.930  19.849  0.00  0.00    +0.000 A 
ATOM     21  C   UNL     1       1.454   9.181  18.511  0.00  0.00    +0.000 A 
ATOM     22  C   UNL     1       2.300   8.322  17.786  0.00  0.00    +0.000 A 
ATOM     23  C   UNL     1       2.831   7.152  18.347  0.00  0.00    +0.000 A 
ATOM     24  C   UNL     1       2.460   6.891  19.683  0.00  0.00    +0.000 A 
ATOM     25  C   UNL     1       1.629   7.761  20.422  0.00  0.00    +0.000 A 
BRANCH  23  26
ATOM     26  C   UNL     1       3.808   6.280  17.614  0.00  0.00    +0.000 A 
ATOM     27  C   UNL     1       4.949   6.900  17.041  0.00  0.00    +0.000 A 
ATOM     28  C   UNL     1       5.910   6.196  16.300  0.00  0.00    +0.000 A 
ATOM     29  C   UNL     1       5.741   4.843  16.064  0.00  0.00    +0.000 A 
ATOM     30  C   UNL     1       4.630   4.198  16.597  0.00  0.00    +0.000 A 
ATOM     31  C   UNL     1       3.675   4.881  17.397  0.00  0.00    +0.000 A 
BRANCH  31  32
ATOM     32  C   UNL     1       2.632   4.050  17.997  0.00  0.00    +0.000 A 
ATOM     33  N   UNL     1       1.368   3.906  17.470  0.00  0.00    +0.000 NA
ATOM     34  N   UNL     1       0.684   3.143  18.308  0.00  0.00    +0.000 NA
ATOM     35  N   UNL     1       1.531   2.898  19.311  0.00  0.00    +0.000 N 
ATOM     36  N   UNL     1       2.760   3.415  19.179  0.00  0.00    +0.000 NA
ATOM     37  H   UNL     1       1.251   2.364  20.126  0.00  0.00    +0.000 HD
ENDBRANCH  31  32
ENDBRANCH  23  26
ENDBRANCH   1  20
TORSDOF 9
ENDMDL
MODEL 9
REMARK VINA RESULT:      -8.3      3.315      8.479
REMARK  Name = 
REMARK  12 active torsions:
REMARK  status: ('A' for Active; 'I' for Inactive)
REMARK    1  A    between atoms: C_1  and  C_2
REMARK    2  A    between atoms: C_2  and  C_3
REMARK    3  A    between atoms: C_3  and  C_4
REMARK    4  A    between atoms: C_6  and  C_7
REMARK    5  A    between atoms: C_10  and  C_11
REMARK    6  A    between atoms: C_11  and  O_13
REMARK    7  A    between atoms: O_13  and  C_14
REMARK    8  A    between atoms: C_14  and  C_15
REMARK    9  A    between atoms: C_18  and  C_19
REMARK   10  A    between atoms: C_19  and  C_20
REMARK   11  A    between atoms: C_23  and  C_24
REMARK   12  A    between atoms: C_29  and  C_30
REMARK                            x       y       z     vdW  Elec       q    Type
REMARK                         _______ _______ _______ _____ _____    ______ ____
ROOT
ATOM      1  C   UNL     1       2.458   6.264  20.503  0.00  0.00    +0.000 C 
ENDROOT
BRANCH   1  11
ATOM      2  C   UNL     1       2.099   4.027  19.304  0.00  0.00    +0.000 A 
ATOM      3  N   UNL     1       2.419   3.037  18.380  0.00  0.00    +0.000 NA
ATOM      4  C   UNL     1       3.494   3.164  17.677  0.00  0.00    +0.000 A 
ATOM      5  C   UNL     1       3.949   2.140  16.690  0.00  0.00    +0.000 C 
ATOM      6  N   UNL     1       4.291   4.279  17.811  0.00  0.00    +0.000 N 
ATOM      7  N   UNL     1       5.439   4.463  17.149  0.00  0.00    +0.000 NA
ATOM      8  C   UNL     1       5.856   5.651  17.621  0.00  0.00    +0.000 A 
ATOM      9  N   UNL     1       4.979   6.207  18.561  0.00  0.00    +0.000 NA
ATOM     10  C   UNL     1       4.002   5.317  18.654  0.00  0.00    +0.000 A 
ATOM     11  C   UNL     1       2.799   5.199  19.457  0.00  0.00    +0.000 A 
BRANCH   8  12
ATOM     12  C   UNL     1       7.137   6.229  17.147  0.00  0.00    +0.000 C 
ATOM     13  O   UNL     1       7.630   5.962  16.059  0.00  0.00    +0.000 OA
BRANCH  12  14
ATOM     14  O   UNL     1       7.720   7.092  18.039  0.00  0.00    +0.000 OA
BRANCH  14  15
ATOM     15  C   UNL     1       7.728   8.467  17.616  0.00  0.00    +0.000 C 
ATOM     16  C   UNL     1       8.647   9.297  18.497  0.00  0.00    +0.000 C 
ENDBRANCH  14  15
ENDBRANCH  12  14
ENDBRANCH   8  12
BRANCH   2  17
ATOM     17  C   UNL     1       0.879   3.611  20.128  0.00  0.00    +0.000 C 
BRANCH  17  19
ATOM     18  C   UNL     1       2.673   2.471  21.554  0.00  0.00    +0.000 C 
ATOM     19  C   UNL     1       1.235   2.963  21.489  0.00  0.00    +0.000 C 
ENDBRANCH  17  19
ENDBRANCH   2  17
ENDBRANCH   1  11
BRANCH   1  20
ATOM     20  C   UNL     1       1.853   7.589  20.058  0.00  0.00    +0.000 A 
ATOM     21  C   UNL     1       1.188   8.416  20.972  0.00  0.00    +0.000 A 
ATOM     22  C   UNL     1       0.798   9.727  20.636  0.00  0.00    +0.000 A 
ATOM     23  C   UNL     1       1.023  10.266  19.361  0.00  0.00    +0.000 A 
ATOM     24  C   UNL     1       1.659   9.410  18.438  0.00  0.00    +0.000 A 
ATOM     25  C   UNL     1       2.071   8.102  18.777  0.00  0.00    +0.000 A 
BRANCH  23  26
ATOM     26  C   UNL     1       0.697  11.690  19.022  0.00  0.00    +0.000 A 
ATOM     27  C   UNL     1       1.707  12.667  19.222  0.00  0.00    +0.000 A 
ATOM     28  C   UNL     1       1.508  14.034  18.977  0.00  0.00    +0.000 A 
ATOM     29  C   UNL     1       0.266  14.485  18.564  0.00  0.00    +0.000 A 
ATOM     30  C   UNL     1      -0.756  13.563  18.368  0.00  0.00    +0.000 A 
ATOM     31  C   UNL     1      -0.559  12.169  18.556  0.00  0.00    +0.000 A 
BRANCH  31  32
ATOM     32  C   UNL     1      -1.683  11.309  18.188  0.00  0.00    +0.000 A 
ATOM     33  N   UNL     1      -1.611  10.315  17.237  0.00  0.00    +0.000 NA
ATOM     34  N   UNL     1      -2.824   9.797  17.125  0.00  0.00    +0.000 NA
ATOM     35  N   UNL     1      -3.576  10.515  17.962  0.00  0.00    +0.000 N 
ATOM     36  N   UNL     1      -2.935  11.458  18.666  0.00  0.00    +0.000 NA
ATOM     37  H   UNL     1      -4.575  10.359  18.047  0.00  0.00    +0.000 HD
ENDBRANCH  31  32
ENDBRANCH  23  26
ENDBRANCH   1  20
TORSDOF 9
ENDMDL
