MODEL 1
REMARK VINA RESULT:      -7.6      0.000      0.000
REMARK  Name = 
REMARK  6 active torsions:
REMARK  status: ('A' for Active; 'I' for Inactive)
REMARK    1  A    between atoms: C_1  and  C_2
REMARK    2  A    between atoms: C_2  and  C_3
REMARK    3  A    between atoms: C_3  and  S_4
REMARK    4  A    between atoms: S_4  and  N_7
REMARK    5  A    between atoms: N_14  and  C_15
REMARK    6  A    between atoms: N_18  and  C_19
REMARK                            x       y       z     vdW  Elec       q    Type
REMARK                         _______ _______ _______ _____ _____    ______ ____
ROOT
ATOM      1  N   UNL     1       5.871   4.687  18.838  0.00  0.00    +0.000 NA
ATOM      2  C   UNL     1       4.871   3.705  18.371  0.00  0.00    +0.000 C 
ATOM      3  C   UNL     1       3.754   4.537  17.769  0.00  0.00    +0.000 C 
ATOM      4  C   UNL     1       3.805   5.899  18.482  0.00  0.00    +0.000 C 
ATOM      5  C   UNL     1       3.802   7.053  17.460  0.00  0.00    +0.000 C 
ATOM      6  C   UNL     1       2.814   8.062  17.983  0.00  0.00    +0.000 C 
ATOM      7  O   UNL     1       2.589   9.125  17.428  0.00  0.00    +0.000 OA
ATOM      8  N   UNL     1       2.264   7.566  19.163  0.00  0.00    +0.000 N 
ATOM      9  C   UNL     1       2.586   6.177  19.362  0.00  0.00    +0.000 C 
ATOM     10  C   UNL     1       5.092   5.860  19.329  0.00  0.00    +0.000 C 
ENDROOT
BRANCH   8  11
ATOM     11  C   UNL     1       1.479   8.350  19.999  0.00  0.00    +0.000 A 
ATOM     12  C   UNL     1       0.826   9.583  19.744  0.00  0.00    +0.000 A 
ATOM     13  N   UNL     1       0.221  10.080  20.826  0.00  0.00    +0.000 NA
ATOM     14  N   UNL     1       0.500   9.180  21.781  0.00  0.00    +0.000 N 
ATOM     15  C   UNL     1       0.112   9.439  23.148  0.00  0.00    +0.000 C 
ATOM     16  C   UNL     1       1.208   8.102  21.327  0.00  0.00    +0.000 A 
ENDBRANCH   8  11
BRANCH   1  17
ATOM     17  S   UNL     1       7.145   5.082  17.791  0.00  0.00    +0.000 S 
ATOM     18  O   UNL     1       6.554   5.377  16.500  0.00  0.00    +0.000 OA
ATOM     19  O   UNL     1       8.153   4.056  17.929  0.00  0.00    +0.000 OA
BRANCH  17  20
ATOM     20  C   UNL     1       7.773   6.616  18.474  0.00  0.00    +0.000 C 
BRANCH  20  22
ATOM     21  C   UNL     1       8.223   9.047  17.977  0.00  0.00    +0.000 C 
ATOM     22  C   UNL     1       7.627   7.749  17.462  0.00  0.00    +0.000 C 
ENDBRANCH  20  22
ENDBRANCH  17  20
ENDBRANCH   1  17
TORSDOF 4
ENDMDL
MODEL 2
REMARK VINA RESULT:      -7.3      0.785      1.137
REMARK  Name = 
REMARK  6 active torsions:
REMARK  status: ('A' for Active; 'I' for Inactive)
REMARK    1  A    between atoms: C_1  and  C_2
REMARK    2  A    between atoms: C_2  and  C_3
REMARK    3  A    between atoms: C_3  and  S_4
REMARK    4  A    between atoms: S_4  and  N_7
REMARK    5  A    between atoms: N_14  and  C_15
REMARK    6  A    between atoms: N_18  and  C_19
REMARK                            x       y       z     vdW  Elec       q    Type
REMARK                         _______ _______ _______ _____ _____    ______ ____
ROOT
ATOM      1  N   UNL     1       5.526   4.542  18.838  0.00  0.00    +0.000 NA
ATOM      2  C   UNL     1       4.435   3.582  18.574  0.00  0.00    +0.000 C 
ATOM      3  C   UNL     1       3.291   4.424  18.040  0.00  0.00    +0.000 C 
ATOM      4  C   UNL     1       3.488   5.833  18.627  0.00  0.00    +0.000 C 
ATOM      5  C   UNL     1       3.414   6.903  17.520  0.00  0.00    +0.000 C 
ATOM      6  C   UNL     1       2.542   8.002  18.069  0.00  0.00    +0.000 C 
ATOM      7  O   UNL     1       2.300   9.030  17.458  0.00  0.00    +0.000 OA
ATOM      8  N   UNL     1       2.117   7.629  19.342  0.00  0.00    +0.000 N 
ATOM      9  C   UNL     1       2.398   6.243  19.617  0.00  0.00    +0.000 C 
ATOM     10  C   UNL     1       4.866   5.789  19.318  0.00  0.00    +0.000 C 
ENDROOT
BRANCH   8  11
ATOM     11  C   UNL     1       1.474   8.516  20.196  0.00  0.00    +0.000 A 
ATOM     12  C   UNL     1       1.359   8.499  21.609  0.00  0.00    +0.000 A 
ATOM     13  N   UNL     1       0.590   9.487  22.077  0.00  0.00    +0.000 NA
ATOM     14  N   UNL     1       0.195  10.126  20.966  0.00  0.00    +0.000 N 
ATOM     15  C   UNL     1      -0.768  11.198  21.059  0.00  0.00    +0.000 C 
ATOM     16  C   UNL     1       0.734   9.615  19.818  0.00  0.00    +0.000 A 
ENDBRANCH   8  11
BRANCH   1  17
ATOM     17  S   UNL     1       6.681   4.785  17.621  0.00  0.00    +0.000 S 
ATOM     18  O   UNL     1       6.129   4.233  16.399  0.00  0.00    +0.000 OA
ATOM     19  O   UNL     1       7.953   4.330  18.133  0.00  0.00    +0.000 OA
BRANCH  17  20
ATOM     20  C   UNL     1       6.724   6.570  17.451  0.00  0.00    +0.000 C 
BRANCH  20  22
ATOM     21  C   UNL     1       8.144   8.612  17.871  0.00  0.00    +0.000 C 
ATOM     22  C   UNL     1       7.919   7.147  18.205  0.00  0.00    +0.000 C 
ENDBRANCH  20  22
ENDBRANCH  17  20
ENDBRANCH   1  17
TORSDOF 4
ENDMDL
MODEL 3
REMARK VINA RESULT:      -7.3      1.482      2.000
REMARK  Name = 
REMARK  6 active torsions:
REMARK  status: ('A' for Active; 'I' for Inactive)
REMARK    1  A    between atoms: C_1  and  C_2
REMARK    2  A    between atoms: C_2  and  C_3
REMARK    3  A    between atoms: C_3  and  S_4
REMARK    4  A    between atoms: S_4  and  N_7
REMARK    5  A    between atoms: N_14  and  C_15
REMARK    6  A    between atoms: N_18  and  C_19
REMARK                            x       y       z     vdW  Elec       q    Type
REMARK                         _______ _______ _______ _____ _____    ______ ____
ROOT
ATOM      1  N   UNL     1       5.744   4.607  18.819  0.00  0.00    +0.000 NA
ATOM      2  C   UNL     1       4.718   3.632  18.397  0.00  0.00    +0.000 C 
ATOM      3  C   UNL     1       3.599   4.469  17.806  0.00  0.00    +0.000 C 
ATOM      4  C   UNL     1       3.689   5.845  18.489  0.00  0.00    +0.000 C 
ATOM      5  C   UNL     1       3.679   6.978  17.443  0.00  0.00    +0.000 C 
ATOM      6  C   UNL     1       2.721   8.014  17.970  0.00  0.00    +0.000 C 
ATOM      7  O   UNL     1       2.499   9.069  17.399  0.00  0.00    +0.000 OA
ATOM      8  N   UNL     1       2.193   7.551  19.174  0.00  0.00    +0.000 N 
ATOM      9  C   UNL     1       2.497   6.161  19.393  0.00  0.00    +0.000 C 
ATOM     10  C   UNL     1       4.997   5.802  19.305  0.00  0.00    +0.000 C 
ENDROOT
BRANCH   8  11
ATOM     11  C   UNL     1       1.441   8.364  20.012  0.00  0.00    +0.000 A 
ATOM     12  C   UNL     1       0.835   9.621  19.759  0.00  0.00    +0.000 A 
ATOM     13  N   UNL     1       0.254  10.141  20.844  0.00  0.00    +0.000 NA
ATOM     14  N   UNL     1       0.501   9.231  21.797  0.00  0.00    +0.000 N 
ATOM     15  C   UNL     1       0.128   9.504  23.165  0.00  0.00    +0.000 C 
ATOM     16  C   UNL     1       1.165   8.127  21.341  0.00  0.00    +0.000 A 
ENDBRANCH   8  11
BRANCH   1  17
ATOM     17  S   UNL     1       6.997   4.959  17.733  0.00  0.00    +0.000 S 
ATOM     18  O   UNL     1       8.208   4.386  18.285  0.00  0.00    +0.000 OA
ATOM     19  O   UNL     1       6.918   6.368  17.421  0.00  0.00    +0.000 OA
BRANCH  17  20
ATOM     20  C   UNL     1       6.552   4.012  16.276  0.00  0.00    +0.000 C 
BRANCH  20  22
ATOM     21  C   UNL     1       5.469   4.336  14.021  0.00  0.00    +0.000 C 
ATOM     22  C   UNL     1       6.388   4.935  15.071  0.00  0.00    +0.000 C 
ENDBRANCH  20  22
ENDBRANCH  17  20
ENDBRANCH   1  17
TORSDOF 4
ENDMDL
MODEL 4
REMARK VINA RESULT:      -7.1      1.575      2.174
REMARK  Name = 
REMARK  6 active torsions:
REMARK  status: ('A' for Active; 'I' for Inactive)
REMARK    1  A    between atoms: C_1  and  C_2
REMARK    2  A    between atoms: C_2  and  C_3
REMARK    3  A    between atoms: C_3  and  S_4
REMARK    4  A    between atoms: S_4  and  N_7
REMARK    5  A    between atoms: N_14  and  C_15
REMARK    6  A    between atoms: N_18  and  C_19
REMARK                            x       y       z     vdW  Elec       q    Type
REMARK                         _______ _______ _______ _____ _____    ______ ____
ROOT
ATOM      1  N   UNL     1       5.601   4.639  18.826  0.00  0.00    +0.000 NA
ATOM      2  C   UNL     1       4.527   3.662  18.554  0.00  0.00    +0.000 C 
ATOM      3  C   UNL     1       3.372   4.487  18.018  0.00  0.00    +0.000 C 
ATOM      4  C   UNL     1       3.543   5.896  18.611  0.00  0.00    +0.000 C 
ATOM      5  C   UNL     1       3.455   6.969  17.508  0.00  0.00    +0.000 C 
ATOM      6  C   UNL     1       2.562   8.051  18.057  0.00  0.00    +0.000 C 
ATOM      7  O   UNL     1       2.305   9.077  17.450  0.00  0.00    +0.000 OA
ATOM      8  N   UNL     1       2.138   7.665  19.328  0.00  0.00    +0.000 N 
ATOM      9  C   UNL     1       2.441   6.284  19.598  0.00  0.00    +0.000 C 
ATOM     10  C   UNL     1       4.918   5.873  19.308  0.00  0.00    +0.000 C 
ENDROOT
BRANCH   8  11
ATOM     11  C   UNL     1       1.476   8.538  20.182  0.00  0.00    +0.000 A 
ATOM     12  C   UNL     1       1.339   8.503  21.593  0.00  0.00    +0.000 A 
ATOM     13  N   UNL     1       0.557   9.480  22.060  0.00  0.00    +0.000 NA
ATOM     14  N   UNL     1       0.175  10.130  20.951  0.00  0.00    +0.000 N 
ATOM     15  C   UNL     1      -0.797  11.195  21.042  0.00  0.00    +0.000 C 
ATOM     16  C   UNL     1       0.735   9.637  19.806  0.00  0.00    +0.000 A 
ENDBRANCH   8  11
BRANCH   1  17
ATOM     17  S   UNL     1       6.757   4.907  17.615  0.00  0.00    +0.000 S 
ATOM     18  O   UNL     1       7.982   4.267  18.051  0.00  0.00    +0.000 OA
ATOM     19  O   UNL     1       6.728   6.315  17.292  0.00  0.00    +0.000 OA
BRANCH  17  20
ATOM     20  C   UNL     1       6.112   3.975  16.225  0.00  0.00    +0.000 C 
BRANCH  20  22
ATOM     21  C   UNL     1       6.900   4.802  13.976  0.00  0.00    +0.000 C 
ATOM     22  C   UNL     1       5.829   4.905  15.047  0.00  0.00    +0.000 C 
ENDBRANCH  20  22
ENDBRANCH  17  20
ENDBRANCH   1  17
TORSDOF 4
ENDMDL
MODEL 5
REMARK VINA RESULT:      -7.0      2.945      4.581
REMARK  Name = 
REMARK  6 active torsions:
REMARK  status: ('A' for Active; 'I' for Inactive)
REMARK    1  A    between atoms: C_1  and  C_2
REMARK    2  A    between atoms: C_2  and  C_3
REMARK    3  A    between atoms: C_3  and  S_4
REMARK    4  A    between atoms: S_4  and  N_7
REMARK    5  A    between atoms: N_14  and  C_15
REMARK    6  A    between atoms: N_18  and  C_19
REMARK                            x       y       z     vdW  Elec       q    Type
REMARK                         _______ _______ _______ _____ _____    ______ ____
ROOT
ATOM      1  N   UNL     1       2.857   4.453  17.488  0.00  0.00    +0.000 NA
ATOM      2  C   UNL     1       4.187   5.048  17.245  0.00  0.00    +0.000 C 
ATOM      3  C   UNL     1       4.272   6.224  18.199  0.00  0.00    +0.000 C 
ATOM      4  C   UNL     1       2.822   6.674  18.452  0.00  0.00    +0.000 C 
ATOM      5  C   UNL     1       2.546   6.810  19.963  0.00  0.00    +0.000 C 
ATOM      6  C   UNL     1       1.808   8.111  20.130  0.00  0.00    +0.000 C 
ATOM      7  O   UNL     1       1.403   8.516  21.207  0.00  0.00    +0.000 OA
ATOM      8  N   UNL     1       1.678   8.705  18.876  0.00  0.00    +0.000 N 
ATOM      9  C   UNL     1       2.501   8.058  17.888  0.00  0.00    +0.000 C 
ATOM     10  C   UNL     1       1.946   5.595  17.784  0.00  0.00    +0.000 C 
ENDROOT
BRANCH   8  11
ATOM     11  C   UNL     1       0.863   9.810  18.662  0.00  0.00    +0.000 A 
ATOM     12  C   UNL     1       1.062  11.170  19.010  0.00  0.00    +0.000 A 
ATOM     13  N   UNL     1       0.012  11.939  18.707  0.00  0.00    +0.000 NA
ATOM     14  N   UNL     1      -0.868  11.073  18.184  0.00  0.00    +0.000 N 
ATOM     15  C   UNL     1      -2.199  11.520  17.845  0.00  0.00    +0.000 C 
ATOM     16  C   UNL     1      -0.390   9.796  18.089  0.00  0.00    +0.000 A 
ENDBRANCH   8  11
BRANCH   1  17
ATOM     17  S   UNL     1       2.751   3.170  18.592  0.00  0.00    +0.000 S 
ATOM     18  O   UNL     1       3.784   3.383  19.587  0.00  0.00    +0.000 OA
ATOM     19  O   UNL     1       2.697   1.944  17.828  0.00  0.00    +0.000 OA
BRANCH  17  20
ATOM     20  C   UNL     1       1.162   3.439  19.379  0.00  0.00    +0.000 C 
BRANCH  20  22
ATOM     21  C   UNL     1       1.337   2.463  21.698  0.00  0.00    +0.000 C 
ATOM     22  C   UNL     1       1.348   3.733  20.865  0.00  0.00    +0.000 C 
ENDBRANCH  20  22
ENDBRANCH  17  20
ENDBRANCH   1  17
TORSDOF 4
ENDMDL
MODEL 6
REMARK VINA RESULT:      -6.9      1.665      2.000
REMARK  Name = 
REMARK  6 active torsions:
REMARK  status: ('A' for Active; 'I' for Inactive)
REMARK    1  A    between atoms: C_1  and  C_2
REMARK    2  A    between atoms: C_2  and  C_3
REMARK    3  A    between atoms: C_3  and  S_4
REMARK    4  A    between atoms: S_4  and  N_7
REMARK    5  A    between atoms: N_14  and  C_15
REMARK    6  A    between atoms: N_18  and  C_19
REMARK                            x       y       z     vdW  Elec       q    Type
REMARK                         _______ _______ _______ _____ _____    ______ ____
ROOT
ATOM      1  N   UNL     1       4.487   4.854  18.343  0.00  0.00    +0.000 NA
ATOM      2  C   UNL     1       3.283   4.019  18.157  0.00  0.00    +0.000 C 
ATOM      3  C   UNL     1       2.140   5.005  18.003  0.00  0.00    +0.000 C 
ATOM      4  C   UNL     1       2.572   6.278  18.752  0.00  0.00    +0.000 C 
ATOM      5  C   UNL     1       2.386   7.525  17.864  0.00  0.00    +0.000 C 
ATOM      6  C   UNL     1       1.738   8.562  18.743  0.00  0.00    +0.000 C 
ATOM      7  O   UNL     1       1.478   9.691  18.363  0.00  0.00    +0.000 OA
ATOM      8  N   UNL     1       1.530   8.001  20.002  0.00  0.00    +0.000 N 
ATOM      9  C   UNL     1       1.731   6.575  19.994  0.00  0.00    +0.000 C 
ATOM     10  C   UNL     1       4.045   6.036  19.135  0.00  0.00    +0.000 C 
ENDROOT
BRANCH   8  11
ATOM     11  C   UNL     1       1.143   8.764  21.096  0.00  0.00    +0.000 A 
ATOM     12  C   UNL     1       1.787   8.959  22.345  0.00  0.00    +0.000 A 
ATOM     13  N   UNL     1       1.066   9.706  23.186  0.00  0.00    +0.000 NA
ATOM     14  N   UNL     1      -0.047   9.976  22.488  0.00  0.00    +0.000 N 
ATOM     15  C   UNL     1      -1.141  10.672  23.123  0.00  0.00    +0.000 C 
ATOM     16  C   UNL     1      -0.031   9.476  21.216  0.00  0.00    +0.000 A 
ENDBRANCH   8  11
BRANCH   1  17
ATOM     17  S   UNL     1       5.407   5.235  16.971  0.00  0.00    +0.000 S 
ATOM     18  O   UNL     1       5.324   6.671  16.792  0.00  0.00    +0.000 OA
ATOM     19  O   UNL     1       5.009   4.330  15.916  0.00  0.00    +0.000 OA
BRANCH  17  20
ATOM     20  C   UNL     1       7.080   4.838  17.480  0.00  0.00    +0.000 C 
BRANCH  20  22
ATOM     21  C   UNL     1       7.772   5.701  19.748  0.00  0.00    +0.000 C 
ATOM     22  C   UNL     1       7.688   6.001  18.261  0.00  0.00    +0.000 C 
ENDBRANCH  20  22
ENDBRANCH  17  20
ENDBRANCH   1  17
TORSDOF 4
ENDMDL
MODEL 7
REMARK VINA RESULT:      -6.8      1.309      1.568
REMARK  Name = 
REMARK  6 active torsions:
REMARK  status: ('A' for Active; 'I' for Inactive)
REMARK    1  A    between atoms: C_1  and  C_2
REMARK    2  A    between atoms: C_2  and  C_3
REMARK    3  A    between atoms: C_3  and  S_4
REMARK    4  A    between atoms: S_4  and  N_7
REMARK    5  A    between atoms: N_14  and  C_15
REMARK    6  A    between atoms: N_18  and  C_19
REMARK                            x       y       z     vdW  Elec       q    Type
REMARK                         _______ _______ _______ _____ _____    ______ ____
ROOT
ATOM      1  N   UNL     1       4.646   4.583  18.888  0.00  0.00    +0.000 NA
ATOM      2  C   UNL     1       3.438   3.767  18.650  0.00  0.00    +0.000 C 
ATOM      3  C   UNL     1       2.346   4.767  18.321  0.00  0.00    +0.000 C 
ATOM      4  C   UNL     1       2.747   6.081  19.014  0.00  0.00    +0.000 C 
ATOM      5  C   UNL     1       2.683   7.264  18.028  0.00  0.00    +0.000 C 
ATOM      6  C   UNL     1       1.990   8.378  18.767  0.00  0.00    +0.000 C 
ATOM      7  O   UNL     1       1.802   9.483  18.285  0.00  0.00    +0.000 OA
ATOM      8  N   UNL     1       1.651   7.916  20.037  0.00  0.00    +0.000 N 
ATOM      9  C   UNL     1       1.806   6.489  20.148  0.00  0.00    +0.000 C 
ATOM     10  C   UNL     1       4.172   5.832  19.550  0.00  0.00    +0.000 C 
ENDROOT
BRANCH   8  11
ATOM     11  C   UNL     1       1.190   8.767  21.034  0.00  0.00    +0.000 A 
ATOM     12  C   UNL     1       1.640   8.935  22.368  0.00  0.00    +0.000 A 
ATOM     13  N   UNL     1       0.892   9.800  23.060  0.00  0.00    +0.000 NA
ATOM     14  N   UNL     1      -0.048  10.173  22.179  0.00  0.00    +0.000 N 
ATOM     15  C   UNL     1      -1.134  11.024  22.606  0.00  0.00    +0.000 C 
ATOM     16  C   UNL     1       0.113   9.621  20.939  0.00  0.00    +0.000 A 
ENDBRANCH   8  11
BRANCH   1  17
ATOM     17  S   UNL     1       5.700   4.840  17.584  0.00  0.00    +0.000 S 
ATOM     18  O   UNL     1       4.975   4.486  16.379  0.00  0.00    +0.000 OA
ATOM     19  O   UNL     1       6.955   4.202  17.909  0.00  0.00    +0.000 OA
BRANCH  17  20
ATOM     20  C   UNL     1       5.928   6.619  17.589  0.00  0.00    +0.000 C 
BRANCH  20  22
ATOM     21  C   UNL     1       8.157   7.497  18.379  0.00  0.00    +0.000 C 
ATOM     22  C   UNL     1       7.361   6.972  17.197  0.00  0.00    +0.000 C 
ENDBRANCH  20  22
ENDBRANCH  17  20
ENDBRANCH   1  17
TORSDOF 4
ENDMDL
MODEL 8
REMARK VINA RESULT:      -6.6      4.033      7.408
REMARK  Name = 
REMARK  6 active torsions:
REMARK  status: ('A' for Active; 'I' for Inactive)
REMARK    1  A    between atoms: C_1  and  C_2
REMARK    2  A    between atoms: C_2  and  C_3
REMARK    3  A    between atoms: C_3  and  S_4
REMARK    4  A    between atoms: S_4  and  N_7
REMARK    5  A    between atoms: N_14  and  C_15
REMARK    6  A    between atoms: N_18  and  C_19
REMARK                            x       y       z     vdW  Elec       q    Type
REMARK                         _______ _______ _______ _____ _____    ______ ____
ROOT
ATOM      1  N   UNL     1       3.007   3.063  18.847  0.00  0.00    +0.000 NA
ATOM      2  C   UNL     1       4.180   3.160  19.739  0.00  0.00    +0.000 C 
ATOM      3  C   UNL     1       5.034   4.266  19.148  0.00  0.00    +0.000 C 
ATOM      4  C   UNL     1       4.707   4.300  17.645  0.00  0.00    +0.000 C 
ATOM      5  C   UNL     1       4.379   5.735  17.187  0.00  0.00    +0.000 C 
ATOM      6  C   UNL     1       5.131   5.937  15.898  0.00  0.00    +0.000 C 
ATOM      7  O   UNL     1       5.068   6.963  15.242  0.00  0.00    +0.000 OA
ATOM      8  N   UNL     1       5.851   4.775  15.624  0.00  0.00    +0.000 N 
ATOM      9  C   UNL     1       5.876   3.881  16.753  0.00  0.00    +0.000 C 
ATOM     10  C   UNL     1       3.516   3.335  17.473  0.00  0.00    +0.000 C 
ENDROOT
BRANCH   8  11
ATOM     11  C   UNL     1       6.478   4.565  14.403  0.00  0.00    +0.000 A 
ATOM     12  C   UNL     1       7.479   5.329  13.750  0.00  0.00    +0.000 A 
ATOM     13  N   UNL     1       7.784   4.853  12.539  0.00  0.00    +0.000 NA
ATOM     14  N   UNL     1       6.968   3.797  12.405  0.00  0.00    +0.000 N 
ATOM     15  C   UNL     1       6.916   3.084  11.150  0.00  0.00    +0.000 C 
ATOM     16  C   UNL     1       6.201   3.553  13.510  0.00  0.00    +0.000 A 
ENDBRANCH   8  11
BRANCH   1  17
ATOM     17  S   UNL     1       1.617   3.939  19.265  0.00  0.00    +0.000 S 
ATOM     18  O   UNL     1       0.688   2.998  19.859  0.00  0.00    +0.000 OA
ATOM     19  O   UNL     1       1.241   4.729  18.115  0.00  0.00    +0.000 OA
BRANCH  17  20
ATOM     20  C   UNL     1       2.200   5.033  20.561  0.00  0.00    +0.000 C 
BRANCH  20  22
ATOM     21  C   UNL     1       1.347   7.383  20.899  0.00  0.00    +0.000 C 
ATOM     22  C   UNL     1       2.234   6.476  20.063  0.00  0.00    +0.000 C 
ENDBRANCH  20  22
ENDBRANCH  17  20
ENDBRANCH   1  17
TORSDOF 4
ENDMDL
MODEL 9
REMARK VINA RESULT:      -6.4      1.140      1.303
REMARK  Name = 
REMARK  6 active torsions:
REMARK  status: ('A' for Active; 'I' for Inactive)
REMARK    1  A    between atoms: C_1  and  C_2
REMARK    2  A    between atoms: C_2  and  C_3
REMARK    3  A    between atoms: C_3  and  S_4
REMARK    4  A    between atoms: S_4  and  N_7
REMARK    5  A    between atoms: N_14  and  C_15
REMARK    6  A    between atoms: N_18  and  C_19
REMARK                            x       y       z     vdW  Elec       q    Type
REMARK                         _______ _______ _______ _____ _____    ______ ____
ROOT
ATOM      1  N   UNL     1       4.977   4.657  18.390  0.00  0.00    +0.000 NA
ATOM      2  C   UNL     1       3.810   3.774  18.184  0.00  0.00    +0.000 C 
ATOM      3  C   UNL     1       2.677   4.705  17.793  0.00  0.00    +0.000 C 
ATOM      4  C   UNL     1       3.010   6.069  18.420  0.00  0.00    +0.000 C 
ATOM      5  C   UNL     1       2.904   7.196  17.373  0.00  0.00    +0.000 C 
ATOM      6  C   UNL     1       2.152   8.313  18.047  0.00  0.00    +0.000 C 
ATOM      7  O   UNL     1       1.919   9.382  17.506  0.00  0.00    +0.000 OA
ATOM      8  N   UNL     1       1.818   7.902  19.336  0.00  0.00    +0.000 N 
ATOM      9  C   UNL     1       2.038   6.491  19.523  0.00  0.00    +0.000 C 
ATOM     10  C   UNL     1       4.438   5.914  18.982  0.00  0.00    +0.000 C 
ENDROOT
BRANCH   8  11
ATOM     11  C   UNL     1       1.307   8.781  20.282  0.00  0.00    +0.000 A 
ATOM     12  C   UNL     1       1.426  10.191  20.375  0.00  0.00    +0.000 A 
ATOM     13  N   UNL     1       0.859  10.685  21.479  0.00  0.00    +0.000 NA
ATOM     14  N   UNL     1       0.393   9.595  22.106  0.00  0.00    +0.000 N 
ATOM     15  C   UNL     1      -0.186   9.716  23.423  0.00  0.00    +0.000 C 
ATOM     16  C   UNL     1       0.593   8.436  21.409  0.00  0.00    +0.000 A 
ENDBRANCH   8  11
BRANCH   1  17
ATOM     17  S   UNL     1       6.033   4.894  17.085  0.00  0.00    +0.000 S 
ATOM     18  O   UNL     1       5.873   6.270  16.657  0.00  0.00    +0.000 OA
ATOM     19  O   UNL     1       5.833   3.801  16.161  0.00  0.00    +0.000 OA
BRANCH  17  20
ATOM     20  C   UNL     1       7.652   4.735  17.838  0.00  0.00    +0.000 C 
BRANCH  20  22
ATOM     21  C   UNL     1       8.162   7.091  18.581  0.00  0.00    +0.000 C 
ATOM     22  C   UNL     1       7.784   5.688  19.023  0.00  0.00    +0.000 C 
ENDBRANCH  20  22
ENDBRANCH  17  20
ENDBRANCH   1  17
TORSDOF 4
ENDMDL
