MODEL 1
REMARK VINA RESULT:      -8.4      0.000      0.000
REMARK  Name = 
REMARK  3 active torsions:
REMARK  status: ('A' for Active; 'I' for Inactive)
REMARK    1  A    between atoms: C_1  and  C_2
REMARK    2  A    between atoms: C_5  and  C_6
REMARK    3  A    between atoms: C_7  and  C_8
REMARK                            x       y       z     vdW  Elec       q    Type
REMARK                         _______ _______ _______ _____ _____    ______ ____
ROOT
ATOM      1  C   UNL     1       4.011   6.419  18.090  0.00  0.00    +0.000 C 
ATOM      2  C   UNL     1       4.455   5.217  18.488  0.00  0.00    +0.000 C 
ATOM      3  C   UNL     1       5.886   5.183  18.091  0.00  0.00    +0.000 C 
ATOM      4  O   UNL     1       6.751   4.466  18.567  0.00  0.00    +0.000 OA
ATOM      5  O   UNL     1       6.106   6.132  17.148  0.00  0.00    +0.000 OA
ATOM      6  C   UNL     1       4.888   6.831  16.958  0.00  0.00    +0.000 C 
ENDROOT
BRANCH   1  11
ATOM      7  C   UNL     1       0.401  10.521  19.915  0.00  0.00    +0.000 C 
ATOM      8  C   UNL     1       1.107   9.304  19.391  0.00  0.00    +0.000 A 
ATOM      9  C   UNL     1       1.450   8.241  20.238  0.00  0.00    +0.000 A 
ATOM     10  C   UNL     1       2.314   7.223  19.777  0.00  0.00    +0.000 A 
ATOM     11  C   UNL     1       2.839   7.242  18.480  0.00  0.00    +0.000 A 
ATOM     12  C   UNL     1       2.386   8.256  17.613  0.00  0.00    +0.000 A 
ATOM     13  C   UNL     1       1.551   9.280  18.070  0.00  0.00    +0.000 A 
ENDBRANCH   1  11
BRANCH   2  14
ATOM     14  C   UNL     1       3.667   3.991  18.700  0.00  0.00    +0.000 A 
ATOM     15  C   UNL     1       3.141   3.261  17.622  0.00  0.00    +0.000 A 
ATOM     16  C   UNL     1       2.103   2.344  17.819  0.00  0.00    +0.000 A 
ATOM     17  C   UNL     1       1.584   2.133  19.096  0.00  0.00    +0.000 A 
ATOM     18  C   UNL     1       2.113   2.832  20.174  0.00  0.00    +0.000 A 
ATOM     19 CL   UNL     1       1.443   2.635  21.746  0.00  0.00    +0.000 Cl
ATOM     20  C   UNL     1       3.143   3.749  19.982  0.00  0.00    +0.000 A 
ENDBRANCH   2  14
TORSDOF 2
ENDMDL
MODEL 2
REMARK VINA RESULT:      -8.2      3.480      5.436
REMARK  Name = 
REMARK  3 active torsions:
REMARK  status: ('A' for Active; 'I' for Inactive)
REMARK    1  A    between atoms: C_1  and  C_2
REMARK    2  A    between atoms: C_5  and  C_6
REMARK    3  A    between atoms: C_7  and  C_8
REMARK                            x       y       z     vdW  Elec       q    Type
REMARK                         _______ _______ _______ _____ _____    ______ ____
ROOT
ATOM      1  C   UNL     1       5.265   4.562  15.989  0.00  0.00    +0.000 C 
ATOM      2  C   UNL     1       6.399   5.264  15.847  0.00  0.00    +0.000 C 
ATOM      3  C   UNL     1       6.917   4.895  14.505  0.00  0.00    +0.000 C 
ATOM      4  O   UNL     1       7.694   5.546  13.826  0.00  0.00    +0.000 OA
ATOM      5  O   UNL     1       6.335   3.735  14.110  0.00  0.00    +0.000 OA
ATOM      6  C   UNL     1       5.406   3.363  15.114  0.00  0.00    +0.000 C 
ENDROOT
BRANCH   1  11
ATOM      7  C   UNL     1       1.590   4.958  20.408  0.00  0.00    +0.000 C 
ATOM      8  C   UNL     1       2.320   4.904  19.097  0.00  0.00    +0.000 A 
ATOM      9  C   UNL     1       2.417   3.711  18.367  0.00  0.00    +0.000 A 
ATOM     10  C   UNL     1       3.300   3.627  17.267  0.00  0.00    +0.000 A 
ATOM     11  C   UNL     1       4.086   4.716  16.877  0.00  0.00    +0.000 A 
ATOM     12  C   UNL     1       3.884   5.937  17.553  0.00  0.00    +0.000 A 
ATOM     13  C   UNL     1       3.030   6.019  18.657  0.00  0.00    +0.000 A 
ENDBRANCH   1  11
BRANCH   2  14
ATOM     14  C   UNL     1       7.272   5.789  16.911  0.00  0.00    +0.000 A 
ATOM     15  C   UNL     1       7.540   5.049  18.074  0.00  0.00    +0.000 A 
ATOM     16  C   UNL     1       8.038   5.676  19.221  0.00  0.00    +0.000 A 
ATOM     17  C   UNL     1       8.287   7.048  19.220  0.00  0.00    +0.000 A 
ATOM     18  C   UNL     1       8.049   7.786  18.068  0.00  0.00    +0.000 A 
ATOM     19 CL   UNL     1       8.289   9.489  18.067  0.00  0.00    +0.000 Cl
ATOM     20  C   UNL     1       7.550   7.167  16.925  0.00  0.00    +0.000 A 
ENDBRANCH   2  14
TORSDOF 2
ENDMDL
MODEL 3
REMARK VINA RESULT:      -8.2      2.799      4.155
REMARK  Name = 
REMARK  3 active torsions:
REMARK  status: ('A' for Active; 'I' for Inactive)
REMARK    1  A    between atoms: C_1  and  C_2
REMARK    2  A    between atoms: C_5  and  C_6
REMARK    3  A    between atoms: C_7  and  C_8
REMARK                            x       y       z     vdW  Elec       q    Type
REMARK                         _______ _______ _______ _____ _____    ______ ____
ROOT
ATOM      1  C   UNL     1       2.670   5.043  19.601  0.00  0.00    +0.000 C 
ATOM      2  C   UNL     1       3.293   4.075  18.912  0.00  0.00    +0.000 C 
ATOM      3  C   UNL     1       2.675   2.808  19.380  0.00  0.00    +0.000 C 
ATOM      4  O   UNL     1       2.665   1.744  18.782  0.00  0.00    +0.000 OA
ATOM      5  O   UNL     1       2.054   3.030  20.565  0.00  0.00    +0.000 OA
ATOM      6  C   UNL     1       2.186   4.410  20.861  0.00  0.00    +0.000 C 
ENDROOT
BRANCH   1  11
ATOM      7  C   UNL     1       0.814  10.377  18.466  0.00  0.00    +0.000 C 
ATOM      8  C   UNL     1       1.546   9.112  18.810  0.00  0.00    +0.000 A 
ATOM      9  C   UNL     1       2.244   8.387  17.834  0.00  0.00    +0.000 A 
ATOM     10  C   UNL     1       2.721   7.090  18.126  0.00  0.00    +0.000 A 
ATOM     11  C   UNL     1       2.519   6.502  19.379  0.00  0.00    +0.000 A 
ATOM     12  C   UNL     1       1.919   7.295  20.378  0.00  0.00    +0.000 A 
ATOM     13  C   UNL     1       1.423   8.570  20.088  0.00  0.00    +0.000 A 
ENDBRANCH   1  11
BRANCH   2  14
ATOM     14  C   UNL     1       4.636   4.120  18.310  0.00  0.00    +0.000 A 
ATOM     15  C   UNL     1       5.717   4.725  18.971  0.00  0.00    +0.000 A 
ATOM     16  C   UNL     1       6.866   5.102  18.266  0.00  0.00    +0.000 A 
ATOM     17  C   UNL     1       6.957   4.868  16.894  0.00  0.00    +0.000 A 
ATOM     18  C   UNL     1       5.904   4.248  16.234  0.00  0.00    +0.000 A 
ATOM     19 CL   UNL     1       5.970   4.009  14.532  0.00  0.00    +0.000 Cl
ATOM     20  C   UNL     1       4.757   3.875  16.931  0.00  0.00    +0.000 A 
ENDBRANCH   2  14
TORSDOF 2
ENDMDL
MODEL 4
REMARK VINA RESULT:      -8.0      2.569      3.843
REMARK  Name = 
REMARK  3 active torsions:
REMARK  status: ('A' for Active; 'I' for Inactive)
REMARK    1  A    between atoms: C_1  and  C_2
REMARK    2  A    between atoms: C_5  and  C_6
REMARK    3  A    between atoms: C_7  and  C_8
REMARK                            x       y       z     vdW  Elec       q    Type
REMARK                         _______ _______ _______ _____ _____    ______ ____
ROOT
ATOM      1  C   UNL     1       2.472   5.707  19.441  0.00  0.00    +0.000 C 
ATOM      2  C   UNL     1       3.111   4.824  18.659  0.00  0.00    +0.000 C 
ATOM      3  C   UNL     1       2.592   3.495  19.073  0.00  0.00    +0.000 C 
ATOM      4  O   UNL     1       2.609   2.473  18.406  0.00  0.00    +0.000 OA
ATOM      5  O   UNL     1       2.025   3.604  20.300  0.00  0.00    +0.000 OA
ATOM      6  C   UNL     1       2.095   4.968  20.679  0.00  0.00    +0.000 C 
ENDROOT
BRANCH   1  11
ATOM      7  C   UNL     1       0.253  10.983  18.788  0.00  0.00    +0.000 C 
ATOM      8  C   UNL     1       1.075   9.744  18.996  0.00  0.00    +0.000 A 
ATOM      9  C   UNL     1       1.736   9.121  17.928  0.00  0.00    +0.000 A 
ATOM     10  C   UNL     1       2.302   7.839  18.101  0.00  0.00    +0.000 A 
ATOM     11  C   UNL     1       2.227   7.166  19.325  0.00  0.00    +0.000 A 
ATOM     12  C   UNL     1       1.663   7.861  20.413  0.00  0.00    +0.000 A 
ATOM     13  C   UNL     1       1.079   9.121  20.242  0.00  0.00    +0.000 A 
ENDBRANCH   1  11
BRANCH   2  14
ATOM     14  C   UNL     1       4.415   4.988  17.994  0.00  0.00    +0.000 A 
ATOM     15  C   UNL     1       4.673   4.426  16.734  0.00  0.00    +0.000 A 
ATOM     16  C   UNL     1       5.987   4.254  16.283  0.00  0.00    +0.000 A 
ATOM     17  C   UNL     1       7.060   4.653  17.079  0.00  0.00    +0.000 A 
ATOM     18  C   UNL     1       6.816   5.233  18.317  0.00  0.00    +0.000 A 
ATOM     19 CL   UNL     1       8.127   5.672  19.340  0.00  0.00    +0.000 Cl
ATOM     20  C   UNL     1       5.511   5.402  18.772  0.00  0.00    +0.000 A 
ENDBRANCH   2  14
TORSDOF 2
ENDMDL
MODEL 5
REMARK VINA RESULT:      -7.7      2.896      4.520
REMARK  Name = 
REMARK  3 active torsions:
REMARK  status: ('A' for Active; 'I' for Inactive)
REMARK    1  A    between atoms: C_1  and  C_2
REMARK    2  A    between atoms: C_5  and  C_6
REMARK    3  A    between atoms: C_7  and  C_8
REMARK                            x       y       z     vdW  Elec       q    Type
REMARK                         _______ _______ _______ _____ _____    ______ ____
ROOT
ATOM      1  C   UNL     1       3.534   5.746  17.766  0.00  0.00    +0.000 C 
ATOM      2  C   UNL     1       4.693   5.465  17.153  0.00  0.00    +0.000 C 
ATOM      3  C   UNL     1       4.424   4.234  16.365  0.00  0.00    +0.000 C 
ATOM      4  O   UNL     1       5.055   3.846  15.395  0.00  0.00    +0.000 OA
ATOM      5  O   UNL     1       3.313   3.630  16.853  0.00  0.00    +0.000 OA
ATOM      6  C   UNL     1       2.805   4.451  17.890  0.00  0.00    +0.000 C 
ENDROOT
BRANCH   1  11
ATOM      7  C   UNL     1       0.241   9.987  19.854  0.00  0.00    +0.000 C 
ATOM      8  C   UNL     1       1.315   9.043  19.395  0.00  0.00    +0.000 A 
ATOM      9  C   UNL     1       1.893   9.161  18.124  0.00  0.00    +0.000 A 
ATOM     10  C   UNL     1       2.722   8.131  17.627  0.00  0.00    +0.000 A 
ATOM     11  C   UNL     1       2.990   6.983  18.380  0.00  0.00    +0.000 A 
ATOM     12  C   UNL     1       2.493   6.941  19.698  0.00  0.00    +0.000 A 
ATOM     13  C   UNL     1       1.653   7.947  20.186  0.00  0.00    +0.000 A 
ENDBRANCH   1  11
BRANCH   2  14
ATOM     14  C   UNL     1       6.051   5.850  17.573  0.00  0.00    +0.000 A 
ATOM     15  C   UNL     1       6.747   5.130  18.556  0.00  0.00    +0.000 A 
ATOM     16  C   UNL     1       7.844   5.696  19.215  0.00  0.00    +0.000 A 
ATOM     17  C   UNL     1       8.268   6.985  18.893  0.00  0.00    +0.000 A 
ATOM     18  C   UNL     1       7.601   7.698  17.905  0.00  0.00    +0.000 A 
ATOM     19 CL   UNL     1       8.069   9.312  17.538  0.00  0.00    +0.000 Cl
ATOM     20  C   UNL     1       6.507   7.139  17.249  0.00  0.00    +0.000 A 
ENDBRANCH   2  14
TORSDOF 2
ENDMDL
MODEL 6
REMARK VINA RESULT:      -7.7      2.851      4.184
REMARK  Name = 
REMARK  3 active torsions:
REMARK  status: ('A' for Active; 'I' for Inactive)
REMARK    1  A    between atoms: C_1  and  C_2
REMARK    2  A    between atoms: C_5  and  C_6
REMARK    3  A    between atoms: C_7  and  C_8
REMARK                            x       y       z     vdW  Elec       q    Type
REMARK                         _______ _______ _______ _____ _____    ______ ____
ROOT
ATOM      1  C   UNL     1       2.965   4.780  19.743  0.00  0.00    +0.000 C 
ATOM      2  C   UNL     1       3.904   4.003  19.183  0.00  0.00    +0.000 C 
ATOM      3  C   UNL     1       3.709   2.662  19.792  0.00  0.00    +0.000 C 
ATOM      4  O   UNL     1       4.077   1.596  19.325  0.00  0.00    +0.000 OA
ATOM      5  O   UNL     1       2.989   2.795  20.933  0.00  0.00    +0.000 OA
ATOM      6  C   UNL     1       2.648   4.164  21.063  0.00  0.00    +0.000 C 
ENDROOT
BRANCH   1  11
ATOM      7  C   UNL     1       1.872  10.251  18.306  0.00  0.00    +0.000 C 
ATOM      8  C   UNL     1       1.880   8.787  18.642  0.00  0.00    +0.000 A 
ATOM      9  C   UNL     1       1.632   8.339  19.947  0.00  0.00    +0.000 A 
ATOM     10  C   UNL     1       1.875   6.991  20.287  0.00  0.00    +0.000 A 
ATOM     11  C   UNL     1       2.358   6.075  19.346  0.00  0.00    +0.000 A 
ATOM     12  C   UNL     1       2.488   6.521  18.016  0.00  0.00    +0.000 A 
ATOM     13  C   UNL     1       2.271   7.861  17.678  0.00  0.00    +0.000 A 
ENDBRANCH   1  11
BRANCH   2  14
ATOM     14  C   UNL     1       5.189   4.423  18.599  0.00  0.00    +0.000 A 
ATOM     15  C   UNL     1       6.063   5.280  19.286  0.00  0.00    +0.000 A 
ATOM     16  C   UNL     1       7.072   5.969  18.604  0.00  0.00    +0.000 A 
ATOM     17  C   UNL     1       7.230   5.803  17.228  0.00  0.00    +0.000 A 
ATOM     18  C   UNL     1       6.386   4.939  16.542  0.00  0.00    +0.000 A 
ATOM     19 CL   UNL     1       6.524   4.770  14.836  0.00  0.00    +0.000 Cl
ATOM     20  C   UNL     1       5.379   4.254  17.216  0.00  0.00    +0.000 A 
ENDBRANCH   2  14
TORSDOF 2
ENDMDL
MODEL 7
REMARK VINA RESULT:      -7.7      1.316      1.383
REMARK  Name = 
REMARK  3 active torsions:
REMARK  status: ('A' for Active; 'I' for Inactive)
REMARK    1  A    between atoms: C_1  and  C_2
REMARK    2  A    between atoms: C_5  and  C_6
REMARK    3  A    between atoms: C_7  and  C_8
REMARK                            x       y       z     vdW  Elec       q    Type
REMARK                         _______ _______ _______ _____ _____    ______ ____
ROOT
ATOM      1  C   UNL     1       4.275   6.529  17.353  0.00  0.00    +0.000 C 
ATOM      2  C   UNL     1       4.986   5.405  17.527  0.00  0.00    +0.000 C 
ATOM      3  C   UNL     1       6.261   5.637  16.800  0.00  0.00    +0.000 C 
ATOM      4  O   UNL     1       7.318   5.059  16.993  0.00  0.00    +0.000 OA
ATOM      5  O   UNL     1       6.088   6.653  15.918  0.00  0.00    +0.000 OA
ATOM      6  C   UNL     1       4.767   7.139  16.085  0.00  0.00    +0.000 C 
ENDROOT
BRANCH   1  11
ATOM      7  C   UNL     1       0.735   9.657  20.650  0.00  0.00    +0.000 C 
ATOM      8  C   UNL     1       1.425   8.698  19.723  0.00  0.00    +0.000 A 
ATOM      9  C   UNL     1       1.904   7.462  20.180  0.00  0.00    +0.000 A 
ATOM     10  C   UNL     1       2.750   6.686  19.357  0.00  0.00    +0.000 A 
ATOM     11  C   UNL     1       3.124   7.118  18.080  0.00  0.00    +0.000 A 
ATOM     12  C   UNL     1       2.536   8.305  17.600  0.00  0.00    +0.000 A 
ATOM     13  C   UNL     1       1.718   9.090  18.419  0.00  0.00    +0.000 A 
ENDBRANCH   1  11
BRANCH   2  14
ATOM     14  C   UNL     1       4.477   4.053  17.811  0.00  0.00    +0.000 A 
ATOM     15  C   UNL     1       3.383   3.518  17.113  0.00  0.00    +0.000 A 
ATOM     16  C   UNL     1       2.674   2.424  17.624  0.00  0.00    +0.000 A 
ATOM     17  C   UNL     1       3.056   1.842  18.832  0.00  0.00    +0.000 A 
ATOM     18  C   UNL     1       4.151   2.348  19.520  0.00  0.00    +0.000 A 
ATOM     19 CL   UNL     1       4.598   1.685  21.043  0.00  0.00    +0.000 Cl
ATOM     20  C   UNL     1       4.857   3.438  19.017  0.00  0.00    +0.000 A 
ENDBRANCH   2  14
TORSDOF 2
ENDMDL
MODEL 8
REMARK VINA RESULT:      -7.6      3.842      5.792
REMARK  Name = 
REMARK  3 active torsions:
REMARK  status: ('A' for Active; 'I' for Inactive)
REMARK    1  A    between atoms: C_1  and  C_2
REMARK    2  A    between atoms: C_5  and  C_6
REMARK    3  A    between atoms: C_7  and  C_8
REMARK                            x       y       z     vdW  Elec       q    Type
REMARK                         _______ _______ _______ _____ _____    ______ ____
ROOT
ATOM      1  C   UNL     1       5.315   4.042  16.146  0.00  0.00    +0.000 C 
ATOM      2  C   UNL     1       6.280   4.951  15.940  0.00  0.00    +0.000 C 
ATOM      3  C   UNL     1       6.667   4.786  14.515  0.00  0.00    +0.000 C 
ATOM      4  O   UNL     1       7.221   5.619  13.816  0.00  0.00    +0.000 OA
ATOM      5  O   UNL     1       6.247   3.572  14.080  0.00  0.00    +0.000 OA
ATOM      6  C   UNL     1       5.542   2.960  15.146  0.00  0.00    +0.000 C 
ENDROOT
BRANCH   1  11
ATOM      7  C   UNL     1       0.491   3.042  19.134  0.00  0.00    +0.000 C 
ATOM      8  C   UNL     1       1.852   3.392  18.602  0.00  0.00    +0.000 A 
ATOM      9  C   UNL     1       2.145   4.687  18.152  0.00  0.00    +0.000 A 
ATOM     10  C   UNL     1       3.342   4.933  17.444  0.00  0.00    +0.000 A 
ATOM     11  C   UNL     1       4.258   3.909  17.179  0.00  0.00    +0.000 A 
ATOM     12  C   UNL     1       3.995   2.644  17.742  0.00  0.00    +0.000 A 
ATOM     13  C   UNL     1       2.801   2.389  18.423  0.00  0.00    +0.000 A 
ENDBRANCH   1  11
BRANCH   2  14
ATOM     14  C   UNL     1       7.184   5.546  16.938  0.00  0.00    +0.000 A 
ATOM     15  C   UNL     1       7.556   4.850  18.099  0.00  0.00    +0.000 A 
ATOM     16  C   UNL     1       8.087   5.531  19.201  0.00  0.00    +0.000 A 
ATOM     17  C   UNL     1       8.264   6.913  19.154  0.00  0.00    +0.000 A 
ATOM     18  C   UNL     1       7.921   7.609  18.002  0.00  0.00    +0.000 A 
ATOM     19 CL   UNL     1       8.072   9.322  17.948  0.00  0.00    +0.000 Cl
ATOM     20  C   UNL     1       7.390   6.936  16.904  0.00  0.00    +0.000 A 
ENDBRANCH   2  14
TORSDOF 2
ENDMDL
MODEL 9
REMARK VINA RESULT:      -7.5      0.832      1.357
REMARK  Name = 
REMARK  3 active torsions:
REMARK  status: ('A' for Active; 'I' for Inactive)
REMARK    1  A    between atoms: C_1  and  C_2
REMARK    2  A    between atoms: C_5  and  C_6
REMARK    3  A    between atoms: C_7  and  C_8
REMARK                            x       y       z     vdW  Elec       q    Type
REMARK                         _______ _______ _______ _____ _____    ______ ____
ROOT
ATOM      1  C   UNL     1       3.807   6.662  17.767  0.00  0.00    +0.000 C 
ATOM      2  C   UNL     1       4.049   5.381  18.081  0.00  0.00    +0.000 C 
ATOM      3  C   UNL     1       5.323   5.048  17.393  0.00  0.00    +0.000 C 
ATOM      4  O   UNL     1       6.088   4.145  17.688  0.00  0.00    +0.000 OA
ATOM      5  O   UNL     1       5.545   5.956  16.411  0.00  0.00    +0.000 OA
ATOM      6  C   UNL     1       4.498   6.910  16.470  0.00  0.00    +0.000 C 
ENDROOT
BRANCH   1  11
ATOM      7  C   UNL     1      -0.506   9.893  19.804  0.00  0.00    +0.000 C 
ATOM      8  C   UNL     1       0.783   9.258  19.369  0.00  0.00    +0.000 A 
ATOM      9  C   UNL     1       1.355   9.552  18.123  0.00  0.00    +0.000 A 
ATOM     10  C   UNL     1       2.430   8.774  17.640  0.00  0.00    +0.000 A 
ATOM     11  C   UNL     1       2.952   7.708  18.382  0.00  0.00    +0.000 A 
ATOM     12  C   UNL     1       2.438   7.509  19.679  0.00  0.00    +0.000 A 
ATOM     13  C   UNL     1       1.358   8.260  20.152  0.00  0.00    +0.000 A 
ENDBRANCH   1  11
BRANCH   2  14
ATOM     14  C   UNL     1       3.072   4.350  18.472  0.00  0.00    +0.000 A 
ATOM     15  C   UNL     1       1.914   4.111  17.715  0.00  0.00    +0.000 A 
ATOM     16  C   UNL     1       0.827   3.425  18.269  0.00  0.00    +0.000 A 
ATOM     17  C   UNL     1       0.886   2.958  19.581  0.00  0.00    +0.000 A 
ATOM     18  C   UNL     1       2.036   3.168  20.332  0.00  0.00    +0.000 A 
ATOM     19 CL   UNL     1       2.103   2.657  21.973  0.00  0.00    +0.000 Cl
ATOM     20  C   UNL     1       3.118   3.853  19.786  0.00  0.00    +0.000 A 
ENDBRANCH   2  14
TORSDOF 2
ENDMDL
