MODEL 1
REMARK VINA RESULT:      -7.2      0.000      0.000
REMARK  Name = 
REMARK  4 active torsions:
REMARK  status: ('A' for Active; 'I' for Inactive)
REMARK    1  A    between atoms: C_2  and  C_5
REMARK    2  A    between atoms: C_8  and  N_9
REMARK    3  A    between atoms: C_12  and  C_13
REMARK    4  A    between atoms: C_13  and  C_14
REMARK                            x       y       z     vdW  Elec       q    Type
REMARK                         _______ _______ _______ _____ _____    ______ ____
ROOT
ATOM      1  N   UNL     1       2.843   6.728  18.285  0.00  0.00    +0.000 N 
ATOM      2  C   UNL     1       2.378   5.337  18.319  0.00  0.00    +0.000 C 
ATOM      3  C   UNL     1       3.490   4.472  18.902  0.00  0.00    +0.000 C 
ATOM      4  C   UNL     1       4.782   4.589  18.070  0.00  0.00    +0.000 C 
ATOM      5  C   UNL     1       5.184   6.076  17.981  0.00  0.00    +0.000 C 
ATOM      6  C   UNL     1       4.046   6.985  17.492  0.00  0.00    +0.000 C 
ENDROOT
BRANCH   1  10
ATOM      7  C   UNL     1       0.652   9.786  20.234  0.00  0.00    +0.000 A 
ATOM      8  C   UNL     1       1.075   8.651  20.927  0.00  0.00    +0.000 A 
ATOM      9  C   UNL     1       1.803   7.652  20.272  0.00  0.00    +0.000 A 
ATOM     10  C   UNL     1       2.132   7.734  18.910  0.00  0.00    +0.000 A 
ATOM     11  C   UNL     1       1.707   8.885  18.233  0.00  0.00    +0.000 A 
ATOM     12  C   UNL     1       0.979   9.895  18.877  0.00  0.00    +0.000 A 
BRANCH   7  14
ATOM     13  F   UNL     1      -1.123  11.403  20.146  0.00  0.00    +0.000 F 
ATOM     14  C   UNL     1      -0.138  10.868  20.924  0.00  0.00    +0.000 C 
ATOM     15  F   UNL     1       0.639  11.917  21.311  0.00  0.00    +0.000 F 
ATOM     16  F   UNL     1      -0.757  10.424  22.053  0.00  0.00    +0.000 F 
ENDBRANCH   7  14
ENDBRANCH   1  10
BRANCH   4  17
ATOM     17  C   UNL     1       4.664   3.970  16.660  0.00  0.00    +0.000 C 
BRANCH  17  18
ATOM     18  C   UNL     1       5.773   4.366  15.748  0.00  0.00    +0.000 A 
ATOM     19  C   UNL     1       7.071   4.712  16.053  0.00  0.00    +0.000 A 
ATOM     20  N   UNL     1       7.667   4.975  14.850  0.00  0.00    +0.000 N 
ATOM     21  C   UNL     1       6.728   4.784  13.876  0.00  0.00    +0.000 A 
ATOM     22  N   UNL     1       5.574   4.425  14.387  0.00  0.00    +0.000 NA
ATOM     23  H   UNL     1       8.626   5.254  14.701  0.00  0.00    +0.000 HD
ENDBRANCH  17  18
ENDBRANCH   4  17
TORSDOF 4
ENDMDL
MODEL 2
REMARK VINA RESULT:      -7.2      1.355      2.395
REMARK  Name = 
REMARK  4 active torsions:
REMARK  status: ('A' for Active; 'I' for Inactive)
REMARK    1  A    between atoms: C_2  and  C_5
REMARK    2  A    between atoms: C_8  and  N_9
REMARK    3  A    between atoms: C_12  and  C_13
REMARK    4  A    between atoms: C_13  and  C_14
REMARK                            x       y       z     vdW  Elec       q    Type
REMARK                         _______ _______ _______ _____ _____    ______ ____
ROOT
ATOM      1  N   UNL     1       2.441   6.649  19.495  0.00  0.00    +0.000 N 
ATOM      2  C   UNL     1       3.728   6.794  18.806  0.00  0.00    +0.000 C 
ATOM      3  C   UNL     1       3.603   6.173  17.419  0.00  0.00    +0.000 C 
ATOM      4  C   UNL     1       3.203   4.688  17.505  0.00  0.00    +0.000 C 
ATOM      5  C   UNL     1       1.896   4.572  18.317  0.00  0.00    +0.000 C 
ATOM      6  C   UNL     1       1.962   5.279  19.680  0.00  0.00    +0.000 C 
ENDROOT
BRANCH   1  10
ATOM      7  C   UNL     1       0.406  10.044  21.005  0.00  0.00    +0.000 A 
ATOM      8  C   UNL     1       0.884  10.016  19.694  0.00  0.00    +0.000 A 
ATOM      9  C   UNL     1       1.549   8.886  19.207  0.00  0.00    +0.000 A 
ATOM     10  C   UNL     1       1.773   7.748  19.998  0.00  0.00    +0.000 A 
ATOM     11  C   UNL     1       1.277   7.791  21.308  0.00  0.00    +0.000 A 
ATOM     12  C   UNL     1       0.607   8.916  21.809  0.00  0.00    +0.000 A 
BRANCH   7  14
ATOM     13  F   UNL     1       0.400  12.413  21.402  0.00  0.00    +0.000 F 
ATOM     14  C   UNL     1      -0.307  11.256  21.547  0.00  0.00    +0.000 C 
ATOM     15  F   UNL     1      -0.578  11.152  22.877  0.00  0.00    +0.000 F 
ATOM     16  F   UNL     1      -1.504  11.474  20.937  0.00  0.00    +0.000 F 
ENDBRANCH   7  14
ENDBRANCH   1  10
BRANCH   4  17
ATOM     17  C   UNL     1       4.304   3.788  18.111  0.00  0.00    +0.000 C 
BRANCH  17  18
ATOM     18  C   UNL     1       5.676   4.149  17.657  0.00  0.00    +0.000 A 
ATOM     19  C   UNL     1       6.193   4.176  16.381  0.00  0.00    +0.000 A 
ATOM     20  N   UNL     1       7.490   4.585  16.526  0.00  0.00    +0.000 N 
ATOM     21  C   UNL     1       7.711   4.787  17.858  0.00  0.00    +0.000 A 
ATOM     22  N   UNL     1       6.638   4.525  18.567  0.00  0.00    +0.000 NA
ATOM     23  H   UNL     1       8.165   4.720  15.786  0.00  0.00    +0.000 HD
ENDBRANCH  17  18
ENDBRANCH   4  17
TORSDOF 4
ENDMDL
MODEL 3
REMARK VINA RESULT:      -7.2      1.355      2.181
REMARK  Name = 
REMARK  4 active torsions:
REMARK  status: ('A' for Active; 'I' for Inactive)
REMARK    1  A    between atoms: C_2  and  C_5
REMARK    2  A    between atoms: C_8  and  N_9
REMARK    3  A    between atoms: C_12  and  C_13
REMARK    4  A    between atoms: C_13  and  C_14
REMARK                            x       y       z     vdW  Elec       q    Type
REMARK                         _______ _______ _______ _____ _____    ______ ____
ROOT
ATOM      1  N   UNL     1       2.441   6.660  19.498  0.00  0.00    +0.000 N 
ATOM      2  C   UNL     1       3.718   6.795  18.788  0.00  0.00    +0.000 C 
ATOM      3  C   UNL     1       3.575   6.148  17.415  0.00  0.00    +0.000 C 
ATOM      4  C   UNL     1       3.180   4.663  17.535  0.00  0.00    +0.000 C 
ATOM      5  C   UNL     1       1.885   4.560  18.367  0.00  0.00    +0.000 C 
ATOM      6  C   UNL     1       1.968   5.292  19.715  0.00  0.00    +0.000 C 
ENDROOT
BRANCH   1  10
ATOM      7  C   UNL     1       0.387  10.029  21.039  0.00  0.00    +0.000 A 
ATOM      8  C   UNL     1       0.615   8.903  21.830  0.00  0.00    +0.000 A 
ATOM      9  C   UNL     1       1.300   7.799  21.310  0.00  0.00    +0.000 A 
ATOM     10  C   UNL     1       1.777   7.766  19.990  0.00  0.00    +0.000 A 
ATOM     11  C   UNL     1       1.547   8.911  19.214  0.00  0.00    +0.000 A 
ATOM     12  C   UNL     1       0.864  10.024  19.723  0.00  0.00    +0.000 A 
BRANCH   7  14
ATOM     13  F   UNL     1       0.365  12.381  21.531  0.00  0.00    +0.000 F 
ATOM     14  C   UNL     1      -0.354  11.223  21.583  0.00  0.00    +0.000 C 
ATOM     15  F   UNL     1      -0.712  11.068  22.888  0.00  0.00    +0.000 F 
ATOM     16  F   UNL     1      -1.509  11.473  20.907  0.00  0.00    +0.000 F 
ENDBRANCH   7  14
ENDBRANCH   1  10
BRANCH   4  17
ATOM     17  C   UNL     1       4.291   3.778  18.141  0.00  0.00    +0.000 C 
BRANCH  17  18
ATOM     18  C   UNL     1       5.656   4.140  17.670  0.00  0.00    +0.000 A 
ATOM     19  C   UNL     1       6.160   4.157  16.388  0.00  0.00    +0.000 A 
ATOM     20  N   UNL     1       7.457   4.572  16.515  0.00  0.00    +0.000 N 
ATOM     21  C   UNL     1       7.691   4.788  17.843  0.00  0.00    +0.000 A 
ATOM     22  N   UNL     1       6.627   4.527  18.566  0.00  0.00    +0.000 NA
ATOM     23  H   UNL     1       8.123   4.703  15.767  0.00  0.00    +0.000 HD
ENDBRANCH  17  18
ENDBRANCH   4  17
TORSDOF 4
ENDMDL
MODEL 4
REMARK VINA RESULT:      -7.2      0.387      1.341
REMARK  Name = 
REMARK  4 active torsions:
REMARK  status: ('A' for Active; 'I' for Inactive)
REMARK    1  A    between atoms: C_2  and  C_5
REMARK    2  A    between atoms: C_8  and  N_9
REMARK    3  A    between atoms: C_12  and  C_13
REMARK    4  A    between atoms: C_13  and  C_14
REMARK                            x       y       z     vdW  Elec       q    Type
REMARK                         _______ _______ _______ _____ _____    ______ ____
ROOT
ATOM      1  N   UNL     1       2.920   6.623  18.215  0.00  0.00    +0.000 N 
ATOM      2  C   UNL     1       2.407   5.251  18.294  0.00  0.00    +0.000 C 
ATOM      3  C   UNL     1       3.452   4.387  18.992  0.00  0.00    +0.000 C 
ATOM      4  C   UNL     1       4.796   4.417  18.239  0.00  0.00    +0.000 C 
ATOM      5  C   UNL     1       5.252   5.884  18.096  0.00  0.00    +0.000 C 
ATOM      6  C   UNL     1       4.178   6.798  17.488  0.00  0.00    +0.000 C 
ENDROOT
BRANCH   1  10
ATOM      7  C   UNL     1       0.744   9.901  19.786  0.00  0.00    +0.000 A 
ATOM      8  C   UNL     1       1.108   9.859  18.440  0.00  0.00    +0.000 A 
ATOM      9  C   UNL     1       1.822   8.767  17.934  0.00  0.00    +0.000 A 
ATOM     10  C   UNL     1       2.207   7.684  18.739  0.00  0.00    +0.000 A 
ATOM     11  C   UNL     1       1.823   7.739  20.086  0.00  0.00    +0.000 A 
ATOM     12  C   UNL     1       1.106   8.826  20.606  0.00  0.00    +0.000 A 
BRANCH   7  14
ATOM     13  F   UNL     1      -0.778  10.756  21.437  0.00  0.00    +0.000 F 
ATOM     14  C   UNL     1      -0.020  11.072  20.348  0.00  0.00    +0.000 C 
ATOM     15  F   UNL     1      -0.879  11.619  19.445  0.00  0.00    +0.000 F 
ATOM     16  F   UNL     1       0.798  12.086  20.747  0.00  0.00    +0.000 F 
ENDBRANCH   7  14
ENDBRANCH   1  10
BRANCH   4  17
ATOM     17  C   UNL     1       4.744   3.724  16.859  0.00  0.00    +0.000 C 
BRANCH  17  18
ATOM     18  C   UNL     1       5.827   4.166  15.937  0.00  0.00    +0.000 A 
ATOM     19  C   UNL     1       7.159   4.397  16.204  0.00  0.00    +0.000 A 
ATOM     20  N   UNL     1       7.706   4.771  15.008  0.00  0.00    +0.000 N 
ATOM     21  C   UNL     1       6.708   4.756  14.076  0.00  0.00    +0.000 A 
ATOM     22  N   UNL     1       5.561   4.403  14.607  0.00  0.00    +0.000 NA
ATOM     23  H   UNL     1       8.672   5.011  14.837  0.00  0.00    +0.000 HD
ENDBRANCH  17  18
ENDBRANCH   4  17
TORSDOF 4
ENDMDL
MODEL 5
REMARK VINA RESULT:      -7.2      4.907      8.196
REMARK  Name = 
REMARK  4 active torsions:
REMARK  status: ('A' for Active; 'I' for Inactive)
REMARK    1  A    between atoms: C_2  and  C_5
REMARK    2  A    between atoms: C_8  and  N_9
REMARK    3  A    between atoms: C_12  and  C_13
REMARK    4  A    between atoms: C_13  and  C_14
REMARK                            x       y       z     vdW  Elec       q    Type
REMARK                         _______ _______ _______ _____ _____    ______ ____
ROOT
ATOM      1  N   UNL     1       1.829   7.971  19.489  0.00  0.00    +0.000 N 
ATOM      2  C   UNL     1       1.463   8.565  20.779  0.00  0.00    +0.000 C 
ATOM      3  C   UNL     1       0.131   9.290  20.613  0.00  0.00    +0.000 C 
ATOM      4  C   UNL     1       0.218  10.377  19.525  0.00  0.00    +0.000 C 
ATOM      5  C   UNL     1       0.696   9.726  18.210  0.00  0.00    +0.000 C 
ATOM      6  C   UNL     1       1.984   8.904  18.372  0.00  0.00    +0.000 C 
ENDROOT
BRANCH   1  10
ATOM      7  C   UNL     1       2.603   3.818  19.174  0.00  0.00    +0.000 A 
ATOM      8  C   UNL     1       2.153   4.376  20.370  0.00  0.00    +0.000 A 
ATOM      9  C   UNL     1       1.896   5.749  20.458  0.00  0.00    +0.000 A 
ATOM     10  C   UNL     1       2.081   6.618  19.372  0.00  0.00    +0.000 A 
ATOM     11  C   UNL     1       2.523   6.037  18.175  0.00  0.00    +0.000 A 
ATOM     12  C   UNL     1       2.784   4.663  18.073  0.00  0.00    +0.000 A 
BRANCH   7  14
ATOM     13  F   UNL     1       3.963   1.941  19.806  0.00  0.00    +0.000 F 
ATOM     14  C   UNL     1       2.891   2.342  19.065  0.00  0.00    +0.000 C 
ATOM     15  F   UNL     1       3.158   1.954  17.787  0.00  0.00    +0.000 F 
ATOM     16  F   UNL     1       1.845   1.574  19.477  0.00  0.00    +0.000 F 
ENDBRANCH   7  14
ENDBRANCH   1  10
BRANCH   4  17
ATOM     17  C   UNL     1       1.130  11.563  19.909  0.00  0.00    +0.000 C 
BRANCH  17  18
ATOM     18  C   UNL     1       0.630  12.875  19.414  0.00  0.00    +0.000 A 
ATOM     19  C   UNL     1      -0.609  13.202  18.908  0.00  0.00    +0.000 A 
ATOM     20  N   UNL     1      -0.539  14.536  18.615  0.00  0.00    +0.000 N 
ATOM     21  C   UNL     1       0.715  14.964  18.946  0.00  0.00    +0.000 A 
ATOM     22  N   UNL     1       1.446  13.984  19.423  0.00  0.00    +0.000 NA
ATOM     23  H   UNL     1      -1.277  15.107  18.229  0.00  0.00    +0.000 HD
ENDBRANCH  17  18
ENDBRANCH   4  17
TORSDOF 4
ENDMDL
MODEL 6
REMARK VINA RESULT:      -7.2      4.904      8.241
REMARK  Name = 
REMARK  4 active torsions:
REMARK  status: ('A' for Active; 'I' for Inactive)
REMARK    1  A    between atoms: C_2  and  C_5
REMARK    2  A    between atoms: C_8  and  N_9
REMARK    3  A    between atoms: C_12  and  C_13
REMARK    4  A    between atoms: C_13  and  C_14
REMARK                            x       y       z     vdW  Elec       q    Type
REMARK                         _______ _______ _______ _____ _____    ______ ____
ROOT
ATOM      1  N   UNL     1       1.849   7.894  19.579  0.00  0.00    +0.000 N 
ATOM      2  C   UNL     1       1.474   8.459  20.880  0.00  0.00    +0.000 C 
ATOM      3  C   UNL     1       0.130   9.164  20.727  0.00  0.00    +0.000 C 
ATOM      4  C   UNL     1       0.198  10.271  19.658  0.00  0.00    +0.000 C 
ATOM      5  C   UNL     1       0.687   9.652  18.332  0.00  0.00    +0.000 C 
ATOM      6  C   UNL     1       1.988   8.849  18.479  0.00  0.00    +0.000 C 
ENDROOT
BRANCH   1  10
ATOM      7  C   UNL     1       2.696   3.770  19.103  0.00  0.00    +0.000 A 
ATOM      8  C   UNL     1       3.012   4.689  18.102  0.00  0.00    +0.000 A 
ATOM      9  C   UNL     1       2.732   6.049  18.275  0.00  0.00    +0.000 A 
ATOM     10  C   UNL     1       2.124   6.547  19.438  0.00  0.00    +0.000 A 
ATOM     11  C   UNL     1       1.824   5.611  20.436  0.00  0.00    +0.000 A 
ATOM     12  C   UNL     1       2.100   4.245  20.277  0.00  0.00    +0.000 A 
BRANCH   7  14
ATOM     13  F   UNL     1       3.336   1.962  17.655  0.00  0.00    +0.000 F 
ATOM     14  C   UNL     1       2.986   2.301  18.929  0.00  0.00    +0.000 C 
ATOM     15  F   UNL     1       1.917   1.517  19.239  0.00  0.00    +0.000 F 
ATOM     16  F   UNL     1       4.006   1.872  19.721  0.00  0.00    +0.000 F 
ENDBRANCH   7  14
ENDBRANCH   1  10
BRANCH   4  17
ATOM     17  C   UNL     1       1.090  11.465  20.064  0.00  0.00    +0.000 C 
BRANCH  17  18
ATOM     18  C   UNL     1       0.629  12.764  19.500  0.00  0.00    +0.000 A 
ATOM     19  C   UNL     1      -0.598  13.097  18.968  0.00  0.00    +0.000 A 
ATOM     20  N   UNL     1      -0.491  14.412  18.609  0.00  0.00    +0.000 N 
ATOM     21  C   UNL     1       0.772  14.824  18.928  0.00  0.00    +0.000 A 
ATOM     22  N   UNL     1       1.474  13.850  19.459  0.00  0.00    +0.000 NA
ATOM     23  H   UNL     1      -1.211  14.983  18.190  0.00  0.00    +0.000 HD
ENDBRANCH  17  18
ENDBRANCH   4  17
TORSDOF 4
ENDMDL
MODEL 7
REMARK VINA RESULT:      -7.2      0.641      1.432
REMARK  Name = 
REMARK  4 active torsions:
REMARK  status: ('A' for Active; 'I' for Inactive)
REMARK    1  A    between atoms: C_2  and  C_5
REMARK    2  A    between atoms: C_8  and  N_9
REMARK    3  A    between atoms: C_12  and  C_13
REMARK    4  A    between atoms: C_13  and  C_14
REMARK                            x       y       z     vdW  Elec       q    Type
REMARK                         _______ _______ _______ _____ _____    ______ ____
ROOT
ATOM      1  N   UNL     1       2.685   7.001  18.767  0.00  0.00    +0.000 N 
ATOM      2  C   UNL     1       2.651   5.587  19.156  0.00  0.00    +0.000 C 
ATOM      3  C   UNL     1       4.075   5.142  19.476  0.00  0.00    +0.000 C 
ATOM      4  C   UNL     1       5.008   5.346  18.267  0.00  0.00    +0.000 C 
ATOM      5  C   UNL     1       4.942   6.825  17.832  0.00  0.00    +0.000 C 
ATOM      6  C   UNL     1       3.509   7.327  17.602  0.00  0.00    +0.000 C 
ENDROOT
BRANCH   1  10
ATOM      7  C   UNL     1       0.348   9.917  20.761  0.00  0.00    +0.000 A 
ATOM      8  C   UNL     1       0.705  10.075  19.422  0.00  0.00    +0.000 A 
ATOM      9  C   UNL     1       1.473   9.101  18.775  0.00  0.00    +0.000 A 
ATOM     10  C   UNL     1       1.920   7.942  19.427  0.00  0.00    +0.000 A 
ATOM     11  C   UNL     1       1.542   7.795  20.769  0.00  0.00    +0.000 A 
ATOM     12  C   UNL     1       0.772   8.763  21.430  0.00  0.00    +0.000 A 
BRANCH   7  14
ATOM     13  F   UNL     1       0.227  12.090  21.778  0.00  0.00    +0.000 F 
ATOM     14  C   UNL     1      -0.473  10.960  21.475  0.00  0.00    +0.000 C 
ATOM     15  F   UNL     1      -0.979  10.510  22.657  0.00  0.00    +0.000 F 
ATOM     16  F   UNL     1      -1.545  11.372  20.743  0.00  0.00    +0.000 F 
ENDBRANCH   7  14
ENDBRANCH   1  10
BRANCH   4  17
ATOM     17  C   UNL     1       4.690   4.412  17.078  0.00  0.00    +0.000 C 
BRANCH  17  18
ATOM     18  C   UNL     1       5.701   4.482  15.987  0.00  0.00    +0.000 A 
ATOM     19  C   UNL     1       7.054   4.725  16.067  0.00  0.00    +0.000 A 
ATOM     20  N   UNL     1       7.508   4.668  14.778  0.00  0.00    +0.000 N 
ATOM     21  C   UNL     1       6.435   4.398  13.976  0.00  0.00    +0.000 A 
ATOM     22  N   UNL     1       5.330   4.289  14.676  0.00  0.00    +0.000 NA
ATOM     23  H   UNL     1       8.461   4.795  14.469  0.00  0.00    +0.000 HD
ENDBRANCH  17  18
ENDBRANCH   4  17
TORSDOF 4
ENDMDL
MODEL 8
REMARK VINA RESULT:      -7.1      4.821      8.210
REMARK  Name = 
REMARK  4 active torsions:
REMARK  status: ('A' for Active; 'I' for Inactive)
REMARK    1  A    between atoms: C_2  and  C_5
REMARK    2  A    between atoms: C_8  and  N_9
REMARK    3  A    between atoms: C_12  and  C_13
REMARK    4  A    between atoms: C_13  and  C_14
REMARK                            x       y       z     vdW  Elec       q    Type
REMARK                         _______ _______ _______ _____ _____    ______ ____
ROOT
ATOM      1  N   UNL     1       2.247   7.586  18.519  0.00  0.00    +0.000 N 
ATOM      2  C   UNL     1       1.584   8.628  17.727  0.00  0.00    +0.000 C 
ATOM      3  C   UNL     1       1.692   9.947  18.484  0.00  0.00    +0.000 C 
ATOM      4  C   UNL     1       1.053   9.844  19.882  0.00  0.00    +0.000 C 
ATOM      5  C   UNL     1       1.714   8.677  20.646  0.00  0.00    +0.000 C 
ATOM      6  C   UNL     1       1.709   7.357  19.860  0.00  0.00    +0.000 C 
ENDROOT
BRANCH   1  10
ATOM      7  C   UNL     1       5.389   5.285  16.851  0.00  0.00    +0.000 A 
ATOM      8  C   UNL     1       5.283   6.652  16.590  0.00  0.00    +0.000 A 
ATOM      9  C   UNL     1       4.243   7.400  17.153  0.00  0.00    +0.000 A 
ATOM     10  C   UNL     1       3.269   6.825  17.985  0.00  0.00    +0.000 A 
ATOM     11  C   UNL     1       3.399   5.454  18.243  0.00  0.00    +0.000 A 
ATOM     12  C   UNL     1       4.437   4.692  17.687  0.00  0.00    +0.000 A 
BRANCH   7  14
ATOM     13  F   UNL     1       6.074   3.285  15.711  0.00  0.00    +0.000 F 
ATOM     14  C   UNL     1       6.499   4.464  16.248  0.00  0.00    +0.000 C 
ATOM     15  F   UNL     1       7.458   4.132  17.156  0.00  0.00    +0.000 F 
ATOM     16  F   UNL     1       7.146   5.117  15.243  0.00  0.00    +0.000 F 
ENDBRANCH   7  14
ENDBRANCH   1  10
BRANCH   4  17
ATOM     17  C   UNL     1      -0.481   9.673  19.847  0.00  0.00    +0.000 C 
BRANCH  17  18
ATOM     18  C   UNL     1      -1.154  10.588  18.883  0.00  0.00    +0.000 A 
ATOM     19  C   UNL     1      -1.222  11.964  18.888  0.00  0.00    +0.000 A 
ATOM     20  N   UNL     1      -1.947  12.294  17.776  0.00  0.00    +0.000 N 
ATOM     21  C   UNL     1      -2.289  11.130  17.148  0.00  0.00    +0.000 A 
ATOM     22  N   UNL     1      -1.832  10.084  17.796  0.00  0.00    +0.000 NA
ATOM     23  H   UNL     1      -2.186  13.225  17.468  0.00  0.00    +0.000 HD
ENDBRANCH  17  18
ENDBRANCH   4  17
TORSDOF 4
ENDMDL
MODEL 9
REMARK VINA RESULT:      -7.1      1.176      1.947
REMARK  Name = 
REMARK  4 active torsions:
REMARK  status: ('A' for Active; 'I' for Inactive)
REMARK    1  A    between atoms: C_2  and  C_5
REMARK    2  A    between atoms: C_8  and  N_9
REMARK    3  A    between atoms: C_12  and  C_13
REMARK    4  A    between atoms: C_13  and  C_14
REMARK                            x       y       z     vdW  Elec       q    Type
REMARK                         _______ _______ _______ _____ _____    ______ ____
ROOT
ATOM      1  N   UNL     1       2.413   6.842  19.613  0.00  0.00    +0.000 N 
ATOM      2  C   UNL     1       3.553   7.038  18.710  0.00  0.00    +0.000 C 
ATOM      3  C   UNL     1       3.318   6.206  17.453  0.00  0.00    +0.000 C 
ATOM      4  C   UNL     1       3.152   4.713  17.794  0.00  0.00    +0.000 C 
ATOM      5  C   UNL     1       2.006   4.561  18.817  0.00  0.00    +0.000 C 
ATOM      6  C   UNL     1       2.167   5.466  20.048  0.00  0.00    +0.000 C 
ENDROOT
BRANCH   1  10
ATOM      7  C   UNL     1       0.129  10.104  21.057  0.00  0.00    +0.000 A 
ATOM      8  C   UNL     1       0.366   8.984  21.854  0.00  0.00    +0.000 A 
ATOM      9  C   UNL     1       1.127   7.916  21.366  0.00  0.00    +0.000 A 
ATOM     10  C   UNL     1       1.674   7.914  20.073  0.00  0.00    +0.000 A 
ATOM     11  C   UNL     1       1.434   9.052  19.292  0.00  0.00    +0.000 A 
ATOM     12  C   UNL     1       0.675  10.130  19.768  0.00  0.00    +0.000 A 
BRANCH   7  14
ATOM     13  F   UNL     1      -1.383  10.976  22.708  0.00  0.00    +0.000 F 
ATOM     14  C   UNL     1      -0.694  11.260  21.566  0.00  0.00    +0.000 C 
ATOM     15  F   UNL     1      -1.626  11.675  20.664  0.00  0.00    +0.000 F 
ATOM     16  F   UNL     1       0.063  12.355  21.851  0.00  0.00    +0.000 F 
ENDBRANCH   7  14
ENDBRANCH   1  10
BRANCH   4  17
ATOM     17  C   UNL     1       4.446   4.054  18.321  0.00  0.00    +0.000 C 
BRANCH  17  18
ATOM     18  C   UNL     1       5.619   4.262  17.429  0.00  0.00    +0.000 A 
ATOM     19  C   UNL     1       6.865   4.767  17.730  0.00  0.00    +0.000 A 
ATOM     20  N   UNL     1       7.563   4.732  16.554  0.00  0.00    +0.000 N 
ATOM     21  C   UNL     1       6.733   4.219  15.599  0.00  0.00    +0.000 A 
ATOM     22  N   UNL     1       5.551   3.933  16.094  0.00  0.00    +0.000 NA
ATOM     23  H   UNL     1       8.519   5.026  16.412  0.00  0.00    +0.000 HD
ENDBRANCH  17  18
ENDBRANCH   4  17
TORSDOF 4
ENDMDL
