MODEL 1
REMARK VINA RESULT:      -6.4      0.000      0.000
REMARK  Name = 
REMARK  6 active torsions:
REMARK  status: ('A' for Active; 'I' for Inactive)
REMARK    1  A    between atoms: C_1  and  C_2
REMARK    2  A    between atoms: C_2  and  C_3
REMARK    3  A    between atoms: C_2  and  O_10
REMARK    4  A    between atoms: C_3  and  N_4
REMARK    5  A    between atoms: O_10  and  C_11
REMARK    6  A    between atoms: C_11  and  C_13
REMARK                            x       y       z     vdW  Elec       q    Type
REMARK                         _______ _______ _______ _____ _____    ______ ____
ROOT
ATOM      1  O   UNL     1       2.668   4.305  18.456  0.00  0.00    +0.000 OA
ENDROOT
BRANCH   1   3
ATOM      2  C   UNL     1       3.425   2.039  18.252  0.00  0.00    +0.000 C 
ATOM      3  C   UNL     1       3.771   3.523  18.135  0.00  0.00    +0.000 C 
BRANCH   3   4
ATOM      4  C   UNL     1       4.280   3.868  16.725  0.00  0.00    +0.000 C 
BRANCH   4   5
ATOM      5  N   UNL     1       4.962   5.187  16.636  0.00  0.00    +0.000 NA
ATOM      6  C   UNL     1       5.503   5.423  15.279  0.00  0.00    +0.000 C 
ATOM      7  C   UNL     1       6.768   4.578  15.022  0.00  0.00    +0.000 C 
ATOM      8  O   UNL     1       7.766   4.843  15.991  0.00  0.00    +0.000 OA
ATOM      9  C   UNL     1       7.275   4.534  17.284  0.00  0.00    +0.000 C 
ATOM     10  C   UNL     1       6.054   5.404  17.614  0.00  0.00    +0.000 C 
ENDBRANCH   4   5
ENDBRANCH   3   4
ENDBRANCH   1   3
BRANCH   1  11
ATOM     11  C   UNL     1       2.629   5.096  19.559  0.00  0.00    +0.000 C 
ATOM     12  O   UNL     1       2.998   4.661  20.645  0.00  0.00    +0.000 OA
BRANCH  11  13
ATOM     13  C   UNL     1       2.277   6.529  19.434  0.00  0.00    +0.000 A 
ATOM     14  C   UNL     1       2.446   7.182  18.201  0.00  0.00    +0.000 A 
ATOM     15  C   UNL     1       2.049   8.509  18.041  0.00  0.00    +0.000 A 
ATOM     16  C   UNL     1       1.493   9.209  19.115  0.00  0.00    +0.000 A 
ATOM     17 BR   UNL     1       0.929  11.017  18.880  0.00  0.00    +0.000 Br
ATOM     18  C   UNL     1       1.344   8.578  20.356  0.00  0.00    +0.000 A 
ATOM     19  C   UNL     1       1.727   7.241  20.516  0.00  0.00    +0.000 A 
ENDBRANCH  11  13
ENDBRANCH   1  11
TORSDOF 5
ENDMDL
MODEL 2
REMARK VINA RESULT:      -6.3      1.219      1.323
REMARK  Name = 
REMARK  6 active torsions:
REMARK  status: ('A' for Active; 'I' for Inactive)
REMARK    1  A    between atoms: C_1  and  C_2
REMARK    2  A    between atoms: C_2  and  C_3
REMARK    3  A    between atoms: C_2  and  O_10
REMARK    4  A    between atoms: C_3  and  N_4
REMARK    5  A    between atoms: O_10  and  C_11
REMARK    6  A    between atoms: C_11  and  C_13
REMARK                            x       y       z     vdW  Elec       q    Type
REMARK                         _______ _______ _______ _____ _____    ______ ____
ROOT
ATOM      1  O   UNL     1       3.526   5.665  19.402  0.00  0.00    +0.000 OA
ENDROOT
BRANCH   1   3
ATOM      2  C   UNL     1       2.256   4.510  17.728  0.00  0.00    +0.000 C 
ATOM      3  C   UNL     1       3.505   4.524  18.609  0.00  0.00    +0.000 C 
BRANCH   3   4
ATOM      4  C   UNL     1       4.787   4.436  17.763  0.00  0.00    +0.000 C 
BRANCH   4   5
ATOM      5  N   UNL     1       4.843   5.421  16.650  0.00  0.00    +0.000 NA
ATOM      6  C   UNL     1       5.418   4.819  15.427  0.00  0.00    +0.000 C 
ATOM      7  C   UNL     1       6.946   4.640  15.552  0.00  0.00    +0.000 C 
ATOM      8  O   UNL     1       7.584   5.874  15.827  0.00  0.00    +0.000 OA
ATOM      9  C   UNL     1       7.094   6.408  17.045  0.00  0.00    +0.000 C 
ATOM     10  C   UNL     1       5.585   6.670  16.944  0.00  0.00    +0.000 C 
ENDBRANCH   4   5
ENDBRANCH   3   4
ENDBRANCH   1   3
BRANCH   1  11
ATOM     11  C   UNL     1       2.420   6.139  20.032  0.00  0.00    +0.000 C 
ATOM     12  O   UNL     1       1.858   5.462  20.887  0.00  0.00    +0.000 OA
BRANCH  11  13
ATOM     13  C   UNL     1       1.969   7.529  19.796  0.00  0.00    +0.000 A 
ATOM     14  C   UNL     1       2.139   8.110  18.528  0.00  0.00    +0.000 A 
ATOM     15  C   UNL     1       1.651   9.390  18.263  0.00  0.00    +0.000 A 
ATOM     16  C   UNL     1       1.002  10.114  19.266  0.00  0.00    +0.000 A 
ATOM     17 BR   UNL     1       0.316  11.855  18.887  0.00  0.00    +0.000 Br
ATOM     18  C   UNL     1       0.850   9.557  20.541  0.00  0.00    +0.000 A 
ATOM     19  C   UNL     1       1.324   8.266  20.806  0.00  0.00    +0.000 A 
ENDBRANCH  11  13
ENDBRANCH   1  11
TORSDOF 5
ENDMDL
MODEL 3
REMARK VINA RESULT:      -6.2      1.106      1.955
REMARK  Name = 
REMARK  6 active torsions:
REMARK  status: ('A' for Active; 'I' for Inactive)
REMARK    1  A    between atoms: C_1  and  C_2
REMARK    2  A    between atoms: C_2  and  C_3
REMARK    3  A    between atoms: C_2  and  O_10
REMARK    4  A    between atoms: C_3  and  N_4
REMARK    5  A    between atoms: O_10  and  C_11
REMARK    6  A    between atoms: C_11  and  C_13
REMARK                            x       y       z     vdW  Elec       q    Type
REMARK                         _______ _______ _______ _____ _____    ______ ____
ROOT
ATOM      1  O   UNL     1       3.687   5.618  18.830  0.00  0.00    +0.000 OA
ENDROOT
BRANCH   1   3
ATOM      2  C   UNL     1       2.017   4.293  17.731  0.00  0.00    +0.000 C 
ATOM      3  C   UNL     1       3.504   4.514  18.007  0.00  0.00    +0.000 C 
BRANCH   3   4
ATOM      4  C   UNL     1       4.295   4.684  16.699  0.00  0.00    +0.000 C 
BRANCH   4   5
ATOM      5  N   UNL     1       5.599   3.967  16.685  0.00  0.00    +0.000 NA
ATOM      6  C   UNL     1       6.618   4.688  17.480  0.00  0.00    +0.000 C 
ATOM      7  C   UNL     1       7.125   5.944  16.740  0.00  0.00    +0.000 C 
ATOM      8  O   UNL     1       7.653   5.609  15.469  0.00  0.00    +0.000 OA
ATOM      9  C   UNL     1       6.649   4.997  14.678  0.00  0.00    +0.000 C 
ATOM     10  C   UNL     1       6.163   3.701  15.341  0.00  0.00    +0.000 C 
ENDBRANCH   4   5
ENDBRANCH   3   4
ENDBRANCH   1   3
BRANCH   1  11
ATOM     11  C   UNL     1       2.723   6.067  19.676  0.00  0.00    +0.000 C 
ATOM     12  O   UNL     1       2.436   5.426  20.681  0.00  0.00    +0.000 OA
BRANCH  11  13
ATOM     13  C   UNL     1       2.115   7.401  19.468  0.00  0.00    +0.000 A 
ATOM     14  C   UNL     1       1.471   8.047  20.536  0.00  0.00    +0.000 A 
ATOM     15  C   UNL     1       0.961   9.336  20.382  0.00  0.00    +0.000 A 
ATOM     16  C   UNL     1       1.072   9.991  19.153  0.00  0.00    +0.000 A 
ATOM     17 BR   UNL     1       0.393  11.765  18.958  0.00  0.00    +0.000 Br
ATOM     18  C   UNL     1       1.688   9.348  18.073  0.00  0.00    +0.000 A 
ATOM     19  C   UNL     1       2.215   8.060  18.228  0.00  0.00    +0.000 A 
ENDBRANCH  11  13
ENDBRANCH   1  11
TORSDOF 5
ENDMDL
MODEL 4
REMARK VINA RESULT:      -6.2      1.144      1.724
REMARK  Name = 
REMARK  6 active torsions:
REMARK  status: ('A' for Active; 'I' for Inactive)
REMARK    1  A    between atoms: C_1  and  C_2
REMARK    2  A    between atoms: C_2  and  C_3
REMARK    3  A    between atoms: C_2  and  O_10
REMARK    4  A    between atoms: C_3  and  N_4
REMARK    5  A    between atoms: O_10  and  C_11
REMARK    6  A    between atoms: C_11  and  C_13
REMARK                            x       y       z     vdW  Elec       q    Type
REMARK                         _______ _______ _______ _____ _____    ______ ____
ROOT
ATOM      1  O   UNL     1       3.175   6.035  18.397  0.00  0.00    +0.000 OA
ENDROOT
BRANCH   1   3
ATOM      2  C   UNL     1       1.833   4.208  17.614  0.00  0.00    +0.000 C 
ATOM      3  C   UNL     1       3.198   4.674  18.120  0.00  0.00    +0.000 C 
BRANCH   3   4
ATOM      4  C   UNL     1       4.309   4.353  17.104  0.00  0.00    +0.000 C 
BRANCH   4   5
ATOM      5  N   UNL     1       5.181   5.513  16.779  0.00  0.00    +0.000 NA
ATOM      6  C   UNL     1       5.602   5.490  15.361  0.00  0.00    +0.000 C 
ATOM      7  C   UNL     1       6.678   4.412  15.110  0.00  0.00    +0.000 C 
ATOM      8  O   UNL     1       7.805   4.612  15.943  0.00  0.00    +0.000 OA
ATOM      9  C   UNL     1       7.415   4.548  17.304  0.00  0.00    +0.000 C 
ATOM     10  C   UNL     1       6.394   5.650  17.620  0.00  0.00    +0.000 C 
ENDBRANCH   4   5
ENDBRANCH   3   4
ENDBRANCH   1   3
BRANCH   1  11
ATOM     11  C   UNL     1       2.433   6.564  19.404  0.00  0.00    +0.000 C 
ATOM     12  O   UNL     1       2.298   5.952  20.459  0.00  0.00    +0.000 OA
BRANCH  11  13
ATOM     13  C   UNL     1       1.902   7.941  19.291  0.00  0.00    +0.000 A 
ATOM     14  C   UNL     1       1.273   8.538  20.396  0.00  0.00    +0.000 A 
ATOM     15  C   UNL     1       0.836   9.861  20.335  0.00  0.00    +0.000 A 
ATOM     16  C   UNL     1       1.005  10.601  19.162  0.00  0.00    +0.000 A 
ATOM     17 BR   UNL     1       0.426  12.419  19.095  0.00  0.00    +0.000 Br
ATOM     18  C   UNL     1       1.606  10.009  18.044  0.00  0.00    +0.000 A 
ATOM     19  C   UNL     1       2.061   8.687  18.108  0.00  0.00    +0.000 A 
ENDBRANCH  11  13
ENDBRANCH   1  11
TORSDOF 5
ENDMDL
MODEL 5
REMARK VINA RESULT:      -6.2      1.894      2.678
REMARK  Name = 
REMARK  6 active torsions:
REMARK  status: ('A' for Active; 'I' for Inactive)
REMARK    1  A    between atoms: C_1  and  C_2
REMARK    2  A    between atoms: C_2  and  C_3
REMARK    3  A    between atoms: C_2  and  O_10
REMARK    4  A    between atoms: C_3  and  N_4
REMARK    5  A    between atoms: O_10  and  C_11
REMARK    6  A    between atoms: C_11  and  C_13
REMARK                            x       y       z     vdW  Elec       q    Type
REMARK                         _______ _______ _______ _____ _____    ______ ____
ROOT
ATOM      1  O   UNL     1       2.569   6.643  18.440  0.00  0.00    +0.000 OA
ENDROOT
BRANCH   1   3
ATOM      2  C   UNL     1       4.002   5.135  19.632  0.00  0.00    +0.000 C 
ATOM      3  C   UNL     1       3.854   6.116  18.470  0.00  0.00    +0.000 C 
BRANCH   3   4
ATOM      4  C   UNL     1       4.188   5.444  17.127  0.00  0.00    +0.000 C 
BRANCH   4   5
ATOM      5  N   UNL     1       5.223   6.163  16.335  0.00  0.00    +0.000 NA
ATOM      6  C   UNL     1       5.638   5.376  15.152  0.00  0.00    +0.000 C 
ATOM      7  C   UNL     1       6.544   4.193  15.553  0.00  0.00    +0.000 C 
ATOM      8  O   UNL     1       7.687   4.641  16.259  0.00  0.00    +0.000 OA
ATOM      9  C   UNL     1       7.289   5.320  17.437  0.00  0.00    +0.000 C 
ATOM     10  C   UNL     1       6.441   6.549  17.085  0.00  0.00    +0.000 C 
ENDBRANCH   4   5
ENDBRANCH   3   4
ENDBRANCH   1   3
BRANCH   1  11
ATOM     11  C   UNL     1       2.328   7.976  18.328  0.00  0.00    +0.000 C 
ATOM     12  O   UNL     1       2.679   8.584  17.323  0.00  0.00    +0.000 OA
BRANCH  11  13
ATOM     13  C   UNL     1       1.515   8.671  19.351  0.00  0.00    +0.000 A 
ATOM     14  C   UNL     1       1.478   8.176  20.666  0.00  0.00    +0.000 A 
ATOM     15  C   UNL     1       0.781   8.861  21.662  0.00  0.00    +0.000 A 
ATOM     16  C   UNL     1       0.096  10.039  21.355  0.00  0.00    +0.000 A 
ATOM     17 BR   UNL     1      -0.834  10.982  22.729  0.00  0.00    +0.000 Br
ATOM     18  C   UNL     1       0.103  10.528  20.043  0.00  0.00    +0.000 A 
ATOM     19  C   UNL     1       0.815   9.853  19.044  0.00  0.00    +0.000 A 
ENDBRANCH  11  13
ENDBRANCH   1  11
TORSDOF 5
ENDMDL
MODEL 6
REMARK VINA RESULT:      -6.1      0.749      1.335
REMARK  Name = 
REMARK  6 active torsions:
REMARK  status: ('A' for Active; 'I' for Inactive)
REMARK    1  A    between atoms: C_1  and  C_2
REMARK    2  A    between atoms: C_2  and  C_3
REMARK    3  A    between atoms: C_2  and  O_10
REMARK    4  A    between atoms: C_3  and  N_4
REMARK    5  A    between atoms: O_10  and  C_11
REMARK    6  A    between atoms: C_11  and  C_13
REMARK                            x       y       z     vdW  Elec       q    Type
REMARK                         _______ _______ _______ _____ _____    ______ ____
ROOT
ATOM      1  O   UNL     1       2.389   4.600  18.531  0.00  0.00    +0.000 OA
ENDROOT
BRANCH   1   3
ATOM      2  C   UNL     1       2.951   2.487  17.547  0.00  0.00    +0.000 C 
ATOM      3  C   UNL     1       3.456   3.808  18.126  0.00  0.00    +0.000 C 
BRANCH   3   4
ATOM      4  C   UNL     1       4.328   4.566  17.110  0.00  0.00    +0.000 C 
BRANCH   4   5
ATOM      5  N   UNL     1       5.649   3.929  16.857  0.00  0.00    +0.000 NA
ATOM      6  C   UNL     1       6.737   4.655  17.549  0.00  0.00    +0.000 C 
ATOM      7  C   UNL     1       7.068   5.985  16.839  0.00  0.00    +0.000 C 
ATOM      8  O   UNL     1       7.419   5.767  15.484  0.00  0.00    +0.000 OA
ATOM      9  C   UNL     1       6.342   5.150  14.801  0.00  0.00    +0.000 C 
ATOM     10  C   UNL     1       6.022   3.787  15.430  0.00  0.00    +0.000 C 
ENDBRANCH   4   5
ENDBRANCH   3   4
ENDBRANCH   1   3
BRANCH   1  11
ATOM     11  C   UNL     1       2.457   5.423  19.610  0.00  0.00    +0.000 C 
ATOM     12  O   UNL     1       2.906   5.010  20.675  0.00  0.00    +0.000 OA
BRANCH  11  13
ATOM     13  C   UNL     1       2.127   6.859  19.471  0.00  0.00    +0.000 A 
ATOM     14  C   UNL     1       2.326   7.503  18.238  0.00  0.00    +0.000 A 
ATOM     15  C   UNL     1       1.949   8.834  18.064  0.00  0.00    +0.000 A 
ATOM     16  C   UNL     1       1.383   9.547  19.124  0.00  0.00    +0.000 A 
ATOM     17 BR   UNL     1       0.847  11.361  18.868  0.00  0.00    +0.000 Br
ATOM     18  C   UNL     1       1.203   8.925  20.365  0.00  0.00    +0.000 A 
ATOM     19  C   UNL     1       1.566   7.584  20.539  0.00  0.00    +0.000 A 
ENDBRANCH  11  13
ENDBRANCH   1  11
TORSDOF 5
ENDMDL
MODEL 7
REMARK VINA RESULT:      -6.1      3.358      6.148
REMARK  Name = 
REMARK  6 active torsions:
REMARK  status: ('A' for Active; 'I' for Inactive)
REMARK    1  A    between atoms: C_1  and  C_2
REMARK    2  A    between atoms: C_2  and  C_3
REMARK    3  A    between atoms: C_2  and  O_10
REMARK    4  A    between atoms: C_3  and  N_4
REMARK    5  A    between atoms: O_10  and  C_11
REMARK    6  A    between atoms: C_11  and  C_13
REMARK                            x       y       z     vdW  Elec       q    Type
REMARK                         _______ _______ _______ _____ _____    ______ ____
ROOT
ATOM      1  O   UNL     1       4.612   5.562  19.328  0.00  0.00    +0.000 OA
ENDROOT
BRANCH   1   3
ATOM      2  C   UNL     1       3.227   7.027  18.030  0.00  0.00    +0.000 C 
ATOM      3  C   UNL     1       3.291   5.879  19.036  0.00  0.00    +0.000 C 
BRANCH   3   4
ATOM      4  C   UNL     1       2.545   4.638  18.514  0.00  0.00    +0.000 C 
BRANCH   4   5
ATOM      5  N   UNL     1       1.279   4.347  19.238  0.00  0.00    +0.000 NA
ATOM      6  C   UNL     1       1.388   4.691  20.673  0.00  0.00    +0.000 C 
ATOM      7  C   UNL     1       2.244   3.658  21.437  0.00  0.00    +0.000 C 
ATOM      8  O   UNL     1       1.715   2.352  21.294  0.00  0.00    +0.000 OA
ATOM      9  C   UNL     1       1.692   1.990  19.924  0.00  0.00    +0.000 C 
ATOM     10  C   UNL     1       0.794   2.951  19.133  0.00  0.00    +0.000 C 
ENDBRANCH   4   5
ENDBRANCH   3   4
ENDBRANCH   1   3
BRANCH   1  11
ATOM     11  C   UNL     1       5.232   4.468  18.814  0.00  0.00    +0.000 C 
ATOM     12  O   UNL     1       5.220   3.406  19.429  0.00  0.00    +0.000 OA
BRANCH  11  13
ATOM     13  C   UNL     1       5.799   4.509  17.448  0.00  0.00    +0.000 A 
ATOM     14  C   UNL     1       5.109   3.898  16.388  0.00  0.00    +0.000 A 
ATOM     15  C   UNL     1       5.587   3.993  15.081  0.00  0.00    +0.000 A 
ATOM     16  C   UNL     1       6.771   4.685  14.817  0.00  0.00    +0.000 A 
ATOM     17 BR   UNL     1       7.405   4.831  13.022  0.00  0.00    +0.000 Br
ATOM     18  C   UNL     1       7.483   5.277  15.868  0.00  0.00    +0.000 A 
ATOM     19  C   UNL     1       6.997   5.197  17.178  0.00  0.00    +0.000 A 
ENDBRANCH  11  13
ENDBRANCH   1  11
TORSDOF 5
ENDMDL
MODEL 8
REMARK VINA RESULT:      -6.0      1.895      3.824
REMARK  Name = 
REMARK  6 active torsions:
REMARK  status: ('A' for Active; 'I' for Inactive)
REMARK    1  A    between atoms: C_1  and  C_2
REMARK    2  A    between atoms: C_2  and  C_3
REMARK    3  A    between atoms: C_2  and  O_10
REMARK    4  A    between atoms: C_3  and  N_4
REMARK    5  A    between atoms: O_10  and  C_11
REMARK    6  A    between atoms: C_11  and  C_13
REMARK                            x       y       z     vdW  Elec       q    Type
REMARK                         _______ _______ _______ _____ _____    ______ ____
ROOT
ATOM      1  O   UNL     1       5.097   6.049  18.144  0.00  0.00    +0.000 OA
ENDROOT
BRANCH   1   3
ATOM      2  C   UNL     1       6.923   4.563  17.689  0.00  0.00    +0.000 C 
ATOM      3  C   UNL     1       5.408   4.768  17.704  0.00  0.00    +0.000 C 
BRANCH   3   4
ATOM      4  C   UNL     1       4.711   3.716  18.584  0.00  0.00    +0.000 C 
BRANCH   4   5
ATOM      5  N   UNL     1       3.875   2.751  17.822  0.00  0.00    +0.000 NA
ATOM      6  C   UNL     1       2.806   3.444  17.068  0.00  0.00    +0.000 C 
ATOM      7  C   UNL     1       1.676   3.922  18.004  0.00  0.00    +0.000 C 
ATOM      8  O   UNL     1       1.127   2.840  18.735  0.00  0.00    +0.000 OA
ATOM      9  C   UNL     1       2.135   2.232  19.524  0.00  0.00    +0.000 C 
ATOM     10  C   UNL     1       3.251   1.676  18.628  0.00  0.00    +0.000 C 
ENDBRANCH   4   5
ENDBRANCH   3   4
ENDBRANCH   1   3
BRANCH   1  11
ATOM     11  C   UNL     1       4.241   6.864  17.473  0.00  0.00    +0.000 C 
ATOM     12  O   UNL     1       4.303   6.954  16.252  0.00  0.00    +0.000 OA
BRANCH  11  13
ATOM     13  C   UNL     1       3.136   7.535  18.195  0.00  0.00    +0.000 A 
ATOM     14  C   UNL     1       2.771   7.091  19.477  0.00  0.00    +0.000 A 
ATOM     15  C   UNL     1       1.786   7.759  20.205  0.00  0.00    +0.000 A 
ATOM     16  C   UNL     1       1.141   8.869  19.656  0.00  0.00    +0.000 A 
ATOM     17 BR   UNL     1      -0.188   9.791  20.670  0.00  0.00    +0.000 Br
ATOM     18  C   UNL     1       1.477   9.306  18.370  0.00  0.00    +0.000 A 
ATOM     19  C   UNL     1       2.476   8.648  17.642  0.00  0.00    +0.000 A 
ENDBRANCH  11  13
ENDBRANCH   1  11
TORSDOF 5
ENDMDL
MODEL 9
REMARK VINA RESULT:      -6.0      1.872      2.565
REMARK  Name = 
REMARK  6 active torsions:
REMARK  status: ('A' for Active; 'I' for Inactive)
REMARK    1  A    between atoms: C_1  and  C_2
REMARK    2  A    between atoms: C_2  and  C_3
REMARK    3  A    between atoms: C_2  and  O_10
REMARK    4  A    between atoms: C_3  and  N_4
REMARK    5  A    between atoms: O_10  and  C_11
REMARK    6  A    between atoms: C_11  and  C_13
REMARK                            x       y       z     vdW  Elec       q    Type
REMARK                         _______ _______ _______ _____ _____    ______ ____
ROOT
ATOM      1  O   UNL     1       2.390   6.604  18.385  0.00  0.00    +0.000 OA
ENDROOT
BRANCH   1   3
ATOM      2  C   UNL     1       3.026   4.948  19.997  0.00  0.00    +0.000 C 
ATOM      3  C   UNL     1       3.485   5.966  18.954  0.00  0.00    +0.000 C 
BRANCH   3   4
ATOM      4  C   UNL     1       4.343   5.300  17.865  0.00  0.00    +0.000 C 
BRANCH   4   5
ATOM      5  N   UNL     1       5.318   6.220  17.220  0.00  0.00    +0.000 NA
ATOM      6  C   UNL     1       5.396   5.986  15.761  0.00  0.00    +0.000 C 
ATOM      7  C   UNL     1       6.170   4.690  15.439  0.00  0.00    +0.000 C 
ATOM      8  O   UNL     1       7.473   4.723  15.992  0.00  0.00    +0.000 OA
ATOM      9  C   UNL     1       7.395   4.860  17.400  0.00  0.00    +0.000 C 
ATOM     10  C   UNL     1       6.693   6.174  17.770  0.00  0.00    +0.000 C 
ENDBRANCH   4   5
ENDBRANCH   3   4
ENDBRANCH   1   3
BRANCH   1  11
ATOM     11  C   UNL     1       2.268   7.957  18.352  0.00  0.00    +0.000 C 
ATOM     12  O   UNL     1       2.638   8.587  17.367  0.00  0.00    +0.000 OA
BRANCH  11  13
ATOM     13  C   UNL     1       1.558   8.664  19.442  0.00  0.00    +0.000 A 
ATOM     14  C   UNL     1       0.870   9.857  19.164  0.00  0.00    +0.000 A 
ATOM     15  C   UNL     1       0.130  10.497  20.159  0.00  0.00    +0.000 A 
ATOM     16  C   UNL     1       0.082   9.963  21.449  0.00  0.00    +0.000 A 
ATOM     17 BR   UNL     1      -0.953  10.832  22.797  0.00  0.00    +0.000 Br
ATOM     18  C   UNL     1       0.784   8.789  21.745  0.00  0.00    +0.000 A 
ATOM     19  C   UNL     1       1.515   8.136  20.745  0.00  0.00    +0.000 A 
ENDBRANCH  11  13
ENDBRANCH   1  11
TORSDOF 5
ENDMDL
