MODEL 1
REMARK VINA RESULT:      -8.9      0.000      0.000
REMARK  Name = 
REMARK  10 active torsions:
REMARK  status: ('A' for Active; 'I' for Inactive)
REMARK    1  A    between atoms: C_1  and  O_2
REMARK    2  A    between atoms: O_2  and  C_3
REMARK    3  A    between atoms: C_5  and  C_6
REMARK    4  A    between atoms: C_6  and  N_7
REMARK    5  A    between atoms: C_9  and  N_10
REMARK    6  A    between atoms: N_10  and  C_11
REMARK    7  A    between atoms: N_10  and  C_15
REMARK    8  A    between atoms: C_11  and  C_12
REMARK    9  A    between atoms: C_21  and  C_22
REMARK   10  A    between atoms: N_25  and  C_26
REMARK                            x       y       z     vdW  Elec       q    Type
REMARK                         _______ _______ _______ _____ _____    ______ ____
ROOT
ATOM      1  N   UNL     1       2.990   5.983  19.422  0.00  0.00    +0.000 N 
ENDROOT
BRANCH   1   2
ATOM      2  C   UNL     1       2.364   7.264  19.293  0.00  0.00    +0.000 A 
ATOM      3  C   UNL     1       2.342   7.888  18.036  0.00  0.00    +0.000 A 
ATOM      4  C   UNL     1       1.602   9.041  17.823  0.00  0.00    +0.000 A 
ATOM      5  C   UNL     1       0.925   9.649  18.857  0.00  0.00    +0.000 A 
ATOM      6  N   UNL     1       0.187  10.721  18.543  0.00  0.00    +0.000 NA
ATOM      7  C   UNL     1      -0.419  11.343  19.572  0.00  0.00    +0.000 A 
ATOM      8  C   UNL     1      -0.260  10.963  20.899  0.00  0.00    +0.000 A 
ATOM      9  N   UNL     1       0.438   9.837  21.216  0.00  0.00    +0.000 NA
ATOM     10  C   UNL     1       1.023   9.156  20.180  0.00  0.00    +0.000 A 
ATOM     11  C   UNL     1       1.715   7.944  20.350  0.00  0.00    +0.000 A 
BRANCH   8  12
ATOM     12  C   UNL     1      -0.823  11.820  21.935  0.00  0.00    +0.000 A 
ATOM     13  C   UNL     1      -1.790  11.481  22.923  0.00  0.00    +0.000 A 
ATOM     14  N   UNL     1      -2.052  12.477  23.763  0.00  0.00    +0.000 NA
ATOM     15  N   UNL     1      -1.256  13.468  23.332  0.00  0.00    +0.000 N 
ATOM     16  C   UNL     1      -1.185  14.686  24.103  0.00  0.00    +0.000 C 
ATOM     17  C   UNL     1      -0.544  13.146  22.203  0.00  0.00    +0.000 A 
ENDBRANCH   8  12
ENDBRANCH   1   2
BRANCH   1  22
ATOM     18  C   UNL     1       5.301   4.285  16.981  0.00  0.00    +0.000 A 
ATOM     19  C   UNL     1       6.548   4.667  17.470  0.00  0.00    +0.000 A 
ATOM     20  C   UNL     1       6.652   5.391  18.661  0.00  0.00    +0.000 A 
ATOM     21  C   UNL     1       5.466   5.748  19.327  0.00  0.00    +0.000 A 
ATOM     22  C   UNL     1       4.178   5.490  18.806  0.00  0.00    +0.000 A 
ATOM     23  C   UNL     1       4.140   4.671  17.665  0.00  0.00    +0.000 A 
BRANCH  18  25
ATOM     24  C   UNL     1       6.238   3.961  14.816  0.00  0.00    +0.000 C 
ATOM     25  O   UNL     1       5.348   3.533  15.839  0.00  0.00    +0.000 OA
ENDBRANCH  18  25
BRANCH  20  26
ATOM     26  C   UNL     1       8.023   5.688  19.221  0.00  0.00    +0.000 C 
BRANCH  26  27
ATOM     27  N   UNL     1       8.176   5.313  20.626  0.00  0.00    +0.000 NA
ATOM     28  H   UNL     1       7.274   5.427  21.089  0.00  0.00    +0.000 HD
ATOM     29  H   UNL     1       8.810   5.972  21.073  0.00  0.00    +0.000 HD
ENDBRANCH  26  27
ENDBRANCH  20  26
ENDBRANCH   1  22
BRANCH   1  30
ATOM     30  C   UNL     1       2.478   5.226  20.606  0.00  0.00    +0.000 C 
BRANCH  30  31
ATOM     31  C   UNL     1       1.238   4.421  20.286  0.00  0.00    +0.000 C 
ATOM     32  C   UNL     1       1.260   3.298  19.280  0.00  0.00    +0.000 C 
ATOM     33  C   UNL     1       1.109   2.984  20.740  0.00  0.00    +0.000 C 
ENDBRANCH  30  31
ENDBRANCH   1  30
TORSDOF 8
ENDMDL
MODEL 2
REMARK VINA RESULT:      -8.4      2.010      2.686
REMARK  Name = 
REMARK  10 active torsions:
REMARK  status: ('A' for Active; 'I' for Inactive)
REMARK    1  A    between atoms: C_1  and  O_2
REMARK    2  A    between atoms: O_2  and  C_3
REMARK    3  A    between atoms: C_5  and  C_6
REMARK    4  A    between atoms: C_6  and  N_7
REMARK    5  A    between atoms: C_9  and  N_10
REMARK    6  A    between atoms: N_10  and  C_11
REMARK    7  A    between atoms: N_10  and  C_15
REMARK    8  A    between atoms: C_11  and  C_12
REMARK    9  A    between atoms: C_21  and  C_22
REMARK   10  A    between atoms: N_25  and  C_26
REMARK                            x       y       z     vdW  Elec       q    Type
REMARK                         _______ _______ _______ _____ _____    ______ ____
ROOT
ATOM      1  N   UNL     1       3.132   5.699  17.912  0.00  0.00    +0.000 N 
ENDROOT
BRANCH   1   2
ATOM      2  C   UNL     1       2.458   6.650  18.744  0.00  0.00    +0.000 A 
ATOM      3  C   UNL     1       2.024   6.252  20.017  0.00  0.00    +0.000 A 
ATOM      4  C   UNL     1       1.523   7.176  20.924  0.00  0.00    +0.000 A 
ATOM      5  C   UNL     1       1.372   8.499  20.574  0.00  0.00    +0.000 A 
ATOM      6  N   UNL     1       0.943   9.328  21.534  0.00  0.00    +0.000 NA
ATOM      7  C   UNL     1       0.738  10.606  21.163  0.00  0.00    +0.000 A 
ATOM      8  C   UNL     1       0.892  11.060  19.858  0.00  0.00    +0.000 A 
ATOM      9  N   UNL     1       1.389  10.236  18.894  0.00  0.00    +0.000 NA
ATOM     10  C   UNL     1       1.654   8.942  19.260  0.00  0.00    +0.000 A 
ATOM     11  C   UNL     1       2.231   8.000  18.389  0.00  0.00    +0.000 A 
BRANCH   8  12
ATOM     12  C   UNL     1       0.472  12.421  19.546  0.00  0.00    +0.000 A 
ATOM     13  C   UNL     1      -0.822  12.994  19.690  0.00  0.00    +0.000 A 
ATOM     14  N   UNL     1      -0.863  14.283  19.372  0.00  0.00    +0.000 NA
ATOM     15  N   UNL     1       0.402  14.560  19.022  0.00  0.00    +0.000 N 
ATOM     16  C   UNL     1       0.759  15.928  18.732  0.00  0.00    +0.000 C 
ATOM     17  C   UNL     1       1.229  13.465  19.050  0.00  0.00    +0.000 A 
ENDBRANCH   8  12
ENDBRANCH   1   2
BRANCH   1  22
ATOM     18  C   UNL     1       6.226   5.447  15.781  0.00  0.00    +0.000 A 
ATOM     19  C   UNL     1       7.224   5.737  16.709  0.00  0.00    +0.000 A 
ATOM     20  C   UNL     1       6.910   5.910  18.060  0.00  0.00    +0.000 A 
ATOM     21  C   UNL     1       5.560   5.818  18.444  0.00  0.00    +0.000 A 
ATOM     22  C   UNL     1       4.503   5.648  17.522  0.00  0.00    +0.000 A 
ATOM     23  C   UNL     1       4.891   5.376  16.200  0.00  0.00    +0.000 A 
BRANCH  18  25
ATOM     24  C   UNL     1       6.364   4.002  13.893  0.00  0.00    +0.000 C 
ATOM     25  O   UNL     1       6.681   5.246  14.507  0.00  0.00    +0.000 OA
ENDBRANCH  18  25
BRANCH  20  26
ATOM     26  C   UNL     1       8.029   6.108  19.054  0.00  0.00    +0.000 C 
BRANCH  26  27
ATOM     27  N   UNL     1       7.831   5.388  20.310  0.00  0.00    +0.000 NA
ATOM     28  H   UNL     1       7.124   5.880  20.855  0.00  0.00    +0.000 HD
ATOM     29  H   UNL     1       8.691   5.434  20.853  0.00  0.00    +0.000 HD
ENDBRANCH  26  27
ENDBRANCH  20  26
ENDBRANCH   1  22
BRANCH   1  30
ATOM     30  C   UNL     1       2.328   4.451  17.722  0.00  0.00    +0.000 C 
BRANCH  30  31
ATOM     31  C   UNL     1       2.875   3.284  18.512  0.00  0.00    +0.000 C 
ATOM     32  C   UNL     1       1.988   2.157  18.979  0.00  0.00    +0.000 C 
ATOM     33  C   UNL     1       2.988   1.911  17.888  0.00  0.00    +0.000 C 
ENDBRANCH  30  31
ENDBRANCH   1  30
TORSDOF 8
ENDMDL
MODEL 3
REMARK VINA RESULT:      -8.0      1.430      2.183
REMARK  Name = 
REMARK  10 active torsions:
REMARK  status: ('A' for Active; 'I' for Inactive)
REMARK    1  A    between atoms: C_1  and  O_2
REMARK    2  A    between atoms: O_2  and  C_3
REMARK    3  A    between atoms: C_5  and  C_6
REMARK    4  A    between atoms: C_6  and  N_7
REMARK    5  A    between atoms: C_9  and  N_10
REMARK    6  A    between atoms: N_10  and  C_11
REMARK    7  A    between atoms: N_10  and  C_15
REMARK    8  A    between atoms: C_11  and  C_12
REMARK    9  A    between atoms: C_21  and  C_22
REMARK   10  A    between atoms: N_25  and  C_26
REMARK                            x       y       z     vdW  Elec       q    Type
REMARK                         _______ _______ _______ _____ _____    ______ ____
ROOT
ATOM      1  N   UNL     1       3.009   6.095  19.098  0.00  0.00    +0.000 N 
ENDROOT
BRANCH   1   2
ATOM      2  C   UNL     1       2.422   7.400  19.049  0.00  0.00    +0.000 A 
ATOM      3  C   UNL     1       2.482   8.129  17.852  0.00  0.00    +0.000 A 
ATOM      4  C   UNL     1       1.783   9.318  17.702  0.00  0.00    +0.000 A 
ATOM      5  C   UNL     1       1.067   9.854  18.749  0.00  0.00    +0.000 A 
ATOM      6  N   UNL     1       0.372  10.970  18.492  0.00  0.00    +0.000 NA
ATOM      7  C   UNL     1      -0.272  11.519  19.539  0.00  0.00    +0.000 A 
ATOM      8  C   UNL     1      -0.194  11.022  20.834  0.00  0.00    +0.000 A 
ATOM      9  N   UNL     1       0.458   9.853  21.087  0.00  0.00    +0.000 NA
ATOM     10  C   UNL     1       1.081   9.247  20.027  0.00  0.00    +0.000 A 
ATOM     11  C   UNL     1       1.733   8.005  20.126  0.00  0.00    +0.000 A 
BRANCH   8  12
ATOM     12  C   UNL     1      -0.791  11.803  21.911  0.00  0.00    +0.000 A 
ATOM     13  C   UNL     1      -1.651  11.349  22.950  0.00  0.00    +0.000 A 
ATOM     14  N   UNL     1      -1.977  12.304  23.815  0.00  0.00    +0.000 NA
ATOM     15  N   UNL     1      -1.330  13.383  23.348  0.00  0.00    +0.000 N 
ATOM     16  C   UNL     1      -1.357  14.599  24.125  0.00  0.00    +0.000 C 
ATOM     17  C   UNL     1      -0.655  13.152  22.176  0.00  0.00    +0.000 A 
ENDBRANCH   8  12
ENDBRANCH   1   2
BRANCH   1  22
ATOM     18  C   UNL     1       6.521   4.906  18.440  0.00  0.00    +0.000 A 
ATOM     19  C   UNL     1       6.408   4.421  17.139  0.00  0.00    +0.000 A 
ATOM     20  C   UNL     1       5.217   4.574  16.424  0.00  0.00    +0.000 A 
ATOM     21  C   UNL     1       4.133   5.198  17.067  0.00  0.00    +0.000 A 
ATOM     22  C   UNL     1       4.161   5.595  18.423  0.00  0.00    +0.000 A 
ATOM     23  C   UNL     1       5.414   5.510  19.052  0.00  0.00    +0.000 A 
BRANCH  18  25
ATOM     24  C   UNL     1       8.223   5.770  19.863  0.00  0.00    +0.000 C 
ATOM     25  O   UNL     1       7.758   4.740  18.999  0.00  0.00    +0.000 OA
ENDBRANCH  18  25
BRANCH  20  26
ATOM     26  C   UNL     1       5.167   4.140  14.978  0.00  0.00    +0.000 C 
BRANCH  26  27
ATOM     27  N   UNL     1       6.442   4.281  14.280  0.00  0.00    +0.000 NA
ATOM     28  H   UNL     1       6.988   5.003  14.749  0.00  0.00    +0.000 HD
ATOM     29  H   UNL     1       6.264   4.627  13.339  0.00  0.00    +0.000 HD
ENDBRANCH  26  27
ENDBRANCH  20  26
ENDBRANCH   1  22
BRANCH   1  30
ATOM     30  C   UNL     1       2.506   5.298  20.261  0.00  0.00    +0.000 C 
BRANCH  30  31
ATOM     31  C   UNL     1       1.366   4.379  19.883  0.00  0.00    +0.000 C 
ATOM     32  C   UNL     1       1.600   3.092  19.133  0.00  0.00    +0.000 C 
ATOM     33  C   UNL     1       1.183   3.047  20.574  0.00  0.00    +0.000 C 
ENDBRANCH  30  31
ENDBRANCH   1  30
TORSDOF 8
ENDMDL
MODEL 4
REMARK VINA RESULT:      -8.0      2.561      3.578
REMARK  Name = 
REMARK  10 active torsions:
REMARK  status: ('A' for Active; 'I' for Inactive)
REMARK    1  A    between atoms: C_1  and  O_2
REMARK    2  A    between atoms: O_2  and  C_3
REMARK    3  A    between atoms: C_5  and  C_6
REMARK    4  A    between atoms: C_6  and  N_7
REMARK    5  A    between atoms: C_9  and  N_10
REMARK    6  A    between atoms: N_10  and  C_11
REMARK    7  A    between atoms: N_10  and  C_15
REMARK    8  A    between atoms: C_11  and  C_12
REMARK    9  A    between atoms: C_21  and  C_22
REMARK   10  A    between atoms: N_25  and  C_26
REMARK                            x       y       z     vdW  Elec       q    Type
REMARK                         _______ _______ _______ _____ _____    ______ ____
ROOT
ATOM      1  N   UNL     1       3.085   5.417  17.736  0.00  0.00    +0.000 N 
ENDROOT
BRANCH   1   2
ATOM      2  C   UNL     1       2.484   6.442  18.536  0.00  0.00    +0.000 A 
ATOM      3  C   UNL     1       2.071   6.133  19.840  0.00  0.00    +0.000 A 
ATOM      4  C   UNL     1       1.645   7.126  20.710  0.00  0.00    +0.000 A 
ATOM      5  C   UNL     1       1.547   8.435  20.295  0.00  0.00    +0.000 A 
ATOM      6  N   UNL     1       1.188   9.333  21.221  0.00  0.00    +0.000 NA
ATOM      7  C   UNL     1       1.034  10.599  20.789  0.00  0.00    +0.000 A 
ATOM      8  C   UNL     1       1.169  10.976  19.458  0.00  0.00    +0.000 A 
ATOM      9  N   UNL     1       1.595  10.080  18.525  0.00  0.00    +0.000 NA
ATOM     10  C   UNL     1       1.808   8.795  18.951  0.00  0.00    +0.000 A 
ATOM     11  C   UNL     1       2.312   7.781  18.116  0.00  0.00    +0.000 A 
BRANCH   8  12
ATOM     12  C   UNL     1       0.805  12.338  19.086  0.00  0.00    +0.000 A 
ATOM     13  C   UNL     1      -0.463  12.822  18.660  0.00  0.00    +0.000 A 
ATOM     14  N   UNL     1      -0.481  14.134  18.452  0.00  0.00    +0.000 NA
ATOM     15  N   UNL     1       0.772  14.514  18.744  0.00  0.00    +0.000 N 
ATOM     16  C   UNL     1       1.087  15.923  18.748  0.00  0.00    +0.000 C 
ATOM     17  C   UNL     1       1.599  13.469  19.070  0.00  0.00    +0.000 A 
ENDBRANCH   8  12
ENDBRANCH   1   2
BRANCH   1  22
ATOM     18  C   UNL     1       6.798   4.855  18.024  0.00  0.00    +0.000 A 
ATOM     19  C   UNL     1       7.152   4.667  16.690  0.00  0.00    +0.000 A 
ATOM     20  C   UNL     1       6.206   4.828  15.674  0.00  0.00    +0.000 A 
ATOM     21  C   UNL     1       4.887   5.150  16.041  0.00  0.00    +0.000 A 
ATOM     22  C   UNL     1       4.454   5.230  17.383  0.00  0.00    +0.000 A 
ATOM     23  C   UNL     1       5.470   5.162  18.352  0.00  0.00    +0.000 A 
BRANCH  18  25
ATOM     24  C   UNL     1       8.183   5.867  19.676  0.00  0.00    +0.000 C 
ATOM     25  O   UNL     1       7.833   4.722  18.908  0.00  0.00    +0.000 OA
ENDBRANCH  18  25
BRANCH  20  26
ATOM     26  C   UNL     1       6.651   4.730  14.234  0.00  0.00    +0.000 C 
BRANCH  26  27
ATOM     27  N   UNL     1       6.274   3.474  13.589  0.00  0.00    +0.000 NA
ATOM     28  H   UNL     1       5.497   3.067  14.108  0.00  0.00    +0.000 HD
ATOM     29  H   UNL     1       7.048   2.818  13.674  0.00  0.00    +0.000 HD
ENDBRANCH  26  27
ENDBRANCH  20  26
ENDBRANCH   1  22
BRANCH   1  30
ATOM     30  C   UNL     1       2.171   4.248  17.544  0.00  0.00    +0.000 C 
BRANCH  30  31
ATOM     31  C   UNL     1       2.429   3.142  18.543  0.00  0.00    +0.000 C 
ATOM     32  C   UNL     1       1.540   1.926  18.627  0.00  0.00    +0.000 C 
ATOM     33  C   UNL     1       2.934   1.791  18.089  0.00  0.00    +0.000 C 
ENDBRANCH  30  31
ENDBRANCH   1  30
TORSDOF 8
ENDMDL
MODEL 5
REMARK VINA RESULT:      -8.0      0.976      1.001
REMARK  Name = 
REMARK  10 active torsions:
REMARK  status: ('A' for Active; 'I' for Inactive)
REMARK    1  A    between atoms: C_1  and  O_2
REMARK    2  A    between atoms: O_2  and  C_3
REMARK    3  A    between atoms: C_5  and  C_6
REMARK    4  A    between atoms: C_6  and  N_7
REMARK    5  A    between atoms: C_9  and  N_10
REMARK    6  A    between atoms: N_10  and  C_11
REMARK    7  A    between atoms: N_10  and  C_15
REMARK    8  A    between atoms: C_11  and  C_12
REMARK    9  A    between atoms: C_21  and  C_22
REMARK   10  A    between atoms: N_25  and  C_26
REMARK                            x       y       z     vdW  Elec       q    Type
REMARK                         _______ _______ _______ _____ _____    ______ ____
ROOT
ATOM      1  N   UNL     1       3.230   6.315  18.988  0.00  0.00    +0.000 N 
ENDROOT
BRANCH   1   2
ATOM      2  C   UNL     1       2.536   7.566  18.954  0.00  0.00    +0.000 A 
ATOM      3  C   UNL     1       2.681   8.395  17.831  0.00  0.00    +0.000 A 
ATOM      4  C   UNL     1       1.900   9.531  17.674  0.00  0.00    +0.000 A 
ATOM      5  C   UNL     1       1.009   9.916  18.650  0.00  0.00    +0.000 A 
ATOM      6  N   UNL     1       0.253  10.989  18.382  0.00  0.00    +0.000 NA
ATOM      7  C   UNL     1      -0.568  11.394  19.369  0.00  0.00    +0.000 A 
ATOM      8  C   UNL     1      -0.611  10.799  20.625  0.00  0.00    +0.000 A 
ATOM      9  N   UNL     1       0.108   9.671  20.879  0.00  0.00    +0.000 NA
ATOM     10  C   UNL     1       0.915   9.209  19.872  0.00  0.00    +0.000 A 
ATOM     11  C   UNL     1       1.662   8.021  19.969  0.00  0.00    +0.000 A 
BRANCH   8  12
ATOM     12  C   UNL     1      -1.411  11.436  21.664  0.00  0.00    +0.000 A 
ATOM     13  C   UNL     1      -1.398  11.176  23.063  0.00  0.00    +0.000 A 
ATOM     14  N   UNL     1      -2.208  11.972  23.751  0.00  0.00    +0.000 NA
ATOM     15  N   UNL     1      -2.751  12.758  22.808  0.00  0.00    +0.000 N 
ATOM     16  C   UNL     1      -3.604  13.848  23.219  0.00  0.00    +0.000 C 
ATOM     17  C   UNL     1      -2.354  12.437  21.535  0.00  0.00    +0.000 A 
ENDBRANCH   8  12
ENDBRANCH   1   2
BRANCH   1  22
ATOM     18  C   UNL     1       5.695   5.359  16.307  0.00  0.00    +0.000 A 
ATOM     19  C   UNL     1       6.893   5.364  17.019  0.00  0.00    +0.000 A 
ATOM     20  C   UNL     1       6.896   5.571  18.401  0.00  0.00    +0.000 A 
ATOM     21  C   UNL     1       5.666   5.808  19.040  0.00  0.00    +0.000 A 
ATOM     22  C   UNL     1       4.443   5.934  18.342  0.00  0.00    +0.000 A 
ATOM     23  C   UNL     1       4.490   5.612  16.976  0.00  0.00    +0.000 A 
BRANCH  18  25
ATOM     24  C   UNL     1       6.158   3.749  14.614  0.00  0.00    +0.000 C 
ATOM     25  O   UNL     1       5.833   5.087  14.973  0.00  0.00    +0.000 OA
ENDBRANCH  18  25
BRANCH  20  26
ATOM     26  C   UNL     1       8.198   5.455  19.158  0.00  0.00    +0.000 C 
BRANCH  26  27
ATOM     27  N   UNL     1       8.026   5.333  20.604  0.00  0.00    +0.000 NA
ATOM     28  H   UNL     1       7.803   6.254  20.980  0.00  0.00    +0.000 HD
ATOM     29  H   UNL     1       8.918   5.067  21.018  0.00  0.00    +0.000 HD
ENDBRANCH  26  27
ENDBRANCH  20  26
ENDBRANCH   1  22
BRANCH   1  30
ATOM     30  C   UNL     1       2.757   5.441  20.107  0.00  0.00    +0.000 C 
BRANCH  30  31
ATOM     31  C   UNL     1       2.063   4.191  19.614  0.00  0.00    +0.000 C 
ATOM     32  C   UNL     1       1.995   2.939  20.452  0.00  0.00    +0.000 C 
ATOM     33  C   UNL     1       0.751   3.744  20.216  0.00  0.00    +0.000 C 
ENDBRANCH  30  31
ENDBRANCH   1  30
TORSDOF 8
ENDMDL
MODEL 6
REMARK VINA RESULT:      -7.9      3.674      9.760
REMARK  Name = 
REMARK  10 active torsions:
REMARK  status: ('A' for Active; 'I' for Inactive)
REMARK    1  A    between atoms: C_1  and  O_2
REMARK    2  A    between atoms: O_2  and  C_3
REMARK    3  A    between atoms: C_5  and  C_6
REMARK    4  A    between atoms: C_6  and  N_7
REMARK    5  A    between atoms: C_9  and  N_10
REMARK    6  A    between atoms: N_10  and  C_11
REMARK    7  A    between atoms: N_10  and  C_15
REMARK    8  A    between atoms: C_11  and  C_12
REMARK    9  A    between atoms: C_21  and  C_22
REMARK   10  A    between atoms: N_25  and  C_26
REMARK                            x       y       z     vdW  Elec       q    Type
REMARK                         _______ _______ _______ _____ _____    ______ ____
ROOT
ATOM      1  N   UNL     1      -0.033  10.707  19.231  0.00  0.00    +0.000 N 
ENDROOT
BRANCH   1   2
ATOM      2  C   UNL     1       0.801   9.563  19.446  0.00  0.00    +0.000 A 
ATOM      3  C   UNL     1       0.703   8.868  20.661  0.00  0.00    +0.000 A 
ATOM      4  C   UNL     1       1.359   7.661  20.850  0.00  0.00    +0.000 A 
ATOM      5  C   UNL     1       2.184   7.145  19.875  0.00  0.00    +0.000 A 
ATOM      6  N   UNL     1       2.724   5.944  20.120  0.00  0.00    +0.000 NA
ATOM      7  C   UNL     1       3.578   5.479  19.188  0.00  0.00    +0.000 A 
ATOM      8  C   UNL     1       3.949   6.200  18.060  0.00  0.00    +0.000 A 
ATOM      9  N   UNL     1       3.355   7.392  17.775  0.00  0.00    +0.000 NA
ATOM     10  C   UNL     1       2.443   7.864  18.684  0.00  0.00    +0.000 A 
ATOM     11  C   UNL     1       1.704   9.045  18.489  0.00  0.00    +0.000 A 
BRANCH   8  12
ATOM     12  C   UNL     1       5.013   5.666  17.218  0.00  0.00    +0.000 A 
ATOM     13  C   UNL     1       6.066   4.785  17.589  0.00  0.00    +0.000 A 
ATOM     14  N   UNL     1       6.842   4.436  16.569  0.00  0.00    +0.000 NA
ATOM     15  N   UNL     1       6.299   5.084  15.527  0.00  0.00    +0.000 N 
ATOM     16  C   UNL     1       6.821   4.833  14.204  0.00  0.00    +0.000 C 
ATOM     17  C   UNL     1       5.238   5.883  15.872  0.00  0.00    +0.000 A 
ENDBRANCH   8  12
ENDBRANCH   1   2
BRANCH   1  22
ATOM     18  C   UNL     1      -3.537  11.742  18.319  0.00  0.00    +0.000 A 
ATOM     19  C   UNL     1      -3.679  11.155  17.063  0.00  0.00    +0.000 A 
ATOM     20  C   UNL     1      -2.678  10.326  16.549  0.00  0.00    +0.000 A 
ATOM     21  C   UNL     1      -1.516  10.133  17.317  0.00  0.00    +0.000 A 
ATOM     22  C   UNL     1      -1.275  10.805  18.537  0.00  0.00    +0.000 A 
ATOM     23  C   UNL     1      -2.358  11.538  19.049  0.00  0.00    +0.000 A 
BRANCH  18  25
ATOM     24  C   UNL     1      -5.432  11.929  19.748  0.00  0.00    +0.000 C 
ATOM     25  O   UNL     1      -4.615  12.481  18.722  0.00  0.00    +0.000 OA
ENDBRANCH  18  25
BRANCH  20  26
ATOM     26  C   UNL     1      -2.916   9.615  15.238  0.00  0.00    +0.000 C 
BRANCH  26  27
ATOM     27  N   UNL     1      -3.497  10.469  14.204  0.00  0.00    +0.000 NA
ATOM     28  H   UNL     1      -4.482  10.228  14.104  0.00  0.00    +0.000 HD
ATOM     29  H   UNL     1      -3.058  10.247  13.312  0.00  0.00    +0.000 HD
ENDBRANCH  26  27
ENDBRANCH  20  26
ENDBRANCH   1  22
BRANCH   1  30
ATOM     30  C   UNL     1       0.324  11.840  20.142  0.00  0.00    +0.000 C 
BRANCH  30  31
ATOM     31  C   UNL     1       1.568  12.573  19.694  0.00  0.00    +0.000 C 
ATOM     32  C   UNL     1       1.872  12.801  18.234  0.00  0.00    +0.000 C 
ATOM     33  C   UNL     1       1.478  13.961  19.101  0.00  0.00    +0.000 C 
ENDBRANCH  30  31
ENDBRANCH   1  30
TORSDOF 8
ENDMDL
MODEL 7
REMARK VINA RESULT:      -7.8      2.606      3.727
REMARK  Name = 
REMARK  10 active torsions:
REMARK  status: ('A' for Active; 'I' for Inactive)
REMARK    1  A    between atoms: C_1  and  O_2
REMARK    2  A    between atoms: O_2  and  C_3
REMARK    3  A    between atoms: C_5  and  C_6
REMARK    4  A    between atoms: C_6  and  N_7
REMARK    5  A    between atoms: C_9  and  N_10
REMARK    6  A    between atoms: N_10  and  C_11
REMARK    7  A    between atoms: N_10  and  C_15
REMARK    8  A    between atoms: C_11  and  C_12
REMARK    9  A    between atoms: C_21  and  C_22
REMARK   10  A    between atoms: N_25  and  C_26
REMARK                            x       y       z     vdW  Elec       q    Type
REMARK                         _______ _______ _______ _____ _____    ______ ____
ROOT
ATOM      1  N   UNL     1       3.958   4.875  18.542  0.00  0.00    +0.000 N 
ENDROOT
BRANCH   1   2
ATOM      2  C   UNL     1       3.029   5.780  19.147  0.00  0.00    +0.000 A 
ATOM      3  C   UNL     1       2.363   5.391  20.319  0.00  0.00    +0.000 A 
ATOM      4  C   UNL     1       1.588   6.291  21.035  0.00  0.00    +0.000 A 
ATOM      5  C   UNL     1       1.392   7.575  20.577  0.00  0.00    +0.000 A 
ATOM      6  N   UNL     1       0.682   8.392  21.367  0.00  0.00    +0.000 NA
ATOM      7  C   UNL     1       0.443   9.624  20.880  0.00  0.00    +0.000 A 
ATOM      8  C   UNL     1       0.839  10.038  19.613  0.00  0.00    +0.000 A 
ATOM      9  N   UNL     1       1.614   9.234  18.834  0.00  0.00    +0.000 NA
ATOM     10  C   UNL     1       1.913   7.991  19.329  0.00  0.00    +0.000 A 
ATOM     11  C   UNL     1       2.757   7.082  18.666  0.00  0.00    +0.000 A 
BRANCH   8  12
ATOM     12  C   UNL     1       0.369  11.332  19.132  0.00  0.00    +0.000 A 
ATOM     13  C   UNL     1      -0.834  11.622  18.429  0.00  0.00    +0.000 A 
ATOM     14  N   UNL     1      -0.997  12.917  18.183  0.00  0.00    +0.000 NA
ATOM     15  N   UNL     1       0.094  13.480  18.726  0.00  0.00    +0.000 N 
ATOM     16  C   UNL     1       0.191  14.920  18.756  0.00  0.00    +0.000 C 
ATOM     17  C   UNL     1       0.974  12.568  19.253  0.00  0.00    +0.000 A 
ENDBRANCH   8  12
ENDBRANCH   1   2
BRANCH   1  22
ATOM     18  C   UNL     1       6.866   6.300  16.620  0.00  0.00    +0.000 A 
ATOM     19  C   UNL     1       6.907   5.453  15.515  0.00  0.00    +0.000 A 
ATOM     20  C   UNL     1       5.923   4.478  15.330  0.00  0.00    +0.000 A 
ATOM     21  C   UNL     1       4.917   4.357  16.305  0.00  0.00    +0.000 A 
ATOM     22  C   UNL     1       4.904   5.109  17.501  0.00  0.00    +0.000 A 
ATOM     23  C   UNL     1       5.855   6.140  17.578  0.00  0.00    +0.000 A 
BRANCH  18  25
ATOM     24  C   UNL     1       7.856   8.155  17.738  0.00  0.00    +0.000 C 
ATOM     25  O   UNL     1       7.856   7.243  16.646  0.00  0.00    +0.000 OA
ENDBRANCH  18  25
BRANCH  20  26
ATOM     26  C   UNL     1       5.933   3.656  14.063  0.00  0.00    +0.000 C 
BRANCH  26  27
ATOM     27  N   UNL     1       6.773   4.216  13.007  0.00  0.00    +0.000 NA
ATOM     28  H   UNL     1       7.749   4.040  13.245  0.00  0.00    +0.000 HD
ATOM     29  H   UNL     1       6.661   5.228  13.002  0.00  0.00    +0.000 HD
ENDBRANCH  26  27
ENDBRANCH  20  26
ENDBRANCH   1  22
BRANCH   1  30
ATOM     30  C   UNL     1       4.145   3.635  19.360  0.00  0.00    +0.000 C 
BRANCH  30  31
ATOM     31  C   UNL     1       3.096   2.586  19.069  0.00  0.00    +0.000 C 
ATOM     32  C   UNL     1       2.454   2.462  17.710  0.00  0.00    +0.000 C 
ATOM     33  C   UNL     1       3.408   1.403  18.180  0.00  0.00    +0.000 C 
ENDBRANCH  30  31
ENDBRANCH   1  30
TORSDOF 8
ENDMDL
MODEL 8
REMARK VINA RESULT:      -7.8      3.066      9.328
REMARK  Name = 
REMARK  10 active torsions:
REMARK  status: ('A' for Active; 'I' for Inactive)
REMARK    1  A    between atoms: C_1  and  O_2
REMARK    2  A    between atoms: O_2  and  C_3
REMARK    3  A    between atoms: C_5  and  C_6
REMARK    4  A    between atoms: C_6  and  N_7
REMARK    5  A    between atoms: C_9  and  N_10
REMARK    6  A    between atoms: N_10  and  C_11
REMARK    7  A    between atoms: N_10  and  C_15
REMARK    8  A    between atoms: C_11  and  C_12
REMARK    9  A    between atoms: C_21  and  C_22
REMARK   10  A    between atoms: N_25  and  C_26
REMARK                            x       y       z     vdW  Elec       q    Type
REMARK                         _______ _______ _______ _____ _____    ______ ____
ROOT
ATOM      1  N   UNL     1       1.134   9.381  20.030  0.00  0.00    +0.000 N 
ENDROOT
BRANCH   1   2
ATOM      2  C   UNL     1       1.811   8.167  19.687  0.00  0.00    +0.000 A 
ATOM      3  C   UNL     1       1.625   7.033  20.492  0.00  0.00    +0.000 A 
ATOM      4  C   UNL     1       2.117   5.794  20.109  0.00  0.00    +0.000 A 
ATOM      5  C   UNL     1       2.865   5.656  18.961  0.00  0.00    +0.000 A 
ATOM      6  N   UNL     1       3.244   4.412  18.638  0.00  0.00    +0.000 NA
ATOM      7  C   UNL     1       4.028   4.297  17.550  0.00  0.00    +0.000 A 
ATOM      8  C   UNL     1       4.489   5.385  16.818  0.00  0.00    +0.000 A 
ATOM      9  N   UNL     1       4.055   6.644  17.105  0.00  0.00    +0.000 NA
ATOM     10  C   UNL     1       3.215   6.781  18.179  0.00  0.00    +0.000 A 
ATOM     11  C   UNL     1       2.637   8.009  18.550  0.00  0.00    +0.000 A 
BRANCH   8  12
ATOM     12  C   UNL     1       5.472   5.145  15.769  0.00  0.00    +0.000 A 
ATOM     13  C   UNL     1       6.866   5.429  15.792  0.00  0.00    +0.000 A 
ATOM     14  N   UNL     1       7.500   5.033  14.694  0.00  0.00    +0.000 NA
ATOM     15  N   UNL     1       6.526   4.486  13.950  0.00  0.00    +0.000 N 
ATOM     16  C   UNL     1       6.882   3.826  12.716  0.00  0.00    +0.000 C 
ATOM     17  C   UNL     1       5.282   4.582  14.521  0.00  0.00    +0.000 A 
ENDBRANCH   8  12
ENDBRANCH   1   2
BRANCH   1  22
ATOM     18  C   UNL     1      -1.569  10.511  17.664  0.00  0.00    +0.000 A 
ATOM     19  C   UNL     1      -1.453  11.896  17.754  0.00  0.00    +0.000 A 
ATOM     20  C   UNL     1      -0.423  12.475  18.501  0.00  0.00    +0.000 A 
ATOM     21  C   UNL     1       0.463  11.623  19.182  0.00  0.00    +0.000 A 
ATOM     22  C   UNL     1       0.311  10.218  19.220  0.00  0.00    +0.000 A 
ATOM     23  C   UNL     1      -0.674   9.693  18.368  0.00  0.00    +0.000 A 
BRANCH  18  25
ATOM     24  C   UNL     1      -2.783  10.782  15.633  0.00  0.00    +0.000 C 
ATOM     25  O   UNL     1      -2.585  10.081  16.855  0.00  0.00    +0.000 OA
ENDBRANCH  18  25
BRANCH  20  26
ATOM     26  C   UNL     1      -0.258  13.976  18.483  0.00  0.00    +0.000 C 
BRANCH  26  27
ATOM     27  N   UNL     1       0.276  14.522  19.729  0.00  0.00    +0.000 NA
ATOM     28  H   UNL     1       0.367  15.532  19.624  0.00  0.00    +0.000 HD
ATOM     29  H   UNL     1       1.220  14.165  19.865  0.00  0.00    +0.000 HD
ENDBRANCH  26  27
ENDBRANCH  20  26
ENDBRANCH   1  22
BRANCH   1  30
ATOM     30  C   UNL     1       1.046   9.575  21.511  0.00  0.00    +0.000 C 
BRANCH  30  31
ATOM     31  C   UNL     1      -0.372   9.815  21.980  0.00  0.00    +0.000 C 
ATOM     32  C   UNL     1      -0.722   9.876  23.446  0.00  0.00    +0.000 C 
ATOM     33  C   UNL     1      -0.764  11.128  22.619  0.00  0.00    +0.000 C 
ENDBRANCH  30  31
ENDBRANCH   1  30
TORSDOF 8
ENDMDL
MODEL 9
REMARK VINA RESULT:      -7.8      2.391      3.497
REMARK  Name = 
REMARK  10 active torsions:
REMARK  status: ('A' for Active; 'I' for Inactive)
REMARK    1  A    between atoms: C_1  and  O_2
REMARK    2  A    between atoms: O_2  and  C_3
REMARK    3  A    between atoms: C_5  and  C_6
REMARK    4  A    between atoms: C_6  and  N_7
REMARK    5  A    between atoms: C_9  and  N_10
REMARK    6  A    between atoms: N_10  and  C_11
REMARK    7  A    between atoms: N_10  and  C_15
REMARK    8  A    between atoms: C_11  and  C_12
REMARK    9  A    between atoms: C_21  and  C_22
REMARK   10  A    between atoms: N_25  and  C_26
REMARK                            x       y       z     vdW  Elec       q    Type
REMARK                         _______ _______ _______ _____ _____    ______ ____
ROOT
ATOM      1  N   UNL     1       3.260   5.569  17.739  0.00  0.00    +0.000 N 
ENDROOT
BRANCH   1   2
ATOM      2  C   UNL     1       2.565   6.442  18.636  0.00  0.00    +0.000 A 
ATOM      3  C   UNL     1       2.248   5.983  19.923  0.00  0.00    +0.000 A 
ATOM      4  C   UNL     1       1.732   6.842  20.883  0.00  0.00    +0.000 A 
ATOM      5  C   UNL     1       1.451   8.155  20.577  0.00  0.00    +0.000 A 
ATOM      6  N   UNL     1       1.016   8.925  21.584  0.00  0.00    +0.000 NA
ATOM      7  C   UNL     1       0.684  10.189  21.260  0.00  0.00    +0.000 A 
ATOM      8  C   UNL     1       0.716  10.681  19.961  0.00  0.00    +0.000 A 
ATOM      9  N   UNL     1       1.217   9.922  18.946  0.00  0.00    +0.000 NA
ATOM     10  C   UNL     1       1.609   8.647  19.261  0.00  0.00    +0.000 A 
ATOM     11  C   UNL     1       2.205   7.776  18.332  0.00  0.00    +0.000 A 
BRANCH   8  12
ATOM     12  C   UNL     1       0.166  12.008  19.711  0.00  0.00    +0.000 A 
ATOM     13  C   UNL     1      -1.090  12.530  20.130  0.00  0.00    +0.000 A 
ATOM     14  N   UNL     1      -1.269  13.801  19.790  0.00  0.00    +0.000 NA
ATOM     15  N   UNL     1      -0.131  14.118  19.152  0.00  0.00    +0.000 N 
ATOM     16  C   UNL     1       0.079  15.488  18.746  0.00  0.00    +0.000 C 
ATOM     17  C   UNL     1       0.736  13.063  19.024  0.00  0.00    +0.000 A 
ENDBRANCH   8  12
ENDBRANCH   1   2
BRANCH   1  22
ATOM     18  C   UNL     1       6.914   6.432  17.437  0.00  0.00    +0.000 A 
ATOM     19  C   UNL     1       7.273   5.714  16.299  0.00  0.00    +0.000 A 
ATOM     20  C   UNL     1       6.308   5.029  15.557  0.00  0.00    +0.000 A 
ATOM     21  C   UNL     1       4.977   5.059  16.011  0.00  0.00    +0.000 A 
ATOM     22  C   UNL     1       4.587   5.670  17.223  0.00  0.00    +0.000 A 
ATOM     23  C   UNL     1       5.579   6.428  17.867  0.00  0.00    +0.000 A 
BRANCH  18  25
ATOM     24  C   UNL     1       8.010   8.508  17.837  0.00  0.00    +0.000 C 
ATOM     25  O   UNL     1       7.948   7.101  18.033  0.00  0.00    +0.000 OA
ENDBRANCH  18  25
BRANCH  20  26
ATOM     26  C   UNL     1       6.714   4.357  14.266  0.00  0.00    +0.000 C 
BRANCH  26  27
ATOM     27  N   UNL     1       5.585   3.846  13.491  0.00  0.00    +0.000 NA
ATOM     28  H   UNL     1       4.724   4.211  13.899  0.00  0.00    +0.000 HD
ATOM     29  H   UNL     1       5.544   2.835  13.601  0.00  0.00    +0.000 HD
ENDBRANCH  26  27
ENDBRANCH  20  26
ENDBRANCH   1  22
BRANCH   1  30
ATOM     30  C   UNL     1       2.586   4.239  17.616  0.00  0.00    +0.000 C 
BRANCH  30  31
ATOM     31  C   UNL     1       3.235   3.179  18.477  0.00  0.00    +0.000 C 
ATOM     32  C   UNL     1       2.428   2.083  19.128  0.00  0.00    +0.000 C 
ATOM     33  C   UNL     1       3.352   1.752  17.993  0.00  0.00    +0.000 C 
ENDBRANCH  30  31
ENDBRANCH   1  30
TORSDOF 8
ENDMDL
