MODEL 1
REMARK VINA RESULT:      -8.4      0.000      0.000
REMARK  Name = 
REMARK  5 active torsions:
REMARK  status: ('A' for Active; 'I' for Inactive)
REMARK    1  A    between atoms: C_1  and  C_2
REMARK    2  A    between atoms: C_5  and  C_6
REMARK    3  A    between atoms: N_8  and  C_9
REMARK    4  A    between atoms: C_16  and  C_17
REMARK    5  A    between atoms: C_16  and  C_18
REMARK                            x       y       z     vdW  Elec       q    Type
REMARK                         _______ _______ _______ _____ _____    ______ ____
ROOT
ATOM      1  C   UNL     1       7.557   6.668  18.025  0.00  0.00    +0.000 A 
ATOM      2  C   UNL     1       7.238   6.380  16.692  0.00  0.00    +0.000 A 
ATOM      3  C   UNL     1       6.348   5.357  16.363  0.00  0.00    +0.000 A 
ATOM      4  C   UNL     1       5.759   4.609  17.374  0.00  0.00    +0.000 A 
ATOM      5  C   UNL     1       6.089   4.851  18.708  0.00  0.00    +0.000 A 
ATOM      6  C   UNL     1       7.006   5.862  19.032  0.00  0.00    +0.000 A 
ATOM      7  O   UNL     1       5.573   4.118  19.745  0.00  0.00    +0.000 OA
ATOM      8  C   UNL     1       4.387   3.367  19.437  0.00  0.00    +0.000 C 
ATOM      9  C   UNL     1       3.174   4.247  19.780  0.00  0.00    +0.000 C 
ATOM     10  C   UNL     1       4.392   2.140  20.357  0.00  0.00    +0.000 C 
ATOM     11  C   UNL     1       4.213   2.865  17.985  0.00  0.00    +0.000 C 
ATOM     12  O   UNL     1       3.479   1.933  17.663  0.00  0.00    +0.000 OA
ATOM     13  N   UNL     1       4.859   3.604  17.034  0.00  0.00    +0.000 N 
ATOM     14  H   UNL     1       4.689   3.358  16.068  0.00  0.00    +0.000 HD
ENDROOT
BRANCH   1  17
ATOM     15  C   UNL     1       8.146   9.085  18.064  0.00  0.00    +0.000 C 
ATOM     16  O   UNL     1       7.184   9.503  17.423  0.00  0.00    +0.000 OA
ATOM     17  N   UNL     1       8.393   7.757  18.391  0.00  0.00    +0.000 N 
ATOM     18  H   UNL     1       9.109   7.571  19.081  0.00  0.00    +0.000 HD
BRANCH  15  23
ATOM     19  C   UNL     1      12.097  12.901  19.913  0.00  0.00    +0.000 C 
ATOM     20  C   UNL     1      11.041  11.939  19.452  0.00  0.00    +0.000 A 
ATOM     21  C   UNL     1      10.856  11.695  18.089  0.00  0.00    +0.000 A 
ATOM     22  C   UNL     1       9.890  10.782  17.667  0.00  0.00    +0.000 A 
ATOM     23  C   UNL     1       9.086  10.107  18.597  0.00  0.00    +0.000 A 
ATOM     24  C   UNL     1       9.260  10.347  19.962  0.00  0.00    +0.000 A 
ATOM     25  C   UNL     1      10.237  11.262  20.383  0.00  0.00    +0.000 A 
ENDBRANCH  15  23
ENDBRANCH   1  17
TORSDOF 2
ENDMDL
MODEL 2
REMARK VINA RESULT:      -8.2      0.631      1.185
REMARK  Name = 
REMARK  5 active torsions:
REMARK  status: ('A' for Active; 'I' for Inactive)
REMARK    1  A    between atoms: C_1  and  C_2
REMARK    2  A    between atoms: C_5  and  C_6
REMARK    3  A    between atoms: N_8  and  C_9
REMARK    4  A    between atoms: C_16  and  C_17
REMARK    5  A    between atoms: C_16  and  C_18
REMARK                            x       y       z     vdW  Elec       q    Type
REMARK                         _______ _______ _______ _____ _____    ______ ____
ROOT
ATOM      1  C   UNL     1       7.404   6.348  18.127  0.00  0.00    +0.000 A 
ATOM      2  C   UNL     1       7.437   5.738  16.868  0.00  0.00    +0.000 A 
ATOM      3  C   UNL     1       6.564   4.698  16.541  0.00  0.00    +0.000 A 
ATOM      4  C   UNL     1       5.640   4.259  17.479  0.00  0.00    +0.000 A 
ATOM      5  C   UNL     1       5.613   4.825  18.755  0.00  0.00    +0.000 A 
ATOM      6  C   UNL     1       6.510   5.851  19.087  0.00  0.00    +0.000 A 
ATOM      7  O   UNL     1       4.752   4.404  19.735  0.00  0.00    +0.000 OA
ATOM      8  C   UNL     1       3.623   3.644  19.277  0.00  0.00    +0.000 C 
ATOM      9  C   UNL     1       2.467   4.626  19.029  0.00  0.00    +0.000 C 
ATOM     10  C   UNL     1       3.237   2.696  20.420  0.00  0.00    +0.000 C 
ATOM     11  C   UNL     1       3.802   2.791  18.000  0.00  0.00    +0.000 C 
ATOM     12  O   UNL     1       3.087   1.835  17.705  0.00  0.00    +0.000 OA
ATOM     13  N   UNL     1       4.764   3.234  17.137  0.00  0.00    +0.000 N 
ATOM     14  H   UNL     1       4.841   2.754  16.250  0.00  0.00    +0.000 HD
ENDROOT
BRANCH   1  17
ATOM     15  C   UNL     1       8.036   8.749  17.964  0.00  0.00    +0.000 C 
ATOM     16  O   UNL     1       7.152   9.103  17.187  0.00  0.00    +0.000 OA
ATOM     17  N   UNL     1       8.222   7.463  18.456  0.00  0.00    +0.000 N 
ATOM     18  H   UNL     1       8.861   7.347  19.232  0.00  0.00    +0.000 HD
BRANCH  15  23
ATOM     19  C   UNL     1      11.252  13.018  20.205  0.00  0.00    +0.000 C 
ATOM     20  C   UNL     1      10.457  11.895  19.606  0.00  0.00    +0.000 A 
ATOM     21  C   UNL     1       9.792  10.983  20.429  0.00  0.00    +0.000 A 
ATOM     22  C   UNL     1       9.034   9.956  19.868  0.00  0.00    +0.000 A 
ATOM     23  C   UNL     1       8.938   9.815  18.475  0.00  0.00    +0.000 A 
ATOM     24  C   UNL     1       9.603  10.718  17.643  0.00  0.00    +0.000 A 
ATOM     25  C   UNL     1      10.359  11.754  18.212  0.00  0.00    +0.000 A 
ENDBRANCH  15  23
ENDBRANCH   1  17
TORSDOF 2
ENDMDL
MODEL 3
REMARK VINA RESULT:      -8.0      1.845      2.547
REMARK  Name = 
REMARK  5 active torsions:
REMARK  status: ('A' for Active; 'I' for Inactive)
REMARK    1  A    between atoms: C_1  and  C_2
REMARK    2  A    between atoms: C_5  and  C_6
REMARK    3  A    between atoms: N_8  and  C_9
REMARK    4  A    between atoms: C_16  and  C_17
REMARK    5  A    between atoms: C_16  and  C_18
REMARK                            x       y       z     vdW  Elec       q    Type
REMARK                         _______ _______ _______ _____ _____    ______ ____
ROOT
ATOM      1  C   UNL     1       7.689   7.857  18.093  0.00  0.00    +0.000 A 
ATOM      2  C   UNL     1       8.375   6.901  18.850  0.00  0.00    +0.000 A 
ATOM      3  C   UNL     1       7.821   5.647  19.113  0.00  0.00    +0.000 A 
ATOM      4  C   UNL     1       6.564   5.335  18.612  0.00  0.00    +0.000 A 
ATOM      5  C   UNL     1       5.842   6.285  17.888  0.00  0.00    +0.000 A 
ATOM      6  C   UNL     1       6.393   7.553  17.650  0.00  0.00    +0.000 A 
ATOM      7  O   UNL     1       4.581   6.049  17.405  0.00  0.00    +0.000 OA
ATOM      8  C   UNL     1       4.201   4.666  17.330  0.00  0.00    +0.000 C 
ATOM      9  C   UNL     1       4.565   4.156  15.926  0.00  0.00    +0.000 C 
ATOM     10  C   UNL     1       2.677   4.618  17.500  0.00  0.00    +0.000 C 
ATOM     11  C   UNL     1       4.819   3.694  18.362  0.00  0.00    +0.000 C 
ATOM     12  O   UNL     1       4.331   2.605  18.659  0.00  0.00    +0.000 OA
ATOM     13  N   UNL     1       6.029   4.076  18.866  0.00  0.00    +0.000 N 
ATOM     14  H   UNL     1       6.503   3.418  19.470  0.00  0.00    +0.000 HD
ENDROOT
BRANCH   1  17
ATOM     15  C   UNL     1       8.857   9.984  18.641  0.00  0.00    +0.000 C 
ATOM     16  O   UNL     1       8.970   9.807  19.852  0.00  0.00    +0.000 OA
ATOM     17  N   UNL     1       8.264   9.108  17.740  0.00  0.00    +0.000 N 
ATOM     18  H   UNL     1       8.408   9.282  16.754  0.00  0.00    +0.000 HD
BRANCH  15  23
ATOM     19  C   UNL     1      11.549  14.774  16.796  0.00  0.00    +0.000 C 
ATOM     20  C   UNL     1      10.831  13.530  17.234  0.00  0.00    +0.000 A 
ATOM     21  C   UNL     1      11.549  12.376  17.555  0.00  0.00    +0.000 A 
ATOM     22  C   UNL     1      10.880  11.232  17.984  0.00  0.00    +0.000 A 
ATOM     23  C   UNL     1       9.481  11.216  18.088  0.00  0.00    +0.000 A 
ATOM     24  C   UNL     1       8.752  12.363  17.765  0.00  0.00    +0.000 A 
ATOM     25  C   UNL     1       9.431  13.515  17.340  0.00  0.00    +0.000 A 
ENDBRANCH  15  23
ENDBRANCH   1  17
TORSDOF 2
ENDMDL
MODEL 4
REMARK VINA RESULT:      -7.9      1.467      1.790
REMARK  Name = 
REMARK  5 active torsions:
REMARK  status: ('A' for Active; 'I' for Inactive)
REMARK    1  A    between atoms: C_1  and  C_2
REMARK    2  A    between atoms: C_5  and  C_6
REMARK    3  A    between atoms: N_8  and  C_9
REMARK    4  A    between atoms: C_16  and  C_17
REMARK    5  A    between atoms: C_16  and  C_18
REMARK                            x       y       z     vdW  Elec       q    Type
REMARK                         _______ _______ _______ _____ _____    ______ ____
ROOT
ATOM      1  C   UNL     1       6.668   6.958  17.305  0.00  0.00    +0.000 A 
ATOM      2  C   UNL     1       7.151   5.974  16.435  0.00  0.00    +0.000 A 
ATOM      3  C   UNL     1       6.571   4.706  16.377  0.00  0.00    +0.000 A 
ATOM      4  C   UNL     1       5.488   4.411  17.195  0.00  0.00    +0.000 A 
ATOM      5  C   UNL     1       5.012   5.361  18.099  0.00  0.00    +0.000 A 
ATOM      6  C   UNL     1       5.617   6.625  18.172  0.00  0.00    +0.000 A 
ATOM      7  O   UNL     1       3.975   5.113  18.960  0.00  0.00    +0.000 OA
ATOM      8  C   UNL     1       3.148   3.988  18.619  0.00  0.00    +0.000 C 
ATOM      9  C   UNL     1       1.984   4.507  17.759  0.00  0.00    +0.000 C 
ATOM     10  C   UNL     1       2.590   3.436  19.937  0.00  0.00    +0.000 C 
ATOM     11  C   UNL     1       3.811   2.815  17.861  0.00  0.00    +0.000 C 
ATOM     12  O   UNL     1       3.357   1.672  17.832  0.00  0.00    +0.000 OA
ATOM     13  N   UNL     1       4.906   3.149  17.116  0.00  0.00    +0.000 N 
ATOM     14  H   UNL     1       5.305   2.424  16.535  0.00  0.00    +0.000 HD
ENDROOT
BRANCH   1  17
ATOM     15  C   UNL     1       8.190   8.722  18.177  0.00  0.00    +0.000 C 
ATOM     16  O   UNL     1       8.767   8.044  19.024  0.00  0.00    +0.000 OA
ATOM     17  N   UNL     1       7.186   8.282  17.323  0.00  0.00    +0.000 N 
ATOM     18  H   UNL     1       6.934   8.882  16.548  0.00  0.00    +0.000 HD
BRANCH  15  23
ATOM     19  C   UNL     1      10.164  14.165  17.902  0.00  0.00    +0.000 C 
ATOM     20  C   UNL     1       9.651  12.755  17.928  0.00  0.00    +0.000 A 
ATOM     21  C   UNL     1      10.437  11.727  18.455  0.00  0.00    +0.000 A 
ATOM     22  C   UNL     1       9.946  10.423  18.499  0.00  0.00    +0.000 A 
ATOM     23  C   UNL     1       8.668  10.121  18.006  0.00  0.00    +0.000 A 
ATOM     24  C   UNL     1       7.876  11.140  17.472  0.00  0.00    +0.000 A 
ATOM     25  C   UNL     1       8.371  12.452  17.436  0.00  0.00    +0.000 A 
ENDBRANCH  15  23
ENDBRANCH   1  17
TORSDOF 2
ENDMDL
MODEL 5
REMARK VINA RESULT:      -7.6      1.439      1.726
REMARK  Name = 
REMARK  5 active torsions:
REMARK  status: ('A' for Active; 'I' for Inactive)
REMARK    1  A    between atoms: C_1  and  C_2
REMARK    2  A    between atoms: C_5  and  C_6
REMARK    3  A    between atoms: N_8  and  C_9
REMARK    4  A    between atoms: C_16  and  C_17
REMARK    5  A    between atoms: C_16  and  C_18
REMARK                            x       y       z     vdW  Elec       q    Type
REMARK                         _______ _______ _______ _____ _____    ______ ____
ROOT
ATOM      1  C   UNL     1       6.741   7.012  17.334  0.00  0.00    +0.000 A 
ATOM      2  C   UNL     1       7.170   6.078  16.384  0.00  0.00    +0.000 A 
ATOM      3  C   UNL     1       6.561   4.827  16.268  0.00  0.00    +0.000 A 
ATOM      4  C   UNL     1       5.504   4.499  17.107  0.00  0.00    +0.000 A 
ATOM      5  C   UNL     1       5.083   5.398  18.088  0.00  0.00    +0.000 A 
ATOM      6  C   UNL     1       5.717   6.643  18.219  0.00  0.00    +0.000 A 
ATOM      7  O   UNL     1       4.074   5.113  18.972  0.00  0.00    +0.000 OA
ATOM      8  C   UNL     1       3.213   4.028  18.592  0.00  0.00    +0.000 C 
ATOM      9  C   UNL     1       2.027   4.623  17.814  0.00  0.00    +0.000 C 
ATOM     10  C   UNL     1       2.693   3.402  19.893  0.00  0.00    +0.000 C 
ATOM     11  C   UNL     1       3.821   2.894  17.735  0.00  0.00    +0.000 C 
ATOM     12  O   UNL     1       3.343   1.764  17.650  0.00  0.00    +0.000 OA
ATOM     13  N   UNL     1       4.893   3.257  16.971  0.00  0.00    +0.000 N 
ATOM     14  H   UNL     1       5.255   2.563  16.329  0.00  0.00    +0.000 HD
ENDROOT
BRANCH   1  17
ATOM     15  C   UNL     1       8.284   8.704  18.305  0.00  0.00    +0.000 C 
ATOM     16  O   UNL     1       8.832   7.978  19.132  0.00  0.00    +0.000 OA
ATOM     17  N   UNL     1       7.286   8.322  17.417  0.00  0.00    +0.000 N 
ATOM     18  H   UNL     1       7.061   8.959  16.664  0.00  0.00    +0.000 HD
BRANCH  15  23
ATOM     19  C   UNL     1      10.157  14.132  17.516  0.00  0.00    +0.000 C 
ATOM     20  C   UNL     1       9.676  12.732  17.765  0.00  0.00    +0.000 A 
ATOM     21  C   UNL     1       8.384  12.353  17.393  0.00  0.00    +0.000 A 
ATOM     22  C   UNL     1       7.951  11.045  17.604  0.00  0.00    +0.000 A 
ATOM     23  C   UNL     1       8.795  10.097  18.202  0.00  0.00    +0.000 A 
ATOM     24  C   UNL     1      10.088  10.467  18.582  0.00  0.00    +0.000 A 
ATOM     25  C   UNL     1      10.522  11.783  18.361  0.00  0.00    +0.000 A 
ENDBRANCH  15  23
ENDBRANCH   1  17
TORSDOF 2
ENDMDL
MODEL 6
REMARK VINA RESULT:      -7.6      6.418      8.017
REMARK  Name = 
REMARK  5 active torsions:
REMARK  status: ('A' for Active; 'I' for Inactive)
REMARK    1  A    between atoms: C_1  and  C_2
REMARK    2  A    between atoms: C_5  and  C_6
REMARK    3  A    between atoms: N_8  and  C_9
REMARK    4  A    between atoms: C_16  and  C_17
REMARK    5  A    between atoms: C_16  and  C_18
REMARK                            x       y       z     vdW  Elec       q    Type
REMARK                         _______ _______ _______ _____ _____    ______ ____
ROOT
ATOM      1  C   UNL     1       1.380   8.278  20.020  0.00  0.00    +0.000 A 
ATOM      2  C   UNL     1       2.135   8.328  18.842  0.00  0.00    +0.000 A 
ATOM      3  C   UNL     1       2.810   7.204  18.362  0.00  0.00    +0.000 A 
ATOM      4  C   UNL     1       2.732   6.008  19.063  0.00  0.00    +0.000 A 
ATOM      5  C   UNL     1       2.018   5.941  20.260  0.00  0.00    +0.000 A 
ATOM      6  C   UNL     1       1.365   7.081  20.752  0.00  0.00    +0.000 A 
ATOM      7  O   UNL     1       1.941   4.801  21.016  0.00  0.00    +0.000 OA
ATOM      8  C   UNL     1       2.284   3.585  20.331  0.00  0.00    +0.000 C 
ATOM      9  C   UNL     1       0.988   2.993  19.752  0.00  0.00    +0.000 C 
ATOM     10  C   UNL     1       2.842   2.626  21.390  0.00  0.00    +0.000 C 
ATOM     11  C   UNL     1       3.317   3.674  19.185  0.00  0.00    +0.000 C 
ATOM     12  O   UNL     1       3.970   2.717  18.771  0.00  0.00    +0.000 OA
ATOM     13  N   UNL     1       3.394   4.890  18.566  0.00  0.00    +0.000 N 
ATOM     14  H   UNL     1       3.992   4.953  17.753  0.00  0.00    +0.000 HD
ENDROOT
BRANCH   1  17
ATOM     15  C   UNL     1       0.712   9.926  21.759  0.00  0.00    +0.000 C 
ATOM     16  O   UNL     1       1.460   9.538  22.655  0.00  0.00    +0.000 OA
ATOM     17  N   UNL     1       0.616   9.383  20.484  0.00  0.00    +0.000 N 
ATOM     18  H   UNL     1       0.108   9.912  19.787  0.00  0.00    +0.000 HD
BRANCH  15  23
ATOM     19  C   UNL     1      -2.806  14.403  22.843  0.00  0.00    +0.000 C 
ATOM     20  C   UNL     1      -1.860  13.267  22.580  0.00  0.00    +0.000 A 
ATOM     21  C   UNL     1      -2.031  12.041  23.226  0.00  0.00    +0.000 A 
ATOM     22  C   UNL     1      -1.165  10.982  22.960  0.00  0.00    +0.000 A 
ATOM     23  C   UNL     1      -0.106  11.133  22.052  0.00  0.00    +0.000 A 
ATOM     24  C   UNL     1       0.077  12.356  21.403  0.00  0.00    +0.000 A 
ATOM     25  C   UNL     1      -0.801  13.418  21.670  0.00  0.00    +0.000 A 
ENDBRANCH  15  23
ENDBRANCH   1  17
TORSDOF 2
ENDMDL
MODEL 7
REMARK VINA RESULT:      -7.6      6.216      8.049
REMARK  Name = 
REMARK  5 active torsions:
REMARK  status: ('A' for Active; 'I' for Inactive)
REMARK    1  A    between atoms: C_1  and  C_2
REMARK    2  A    between atoms: C_5  and  C_6
REMARK    3  A    between atoms: N_8  and  C_9
REMARK    4  A    between atoms: C_16  and  C_17
REMARK    5  A    between atoms: C_16  and  C_18
REMARK                            x       y       z     vdW  Elec       q    Type
REMARK                         _______ _______ _______ _____ _____    ______ ____
ROOT
ATOM      1  C   UNL     1       1.763   8.317  19.641  0.00  0.00    +0.000 A 
ATOM      2  C   UNL     1       2.334   8.648  18.407  0.00  0.00    +0.000 A 
ATOM      3  C   UNL     1       3.021   7.700  17.646  0.00  0.00    +0.000 A 
ATOM      4  C   UNL     1       3.140   6.400  18.117  0.00  0.00    +0.000 A 
ATOM      5  C   UNL     1       2.613   6.053  19.362  0.00  0.00    +0.000 A 
ATOM      6  C   UNL     1       1.948   7.017  20.135  0.00  0.00    +0.000 A 
ATOM      7  O   UNL     1       2.737   4.798  19.897  0.00  0.00    +0.000 OA
ATOM      8  C   UNL     1       3.073   3.761  18.961  0.00  0.00    +0.000 C 
ATOM      9  C   UNL     1       1.759   3.146  18.452  0.00  0.00    +0.000 C 
ATOM     10  C   UNL     1       3.853   2.697  19.744  0.00  0.00    +0.000 C 
ATOM     11  C   UNL     1       3.921   4.154  17.729  0.00  0.00    +0.000 C 
ATOM     12  O   UNL     1       4.581   3.356  17.066  0.00  0.00    +0.000 OA
ATOM     13  N   UNL     1       3.811   5.459  17.342  0.00  0.00    +0.000 N 
ATOM     14  H   UNL     1       4.278   5.724  16.485  0.00  0.00    +0.000 HD
ENDROOT
BRANCH   1  17
ATOM     15  C   UNL     1      -0.008  10.049  19.864  0.00  0.00    +0.000 C 
ATOM     16  O   UNL     1      -0.358  10.085  18.687  0.00  0.00    +0.000 OA
ATOM     17  N   UNL     1       0.988   9.239  20.395  0.00  0.00    +0.000 N 
ATOM     18  H   UNL     1       1.044   9.166  21.403  0.00  0.00    +0.000 HD
BRANCH  15  23
ATOM     19  C   UNL     1      -3.134  13.024  23.734  0.00  0.00    +0.000 C 
ATOM     20  C   UNL     1      -2.303  12.292  22.720  0.00  0.00    +0.000 A 
ATOM     21  C   UNL     1      -1.427  11.281  23.123  0.00  0.00    +0.000 A 
ATOM     22  C   UNL     1      -0.675  10.588  22.177  0.00  0.00    +0.000 A 
ATOM     23  C   UNL     1      -0.776  10.900  20.813  0.00  0.00    +0.000 A 
ATOM     24  C   UNL     1      -1.646  11.912  20.399  0.00  0.00    +0.000 A 
ATOM     25  C   UNL     1      -2.406  12.603  21.355  0.00  0.00    +0.000 A 
ENDBRANCH  15  23
ENDBRANCH   1  17
TORSDOF 2
ENDMDL
MODEL 8
REMARK VINA RESULT:      -7.6      5.955      8.767
REMARK  Name = 
REMARK  5 active torsions:
REMARK  status: ('A' for Active; 'I' for Inactive)
REMARK    1  A    between atoms: C_1  and  C_2
REMARK    2  A    between atoms: C_5  and  C_6
REMARK    3  A    between atoms: N_8  and  C_9
REMARK    4  A    between atoms: C_16  and  C_17
REMARK    5  A    between atoms: C_16  and  C_18
REMARK                            x       y       z     vdW  Elec       q    Type
REMARK                         _______ _______ _______ _____ _____    ______ ____
ROOT
ATOM      1  C   UNL     1       2.084   8.246  18.932  0.00  0.00    +0.000 A 
ATOM      2  C   UNL     1       1.766   7.794  20.218  0.00  0.00    +0.000 A 
ATOM      3  C   UNL     1       0.911   8.516  21.052  0.00  0.00    +0.000 A 
ATOM      4  C   UNL     1       0.359   9.707  20.601  0.00  0.00    +0.000 A 
ATOM      5  C   UNL     1       0.691  10.200  19.338  0.00  0.00    +0.000 A 
ATOM      6  C   UNL     1       1.572   9.484  18.514  0.00  0.00    +0.000 A 
ATOM      7  O   UNL     1       0.211  11.390  18.856  0.00  0.00    +0.000 OA
ATOM      8  C   UNL     1      -0.948  11.904  19.531  0.00  0.00    +0.000 C 
ATOM      9  C   UNL     1      -2.191  11.387  18.789  0.00  0.00    +0.000 C 
ATOM     10  C   UNL     1      -0.890  13.432  19.404  0.00  0.00    +0.000 C 
ATOM     11  C   UNL     1      -1.116  11.564  21.030  0.00  0.00    +0.000 C 
ATOM     12  O   UNL     1      -1.817  12.208  21.808  0.00  0.00    +0.000 OA
ATOM     13  N   UNL     1      -0.506  10.410  21.434  0.00  0.00    +0.000 N 
ATOM     14  H   UNL     1      -0.675  10.111  22.385  0.00  0.00    +0.000 HD
ENDROOT
BRANCH   1  17
ATOM     15  C   UNL     1       3.602   6.354  18.383  0.00  0.00    +0.000 C 
ATOM     16  O   UNL     1       3.651   5.847  19.502  0.00  0.00    +0.000 OA
ATOM     17  N   UNL     1       2.882   7.489  18.032  0.00  0.00    +0.000 N 
ATOM     18  H   UNL     1       2.772   7.687  17.046  0.00  0.00    +0.000 HD
BRANCH  15  23
ATOM     19  C   UNL     1       6.212   3.797  13.884  0.00  0.00    +0.000 C 
ATOM     20  C   UNL     1       5.566   4.440  15.076  0.00  0.00    +0.000 A 
ATOM     21  C   UNL     1       5.545   5.831  15.204  0.00  0.00    +0.000 A 
ATOM     22  C   UNL     1       4.923   6.423  16.301  0.00  0.00    +0.000 A 
ATOM     23  C   UNL     1       4.322   5.637  17.296  0.00  0.00    +0.000 A 
ATOM     24  C   UNL     1       4.342   4.245  17.181  0.00  0.00    +0.000 A 
ATOM     25  C   UNL     1       4.964   3.653  16.071  0.00  0.00    +0.000 A 
ENDBRANCH  15  23
ENDBRANCH   1  17
TORSDOF 2
ENDMDL
MODEL 9
REMARK VINA RESULT:      -7.5      5.270      7.645
REMARK  Name = 
REMARK  5 active torsions:
REMARK  status: ('A' for Active; 'I' for Inactive)
REMARK    1  A    between atoms: C_1  and  C_2
REMARK    2  A    between atoms: C_5  and  C_6
REMARK    3  A    between atoms: N_8  and  C_9
REMARK    4  A    between atoms: C_16  and  C_17
REMARK    5  A    between atoms: C_16  and  C_18
REMARK                            x       y       z     vdW  Elec       q    Type
REMARK                         _______ _______ _______ _____ _____    ______ ____
ROOT
ATOM      1  C   UNL     1       2.230   6.783  19.919  0.00  0.00    +0.000 A 
ATOM      2  C   UNL     1       2.260   5.452  20.353  0.00  0.00    +0.000 A 
ATOM      3  C   UNL     1       3.002   4.483  19.676  0.00  0.00    +0.000 A 
ATOM      4  C   UNL     1       3.731   4.841  18.550  0.00  0.00    +0.000 A 
ATOM      5  C   UNL     1       3.688   6.152  18.074  0.00  0.00    +0.000 A 
ATOM      6  C   UNL     1       2.918   7.116  18.742  0.00  0.00    +0.000 A 
ATOM      7  O   UNL     1       4.352   6.555  16.945  0.00  0.00    +0.000 OA
ATOM      8  C   UNL     1       5.404   5.680  16.506  0.00  0.00    +0.000 C 
ATOM      9  C   UNL     1       6.714   6.163  17.149  0.00  0.00    +0.000 C 
ATOM     10  C   UNL     1       5.505   5.842  14.984  0.00  0.00    +0.000 C 
ATOM     11  C   UNL     1       5.256   4.171  16.809  0.00  0.00    +0.000 C 
ATOM     12  O   UNL     1       5.852   3.285  16.199  0.00  0.00    +0.000 OA
ATOM     13  N   UNL     1       4.482   3.871  17.894  0.00  0.00    +0.000 N 
ATOM     14  H   UNL     1       4.442   2.900  18.174  0.00  0.00    +0.000 HD
ENDROOT
BRANCH   1  17
ATOM     15  C   UNL     1       1.060   8.973  20.067  0.00  0.00    +0.000 C 
ATOM     16  O   UNL     1       1.138   9.286  18.881  0.00  0.00    +0.000 OA
ATOM     17  N   UNL     1       1.552   7.805  20.636  0.00  0.00    +0.000 N 
ATOM     18  H   UNL     1       1.254   7.581  21.577  0.00  0.00    +0.000 HD
BRANCH  15  23
ATOM     19  C   UNL     1      -2.135  12.279  23.596  0.00  0.00    +0.000 C 
ATOM     20  C   UNL     1      -1.275  11.455  22.683  0.00  0.00    +0.000 A 
ATOM     21  C   UNL     1      -0.802  10.206  23.094  0.00  0.00    +0.000 A 
ATOM     22  C   UNL     1      -0.024   9.434  22.233  0.00  0.00    +0.000 A 
ATOM     23  C   UNL     1       0.305   9.900  20.952  0.00  0.00    +0.000 A 
ATOM     24  C   UNL     1      -0.159  11.149  20.532  0.00  0.00    +0.000 A 
ATOM     25  C   UNL     1      -0.947  11.921  21.399  0.00  0.00    +0.000 A 
ENDBRANCH  15  23
ENDBRANCH   1  17
TORSDOF 2
ENDMDL
