MODEL 1
REMARK VINA RESULT:      -8.3      0.000      0.000
REMARK  Name = 
REMARK  5 active torsions:
REMARK  status: ('A' for Active; 'I' for Inactive)
REMARK    1  A    between atoms: C_2  and  C_17
REMARK    2  A    between atoms: N_3  and  N_4
REMARK    3  A    between atoms: C_5  and  C_6
REMARK    4  A    between atoms: C_7  and  O_8
REMARK    5  A    between atoms: C_20  and  N_21
REMARK                            x       y       z     vdW  Elec       q    Type
REMARK                         _______ _______ _______ _____ _____    ______ ____
ROOT
ATOM      1  N   UNL     1       1.188   8.894  18.943  0.00  0.00    +0.000 NA
ATOM      2  C   UNL     1       0.868  10.023  18.383  0.00  0.00    +0.000 C 
ENDROOT
BRANCH   2   3
ATOM      3  C   UNL     1      -0.327  10.770  18.853  0.00  0.00    +0.000 A 
ATOM      4  C   UNL     1      -0.217  11.532  20.030  0.00  0.00    +0.000 A 
ATOM      5  C   UNL     1      -1.295  12.268  20.503  0.00  0.00    +0.000 A 
ATOM      6  C   UNL     1      -2.504  12.242  19.815  0.00  0.00    +0.000 A 
ATOM      7  C   UNL     1      -2.651  11.486  18.643  0.00  0.00    +0.000 A 
ATOM      8  C   UNL     1      -3.892  11.477  17.984  0.00  0.00    +0.000 A 
ATOM      9  C   UNL     1      -4.084  10.727  16.827  0.00  0.00    +0.000 A 
ATOM     10  C   UNL     1      -3.037   9.973  16.316  0.00  0.00    +0.000 A 
ATOM     11  C   UNL     1      -1.793   9.973  16.959  0.00  0.00    +0.000 A 
ATOM     12  C   UNL     1      -1.559  10.730  18.134  0.00  0.00    +0.000 A 
BRANCH   4  13
ATOM     13  O   UNL     1       0.934  11.619  20.768  0.00  0.00    +0.000 OA
ATOM     14  H   UNL     1       0.850  11.014  21.541  0.00  0.00    +0.000 HD
ENDBRANCH   4  13
ENDBRANCH   2   3
BRANCH   1  17
ATOM     15  O   UNL     1       2.094   6.452  19.924  0.00  0.00    +0.000 OA
ATOM     16  C   UNL     1       2.670   7.030  19.011  0.00  0.00    +0.000 C 
ATOM     17  N   UNL     1       2.289   8.252  18.456  0.00  0.00    +0.000 N 
ATOM     18  H   UNL     1       2.747   8.626  17.636  0.00  0.00    +0.000 HD
BRANCH  16  19
ATOM     19  C   UNL     1       3.882   6.404  18.397  0.00  0.00    +0.000 A 
ATOM     20  C   UNL     1       4.592   5.417  19.100  0.00  0.00    +0.000 A 
ATOM     21  C   UNL     1       5.738   4.839  18.539  0.00  0.00    +0.000 A 
ATOM     22  C   UNL     1       6.177   5.253  17.272  0.00  0.00    +0.000 A 
ATOM     23  C   UNL     1       5.466   6.229  16.562  0.00  0.00    +0.000 A 
ATOM     24  C   UNL     1       4.329   6.805  17.127  0.00  0.00    +0.000 A 
BRANCH  22  25
ATOM     25  N   UNL     1       7.381   4.652  16.682  0.00  0.00    +0.000 N 
ATOM     26  O   UNL     1       8.201   4.131  17.449  0.00  0.00    +0.000 OA
ATOM     27  O   UNL     1       7.499   4.700  15.449  0.00  0.00    +0.000 OA
ENDBRANCH  22  25
ENDBRANCH  16  19
ENDBRANCH   1  17
TORSDOF 5
ENDMDL
MODEL 2
REMARK VINA RESULT:      -8.1      0.522      1.195
REMARK  Name = 
REMARK  5 active torsions:
REMARK  status: ('A' for Active; 'I' for Inactive)
REMARK    1  A    between atoms: C_2  and  C_17
REMARK    2  A    between atoms: N_3  and  N_4
REMARK    3  A    between atoms: C_5  and  C_6
REMARK    4  A    between atoms: C_7  and  O_8
REMARK    5  A    between atoms: C_20  and  N_21
REMARK                            x       y       z     vdW  Elec       q    Type
REMARK                         _______ _______ _______ _____ _____    ______ ____
ROOT
ATOM      1  N   UNL     1       1.204   8.991  18.940  0.00  0.00    +0.000 NA
ATOM      2  C   UNL     1       0.653   9.921  18.218  0.00  0.00    +0.000 C 
ENDROOT
BRANCH   2   3
ATOM      3  C   UNL     1      -0.463  10.728  18.776  0.00  0.00    +0.000 A 
ATOM      4  C   UNL     1      -0.239  11.444  19.965  0.00  0.00    +0.000 A 
ATOM      5  C   UNL     1      -1.238  12.232  20.519  0.00  0.00    +0.000 A 
ATOM      6  C   UNL     1      -2.482  12.306  19.900  0.00  0.00    +0.000 A 
ATOM      7  C   UNL     1      -2.743  11.598  18.718  0.00  0.00    +0.000 A 
ATOM      8  C   UNL     1      -4.016  11.688  18.130  0.00  0.00    +0.000 A 
ATOM      9  C   UNL     1      -4.320  10.989  16.966  0.00  0.00    +0.000 A 
ATOM     10  C   UNL     1      -3.354  10.186  16.375  0.00  0.00    +0.000 A 
ATOM     11  C   UNL     1      -2.080  10.087  16.947  0.00  0.00    +0.000 A 
ATOM     12  C   UNL     1      -1.732  10.789  18.127  0.00  0.00    +0.000 A 
BRANCH   4  13
ATOM     13  O   UNL     1       0.954  11.435  20.639  0.00  0.00    +0.000 OA
ATOM     14  H   UNL     1       1.383  12.313  20.517  0.00  0.00    +0.000 HD
ENDBRANCH   4  13
ENDBRANCH   2   3
BRANCH   1  17
ATOM     15  O   UNL     1       2.076   6.528  19.898  0.00  0.00    +0.000 OA
ATOM     16  C   UNL     1       2.586   7.051  18.915  0.00  0.00    +0.000 C 
ATOM     17  N   UNL     1       2.215   8.278  18.365  0.00  0.00    +0.000 N 
ATOM     18  H   UNL     1       2.606   8.606  17.493  0.00  0.00    +0.000 HD
BRANCH  16  19
ATOM     19  C   UNL     1       3.696   6.345  18.201  0.00  0.00    +0.000 A 
ATOM     20  C   UNL     1       4.401   7.002  17.180  0.00  0.00    +0.000 A 
ATOM     21  C   UNL     1       5.430   6.342  16.496  0.00  0.00    +0.000 A 
ATOM     22  C   UNL     1       5.751   5.018  16.833  0.00  0.00    +0.000 A 
ATOM     23  C   UNL     1       5.058   4.361  17.858  0.00  0.00    +0.000 A 
ATOM     24  C   UNL     1       4.031   5.022  18.532  0.00  0.00    +0.000 A 
BRANCH  22  25
ATOM     25  N   UNL     1       6.826   4.320  16.115  0.00  0.00    +0.000 N 
ATOM     26  O   UNL     1       6.538   3.754  15.052  0.00  0.00    +0.000 OA
ATOM     27  O   UNL     1       7.959   4.345  16.616  0.00  0.00    +0.000 OA
ENDBRANCH  22  25
ENDBRANCH  16  19
ENDBRANCH   1  17
TORSDOF 5
ENDMDL
MODEL 3
REMARK VINA RESULT:      -8.1      5.598      8.881
REMARK  Name = 
REMARK  5 active torsions:
REMARK  status: ('A' for Active; 'I' for Inactive)
REMARK    1  A    between atoms: C_2  and  C_17
REMARK    2  A    between atoms: N_3  and  N_4
REMARK    3  A    between atoms: C_5  and  C_6
REMARK    4  A    between atoms: C_7  and  O_8
REMARK    5  A    between atoms: C_20  and  N_21
REMARK                            x       y       z     vdW  Elec       q    Type
REMARK                         _______ _______ _______ _____ _____    ______ ____
ROOT
ATOM      1  N   UNL     1       7.467   7.669  17.163  0.00  0.00    +0.000 NA
ATOM      2  C   UNL     1       6.233   7.486  16.799  0.00  0.00    +0.000 C 
ENDROOT
BRANCH   2   3
ATOM      3  C   UNL     1       5.700   6.108  16.649  0.00  0.00    +0.000 A 
ATOM      4  C   UNL     1       6.458   5.175  15.921  0.00  0.00    +0.000 A 
ATOM      5  C   UNL     1       6.020   3.867  15.767  0.00  0.00    +0.000 A 
ATOM      6  C   UNL     1       4.808   3.475  16.328  0.00  0.00    +0.000 A 
ATOM      7  C   UNL     1       4.022   4.381  17.053  0.00  0.00    +0.000 A 
ATOM      8  C   UNL     1       2.798   3.950  17.594  0.00  0.00    +0.000 A 
ATOM      9  C   UNL     1       1.981   4.823  18.306  0.00  0.00    +0.000 A 
ATOM     10  C   UNL     1       2.376   6.141  18.484  0.00  0.00    +0.000 A 
ATOM     11  C   UNL     1       3.593   6.587  17.955  0.00  0.00    +0.000 A 
ATOM     12  C   UNL     1       4.454   5.726  17.231  0.00  0.00    +0.000 A 
BRANCH   4  13
ATOM     13  O   UNL     1       7.663   5.471  15.339  0.00  0.00    +0.000 OA
ATOM     14  H   UNL     1       8.220   4.658  15.356  0.00  0.00    +0.000 HD
ENDBRANCH   4  13
ENDBRANCH   2   3
BRANCH   1  17
ATOM     15  O   UNL     1       8.983   8.604  19.301  0.00  0.00    +0.000 OA
ATOM     16  C   UNL     1       8.653   9.339  18.379  0.00  0.00    +0.000 C 
ATOM     17  N   UNL     1       7.897   8.959  17.270  0.00  0.00    +0.000 N 
ATOM     18  H   UNL     1       7.745   9.588  16.493  0.00  0.00    +0.000 HD
BRANCH  16  19
ATOM     19  C   UNL     1       9.084  10.772  18.392  0.00  0.00    +0.000 A 
ATOM     20  C   UNL     1       8.317  11.740  17.725  0.00  0.00    +0.000 A 
ATOM     21  C   UNL     1       8.723  13.081  17.719  0.00  0.00    +0.000 A 
ATOM     22  C   UNL     1       9.904  13.452  18.380  0.00  0.00    +0.000 A 
ATOM     23  C   UNL     1      10.667  12.492  19.057  0.00  0.00    +0.000 A 
ATOM     24  C   UNL     1      10.260  11.158  19.056  0.00  0.00    +0.000 A 
BRANCH  22  25
ATOM     25  N   UNL     1      10.336  14.856  18.373  0.00  0.00    +0.000 N 
ATOM     26  O   UNL     1      11.293  15.169  19.095  0.00  0.00    +0.000 OA
ATOM     27  O   UNL     1       9.720  15.642  17.640  0.00  0.00    +0.000 OA
ENDBRANCH  22  25
ENDBRANCH  16  19
ENDBRANCH   1  17
TORSDOF 5
ENDMDL
MODEL 4
REMARK VINA RESULT:      -7.9      1.956      2.579
REMARK  Name = 
REMARK  5 active torsions:
REMARK  status: ('A' for Active; 'I' for Inactive)
REMARK    1  A    between atoms: C_2  and  C_17
REMARK    2  A    between atoms: N_3  and  N_4
REMARK    3  A    between atoms: C_5  and  C_6
REMARK    4  A    between atoms: C_7  and  O_8
REMARK    5  A    between atoms: C_20  and  N_21
REMARK                            x       y       z     vdW  Elec       q    Type
REMARK                         _______ _______ _______ _____ _____    ______ ____
ROOT
ATOM      1  N   UNL     1       1.735   7.976  19.634  0.00  0.00    +0.000 NA
ATOM      2  C   UNL     1       1.469   9.248  19.631  0.00  0.00    +0.000 C 
ENDROOT
BRANCH   2   3
ATOM      3  C   UNL     1       0.589   9.823  20.680  0.00  0.00    +0.000 A 
ATOM      4  C   UNL     1       0.774   9.405  22.010  0.00  0.00    +0.000 A 
ATOM      5  C   UNL     1      -0.006   9.926  23.033  0.00  0.00    +0.000 A 
ATOM      6  C   UNL     1      -0.993  10.862  22.742  0.00  0.00    +0.000 A 
ATOM      7  C   UNL     1      -1.211  11.295  21.426  0.00  0.00    +0.000 A 
ATOM      8  C   UNL     1      -2.225  12.233  21.170  0.00  0.00    +0.000 A 
ATOM      9  C   UNL     1      -2.484  12.676  19.876  0.00  0.00    +0.000 A 
ATOM     10  C   UNL     1      -1.733  12.183  18.819  0.00  0.00    +0.000 A 
ATOM     11  C   UNL     1      -0.716  11.249  19.056  0.00  0.00    +0.000 A 
ATOM     12  C   UNL     1      -0.420  10.782  20.360  0.00  0.00    +0.000 A 
BRANCH   4  13
ATOM     13  O   UNL     1       1.722   8.493  22.389  0.00  0.00    +0.000 OA
ATOM     14  H   UNL     1       2.387   8.955  22.951  0.00  0.00    +0.000 HD
ENDBRANCH   4  13
ENDBRANCH   2   3
BRANCH   1  17
ATOM     15  O   UNL     1       3.127   5.570  19.788  0.00  0.00    +0.000 OA
ATOM     16  C   UNL     1       3.200   6.292  18.801  0.00  0.00    +0.000 C 
ATOM     17  N   UNL     1       2.540   7.509  18.636  0.00  0.00    +0.000 N 
ATOM     18  H   UNL     1       2.561   8.006  17.756  0.00  0.00    +0.000 HD
BRANCH  16  19
ATOM     19  C   UNL     1       4.047   5.866  17.644  0.00  0.00    +0.000 A 
ATOM     20  C   UNL     1       4.232   4.499  17.377  0.00  0.00    +0.000 A 
ATOM     21  C   UNL     1       5.037   4.092  16.306  0.00  0.00    +0.000 A 
ATOM     22  C   UNL     1       5.662   5.057  15.501  0.00  0.00    +0.000 A 
ATOM     23  C   UNL     1       5.471   6.421  15.754  0.00  0.00    +0.000 A 
ATOM     24  C   UNL     1       4.673   6.820  16.826  0.00  0.00    +0.000 A 
BRANCH  22  25
ATOM     25  N   UNL     1       6.511   4.635  14.378  0.00  0.00    +0.000 N 
ATOM     26  O   UNL     1       7.556   5.268  14.175  0.00  0.00    +0.000 OA
ATOM     27  O   UNL     1       6.131   3.666  13.705  0.00  0.00    +0.000 OA
ENDBRANCH  22  25
ENDBRANCH  16  19
ENDBRANCH   1  17
TORSDOF 5
ENDMDL
MODEL 5
REMARK VINA RESULT:      -7.9      1.958      2.727
REMARK  Name = 
REMARK  5 active torsions:
REMARK  status: ('A' for Active; 'I' for Inactive)
REMARK    1  A    between atoms: C_2  and  C_17
REMARK    2  A    between atoms: N_3  and  N_4
REMARK    3  A    between atoms: C_5  and  C_6
REMARK    4  A    between atoms: C_7  and  O_8
REMARK    5  A    between atoms: C_20  and  N_21
REMARK                            x       y       z     vdW  Elec       q    Type
REMARK                         _______ _______ _______ _____ _____    ______ ____
ROOT
ATOM      1  N   UNL     1       1.764   7.986  19.704  0.00  0.00    +0.000 NA
ATOM      2  C   UNL     1       1.486   9.255  19.691  0.00  0.00    +0.000 C 
ENDROOT
BRANCH   2   3
ATOM      3  C   UNL     1       0.578   9.826  20.719  0.00  0.00    +0.000 A 
ATOM      4  C   UNL     1       0.735   9.409  22.052  0.00  0.00    +0.000 A 
ATOM      5  C   UNL     1      -0.070   9.926  23.058  0.00  0.00    +0.000 A 
ATOM      6  C   UNL     1      -1.056  10.856  22.744  0.00  0.00    +0.000 A 
ATOM      7  C   UNL     1      -1.246  11.288  21.423  0.00  0.00    +0.000 A 
ATOM      8  C   UNL     1      -2.259  12.220  21.144  0.00  0.00    +0.000 A 
ATOM      9  C   UNL     1      -2.491  12.661  19.845  0.00  0.00    +0.000 A 
ATOM     10  C   UNL     1      -1.713  12.172  18.805  0.00  0.00    +0.000 A 
ATOM     11  C   UNL     1      -0.697  11.245  19.066  0.00  0.00    +0.000 A 
ATOM     12  C   UNL     1      -0.427  10.779  20.376  0.00  0.00    +0.000 A 
BRANCH   4  13
ATOM     13  O   UNL     1       1.680   8.502  22.454  0.00  0.00    +0.000 OA
ATOM     14  H   UNL     1       1.285   7.601  22.395  0.00  0.00    +0.000 HD
ENDBRANCH   4  13
ENDBRANCH   2   3
BRANCH   1  17
ATOM     15  O   UNL     1       2.747   5.383  19.633  0.00  0.00    +0.000 OA
ATOM     16  C   UNL     1       3.038   6.202  18.771  0.00  0.00    +0.000 C 
ATOM     17  N   UNL     1       2.594   7.523  18.725  0.00  0.00    +0.000 N 
ATOM     18  H   UNL     1       2.789   8.119  17.931  0.00  0.00    +0.000 HD
BRANCH  16  19
ATOM     19  C   UNL     1       3.933   5.793  17.644  0.00  0.00    +0.000 A 
ATOM     20  C   UNL     1       4.522   6.771  16.827  0.00  0.00    +0.000 A 
ATOM     21  C   UNL     1       5.347   6.396  15.759  0.00  0.00    +0.000 A 
ATOM     22  C   UNL     1       5.580   5.035  15.507  0.00  0.00    +0.000 A 
ATOM     23  C   UNL     1       5.005   4.055  16.325  0.00  0.00    +0.000 A 
ATOM     24  C   UNL     1       4.180   4.435  17.383  0.00  0.00    +0.000 A 
BRANCH  22  25
ATOM     25  N   UNL     1       6.442   4.636  14.385  0.00  0.00    +0.000 N 
ATOM     26  O   UNL     1       6.036   3.736  13.638  0.00  0.00    +0.000 OA
ATOM     27  O   UNL     1       7.521   5.230  14.253  0.00  0.00    +0.000 OA
ENDBRANCH  22  25
ENDBRANCH  16  19
ENDBRANCH   1  17
TORSDOF 5
ENDMDL
MODEL 6
REMARK VINA RESULT:      -7.9      3.649      9.248
REMARK  Name = 
REMARK  5 active torsions:
REMARK  status: ('A' for Active; 'I' for Inactive)
REMARK    1  A    between atoms: C_2  and  C_17
REMARK    2  A    between atoms: N_3  and  N_4
REMARK    3  A    between atoms: C_5  and  C_6
REMARK    4  A    between atoms: C_7  and  O_8
REMARK    5  A    between atoms: C_20  and  N_21
REMARK                            x       y       z     vdW  Elec       q    Type
REMARK                         _______ _______ _______ _____ _____    ______ ____
ROOT
ATOM      1  N   UNL     1       2.490   6.342  20.222  0.00  0.00    +0.000 NA
ATOM      2  C   UNL     1       1.861   5.461  19.504  0.00  0.00    +0.000 C 
ENDROOT
BRANCH   2   3
ATOM      3  C   UNL     1       2.627   4.428  18.760  0.00  0.00    +0.000 A 
ATOM      4  C   UNL     1       2.395   3.076  19.067  0.00  0.00    +0.000 A 
ATOM      5  C   UNL     1       3.066   2.068  18.388  0.00  0.00    +0.000 A 
ATOM      6  C   UNL     1       3.992   2.396  17.403  0.00  0.00    +0.000 A 
ATOM      7  C   UNL     1       4.254   3.735  17.077  0.00  0.00    +0.000 A 
ATOM      8  C   UNL     1       5.204   4.027  16.084  0.00  0.00    +0.000 A 
ATOM      9  C   UNL     1       5.506   5.342  15.743  0.00  0.00    +0.000 A 
ATOM     10  C   UNL     1       4.862   6.384  16.395  0.00  0.00    +0.000 A 
ATOM     11  C   UNL     1       3.911   6.111  17.385  0.00  0.00    +0.000 A 
ATOM     12  C   UNL     1       3.573   4.786  17.753  0.00  0.00    +0.000 A 
BRANCH   4  13
ATOM     13  O   UNL     1       1.501   2.660  20.018  0.00  0.00    +0.000 OA
ATOM     14  H   UNL     1       1.589   3.250  20.802  0.00  0.00    +0.000 HD
ENDBRANCH   4  13
ENDBRANCH   2   3
BRANCH   1  17
ATOM     15  O   UNL     1       1.717   8.758  19.075  0.00  0.00    +0.000 OA
ATOM     16  C   UNL     1       1.390   8.455  20.216  0.00  0.00    +0.000 C 
ATOM     17  N   UNL     1       1.729   7.271  20.870  0.00  0.00    +0.000 N 
ATOM     18  H   UNL     1       1.342   7.038  21.774  0.00  0.00    +0.000 HD
BRANCH  16  19
ATOM     19  C   UNL     1       0.544   9.400  21.010  0.00  0.00    +0.000 A 
ATOM     20  C   UNL     1       0.135  10.618  20.445  0.00  0.00    +0.000 A 
ATOM     21  C   UNL     1      -0.644  11.515  21.187  0.00  0.00    +0.000 A 
ATOM     22  C   UNL     1      -1.010  11.192  22.503  0.00  0.00    +0.000 A 
ATOM     23  C   UNL     1      -0.614   9.974  23.069  0.00  0.00    +0.000 A 
ATOM     24  C   UNL     1       0.165   9.087  22.326  0.00  0.00    +0.000 A 
BRANCH  22  25
ATOM     25  N   UNL     1      -1.822  12.132  23.288  0.00  0.00    +0.000 N 
ATOM     26  O   UNL     1      -1.297  13.197  23.638  0.00  0.00    +0.000 OA
ATOM     27  O   UNL     1      -2.988  11.802  23.548  0.00  0.00    +0.000 OA
ENDBRANCH  22  25
ENDBRANCH  16  19
ENDBRANCH   1  17
TORSDOF 5
ENDMDL
MODEL 7
REMARK VINA RESULT:      -7.8      3.796      9.169
REMARK  Name = 
REMARK  5 active torsions:
REMARK  status: ('A' for Active; 'I' for Inactive)
REMARK    1  A    between atoms: C_2  and  C_17
REMARK    2  A    between atoms: N_3  and  N_4
REMARK    3  A    between atoms: C_5  and  C_6
REMARK    4  A    between atoms: C_7  and  O_8
REMARK    5  A    between atoms: C_20  and  N_21
REMARK                            x       y       z     vdW  Elec       q    Type
REMARK                         _______ _______ _______ _____ _____    ______ ____
ROOT
ATOM      1  N   UNL     1       2.194   6.043  20.564  0.00  0.00    +0.000 NA
ATOM      2  C   UNL     1       1.823   5.671  19.376  0.00  0.00    +0.000 C 
ENDROOT
BRANCH   2   3
ATOM      3  C   UNL     1       2.546   4.573  18.684  0.00  0.00    +0.000 A 
ATOM      4  C   UNL     1       2.216   3.246  19.014  0.00  0.00    +0.000 A 
ATOM      5  C   UNL     1       2.844   2.181  18.384  0.00  0.00    +0.000 A 
ATOM      6  C   UNL     1       3.821   2.424  17.424  0.00  0.00    +0.000 A 
ATOM      7  C   UNL     1       4.180   3.735  17.077  0.00  0.00    +0.000 A 
ATOM      8  C   UNL     1       5.180   3.940  16.111  0.00  0.00    +0.000 A 
ATOM      9  C   UNL     1       5.578   5.224  15.750  0.00  0.00    +0.000 A 
ATOM     10  C   UNL     1       4.981   6.322  16.354  0.00  0.00    +0.000 A 
ATOM     11  C   UNL     1       3.981   6.135  17.317  0.00  0.00    +0.000 A 
ATOM     12  C   UNL     1       3.546   4.844  17.703  0.00  0.00    +0.000 A 
BRANCH   4  13
ATOM     13  O   UNL     1       1.265   2.913  19.942  0.00  0.00    +0.000 OA
ATOM     14  H   UNL     1       1.244   1.931  20.021  0.00  0.00    +0.000 HD
ENDBRANCH   4  13
ENDBRANCH   2   3
BRANCH   1  17
ATOM     15  O   UNL     1       1.903   8.549  19.388  0.00  0.00    +0.000 OA
ATOM     16  C   UNL     1       1.405   8.290  20.476  0.00  0.00    +0.000 C 
ATOM     17  N   UNL     1       1.497   7.066  21.139  0.00  0.00    +0.000 N 
ATOM     18  H   UNL     1       0.978   6.884  21.987  0.00  0.00    +0.000 HD
BRANCH  16  19
ATOM     19  C   UNL     1       0.609   9.339  21.187  0.00  0.00    +0.000 A 
ATOM     20  C   UNL     1       0.058   9.064  22.449  0.00  0.00    +0.000 A 
ATOM     21  C   UNL     1      -0.702  10.035  23.113  0.00  0.00    +0.000 A 
ATOM     22  C   UNL     1      -0.915  11.284  22.509  0.00  0.00    +0.000 A 
ATOM     23  C   UNL     1      -0.358  11.568  21.256  0.00  0.00    +0.000 A 
ATOM     24  C   UNL     1       0.394  10.595  20.597  0.00  0.00    +0.000 A 
BRANCH  22  25
ATOM     25  N   UNL     1      -1.715  12.304  23.200  0.00  0.00    +0.000 N 
ATOM     26  O   UNL     1      -2.877  12.012  23.513  0.00  0.00    +0.000 OA
ATOM     27  O   UNL     1      -1.175  13.395  23.433  0.00  0.00    +0.000 OA
ENDBRANCH  22  25
ENDBRANCH  16  19
ENDBRANCH   1  17
TORSDOF 5
ENDMDL
MODEL 8
REMARK VINA RESULT:      -7.7      0.989      1.070
REMARK  Name = 
REMARK  5 active torsions:
REMARK  status: ('A' for Active; 'I' for Inactive)
REMARK    1  A    between atoms: C_2  and  C_17
REMARK    2  A    between atoms: N_3  and  N_4
REMARK    3  A    between atoms: C_5  and  C_6
REMARK    4  A    between atoms: C_7  and  O_8
REMARK    5  A    between atoms: C_20  and  N_21
REMARK                            x       y       z     vdW  Elec       q    Type
REMARK                         _______ _______ _______ _____ _____    ______ ____
ROOT
ATOM      1  N   UNL     1       1.129   9.073  18.836  0.00  0.00    +0.000 NA
ATOM      2  C   UNL     1       0.597  10.112  18.264  0.00  0.00    +0.000 C 
ENDROOT
BRANCH   2   3
ATOM      3  C   UNL     1      -0.444  10.898  18.975  0.00  0.00    +0.000 A 
ATOM      4  C   UNL     1      -0.087  11.553  20.166  0.00  0.00    +0.000 A 
ATOM      5  C   UNL     1      -1.013  12.319  20.861  0.00  0.00    +0.000 A 
ATOM      6  C   UNL     1      -2.315  12.430  20.383  0.00  0.00    +0.000 A 
ATOM      7  C   UNL     1      -2.707  11.783  19.202  0.00  0.00    +0.000 A 
ATOM      8  C   UNL     1      -4.035  11.910  18.758  0.00  0.00    +0.000 A 
ATOM      9  C   UNL     1      -4.468  11.271  17.601  0.00  0.00    +0.000 A 
ATOM     10  C   UNL     1      -3.580  10.492  16.873  0.00  0.00    +0.000 A 
ATOM     11  C   UNL     1      -2.253  10.357  17.300  0.00  0.00    +0.000 A 
ATOM     12  C   UNL     1      -1.774  10.998  18.468  0.00  0.00    +0.000 A 
BRANCH   4  13
ATOM     13  O   UNL     1       1.170  11.503  20.708  0.00  0.00    +0.000 OA
ATOM     14  H   UNL     1       1.671  10.784  20.257  0.00  0.00    +0.000 HD
ENDBRANCH   4  13
ENDBRANCH   2   3
BRANCH   1  17
ATOM     15  O   UNL     1       2.279   6.694  19.711  0.00  0.00    +0.000 OA
ATOM     16  C   UNL     1       2.592   7.203  18.642  0.00  0.00    +0.000 C 
ATOM     17  N   UNL     1       2.070   8.388  18.124  0.00  0.00    +0.000 N 
ATOM     18  H   UNL     1       2.295   8.700  17.189  0.00  0.00    +0.000 HD
BRANCH  16  19
ATOM     19  C   UNL     1       3.607   6.524  17.777  0.00  0.00    +0.000 A 
ATOM     20  C   UNL     1       3.536   5.137  17.571  0.00  0.00    +0.000 A 
ATOM     21  C   UNL     1       4.492   4.492  16.776  0.00  0.00    +0.000 A 
ATOM     22  C   UNL     1       5.526   5.238  16.190  0.00  0.00    +0.000 A 
ATOM     23  C   UNL     1       5.596   6.624  16.383  0.00  0.00    +0.000 A 
ATOM     24  C   UNL     1       4.643   7.260  17.179  0.00  0.00    +0.000 A 
BRANCH  22  25
ATOM     25  N   UNL     1       6.534   4.565  15.360  0.00  0.00    +0.000 N 
ATOM     26  O   UNL     1       7.607   5.152  15.166  0.00  0.00    +0.000 OA
ATOM     27  O   UNL     1       6.250   3.447  14.907  0.00  0.00    +0.000 OA
ENDBRANCH  22  25
ENDBRANCH  16  19
ENDBRANCH   1  17
TORSDOF 5
ENDMDL
MODEL 9
REMARK VINA RESULT:      -7.7      4.050      9.191
REMARK  Name = 
REMARK  5 active torsions:
REMARK  status: ('A' for Active; 'I' for Inactive)
REMARK    1  A    between atoms: C_2  and  C_17
REMARK    2  A    between atoms: N_3  and  N_4
REMARK    3  A    between atoms: C_5  and  C_6
REMARK    4  A    between atoms: C_7  and  O_8
REMARK    5  A    between atoms: C_20  and  N_21
REMARK                            x       y       z     vdW  Elec       q    Type
REMARK                         _______ _______ _______ _____ _____    ______ ____
ROOT
ATOM      1  N   UNL     1       1.829   7.402  20.509  0.00  0.00    +0.000 NA
ATOM      2  C   UNL     1       2.146   7.207  19.264  0.00  0.00    +0.000 C 
ENDROOT
BRANCH   2   3
ATOM      3  C   UNL     1       2.585   5.862  18.812  0.00  0.00    +0.000 A 
ATOM      4  C   UNL     1       2.021   4.733  19.431  0.00  0.00    +0.000 A 
ATOM      5  C   UNL     1       2.378   3.452  19.034  0.00  0.00    +0.000 A 
ATOM      6  C   UNL     1       3.316   3.279  18.021  0.00  0.00    +0.000 A 
ATOM      7  C   UNL     1       3.905   4.383  17.387  0.00  0.00    +0.000 A 
ATOM      8  C   UNL     1       4.857   4.167  16.377  0.00  0.00    +0.000 A 
ATOM      9  C   UNL     1       5.477   5.234  15.734  0.00  0.00    +0.000 A 
ATOM     10  C   UNL     1       5.154   6.535  16.098  0.00  0.00    +0.000 A 
ATOM     11  C   UNL     1       4.206   6.767  17.101  0.00  0.00    +0.000 A 
ATOM     12  C   UNL     1       3.550   5.706  17.771  0.00  0.00    +0.000 A 
BRANCH   4  13
ATOM     13  O   UNL     1       1.089   4.808  20.432  0.00  0.00    +0.000 OA
ATOM     14  H   UNL     1       0.723   3.905  20.581  0.00  0.00    +0.000 HD
ENDBRANCH   4  13
ENDBRANCH   2   3
BRANCH   1  17
ATOM     15  O   UNL     1      -0.616   7.981  21.706  0.00  0.00    +0.000 OA
ATOM     16  C   UNL     1       0.200   8.859  21.457  0.00  0.00    +0.000 C 
ATOM     17  N   UNL     1       1.446   8.663  20.861  0.00  0.00    +0.000 N 
ATOM     18  H   UNL     1       2.116   9.416  20.775  0.00  0.00    +0.000 HD
BRANCH  16  19
ATOM     19  C   UNL     1      -0.116  10.277  21.815  0.00  0.00    +0.000 A 
ATOM     20  C   UNL     1      -1.020  10.552  22.853  0.00  0.00    +0.000 A 
ATOM     21  C   UNL     1      -1.334  11.877  23.184  0.00  0.00    +0.000 A 
ATOM     22  C   UNL     1      -0.744  12.930  22.468  0.00  0.00    +0.000 A 
ATOM     23  C   UNL     1       0.167  12.662  21.438  0.00  0.00    +0.000 A 
ATOM     24  C   UNL     1       0.472  11.341  21.111  0.00  0.00    +0.000 A 
BRANCH  22  25
ATOM     25  N   UNL     1      -1.074  14.321  22.807  0.00  0.00    +0.000 N 
ATOM     26  O   UNL     1      -1.724  14.977  21.983  0.00  0.00    +0.000 OA
ATOM     27  O   UNL     1      -0.685  14.750  23.903  0.00  0.00    +0.000 OA
ENDBRANCH  22  25
ENDBRANCH  16  19
ENDBRANCH   1  17
TORSDOF 5
ENDMDL
