MODEL 1
REMARK VINA RESULT:      -8.1      0.000      0.000
REMARK  Name = 
REMARK  12 active torsions:
REMARK  status: ('A' for Active; 'I' for Inactive)
REMARK    1  A    between atoms: C_1  and  C_2
REMARK    2  A    between atoms: N_4  and  C_5
REMARK    3  A    between atoms: C_6  and  N_7
REMARK    4  A    between atoms: C_9  and  C_10
REMARK    5  A    between atoms: C_10  and  O_12
REMARK    6  A    between atoms: C_14  and  C_15
REMARK    7  A    between atoms: N_17  and  C_18
REMARK    8  A    between atoms: N_17  and  C_23
REMARK    9  A    between atoms: C_18  and  C_19
REMARK   10  A    between atoms: C_19  and  N_20
REMARK   11  A    between atoms: C_23  and  C_24
REMARK   12  A    between atoms: C_24  and  C_25
REMARK                            x       y       z     vdW  Elec       q    Type
REMARK                         _______ _______ _______ _____ _____    ______ ____
ROOT
ATOM      1  C   UNL     1       5.614   4.788  15.575  0.00  0.00    +0.000 C 
ATOM      2  C   UNL     1       7.175   4.860  15.602  0.00  0.00    +0.000 C 
ATOM      3  C   UNL     1       7.740   5.244  16.916  0.00  0.00    +0.000 C 
ATOM      4  C   UNL     1       6.989   5.366  18.018  0.00  0.00    +0.000 C 
ATOM      5  O   UNL     1       5.619   5.130  18.034  0.00  0.00    +0.000 OA
ATOM      6  C   UNL     1       5.170   4.219  16.968  0.00  0.00    +0.000 C 
ENDROOT
BRANCH   1  10
ATOM      7  C   UNL     1       5.071   2.890  12.194  0.00  0.00    +0.000 C 
ATOM      8  C   UNL     1       5.773   3.805  13.178  0.00  0.00    +0.000 C 
ATOM      9  O   UNL     1       6.939   4.119  12.965  0.00  0.00    +0.000 OA
ATOM     10  N   UNL     1       5.067   4.160  14.322  0.00  0.00    +0.000 N 
ATOM     11  H   UNL     1       4.068   3.982  14.327  0.00  0.00    +0.000 HD
ENDBRANCH   1  10
BRANCH   2  12
ATOM     12  N   UNL     1       7.694   5.771  14.582  0.00  0.00    +0.000 NA
ATOM     13  H   UNL     1       8.261   6.494  15.018  0.00  0.00    +0.000 HD
ATOM     14  H   UNL     1       6.885   6.245  14.173  0.00  0.00    +0.000 HD
ENDBRANCH   2  12
BRANCH   6  15
ATOM     15  C   UNL     1       3.635   3.966  17.135  0.00  0.00    +0.000 C 
ATOM     16  O   UNL     1       3.128   2.996  16.561  0.00  0.00    +0.000 OA
ATOM     17  N   UNL     1       2.839   4.847  17.882  0.00  0.00    +0.000 N 
BRANCH  17  18
ATOM     18  C   UNL     1       1.419   4.555  18.198  0.00  0.00    +0.000 C 
BRANCH  18  19
ATOM     19  C   UNL     1       0.998   3.574  19.290  0.00  0.00    +0.000 C 
BRANCH  19  20
ATOM     20  N   UNL     1       1.185   4.166  20.620  0.00  0.00    +0.000 NA
ATOM     21  N   UNL     1       1.799   3.435  21.423  0.00  0.00    +0.000 NA
ATOM     22  N   UNL     1       2.342   2.759  22.160  0.00  0.00    +0.000 NA
ENDBRANCH  19  20
ENDBRANCH  18  19
ENDBRANCH  17  18
BRANCH  17  23
ATOM     23  C   UNL     1       3.247   6.134  18.468  0.00  0.00    +0.000 C 
BRANCH  23  24
ATOM     24  C   UNL     1       2.909   7.483  17.816  0.00  0.00    +0.000 C 
BRANCH  24  25
ATOM     25  C   UNL     1       2.001   8.370  18.620  0.00  0.00    +0.000 A 
ATOM     26  C   UNL     1       1.741   8.121  19.972  0.00  0.00    +0.000 A 
ATOM     27  C   UNL     1       0.900   8.949  20.704  0.00  0.00    +0.000 A 
ATOM     28  C   UNL     1       0.327  10.054  20.096  0.00  0.00    +0.000 A 
ATOM     29  C   UNL     1       0.583  10.330  18.753  0.00  0.00    +0.000 A 
ATOM     30  C   UNL     1       1.415   9.491  18.018  0.00  0.00    +0.000 A 
ENDBRANCH  24  25
ENDBRANCH  23  24
ENDBRANCH  17  23
ENDBRANCH   6  15
BRANCH   4  31
ATOM     31  C   UNL     1       7.706   5.755  19.277  0.00  0.00    +0.000 C 
ATOM     32  O   UNL     1       7.603   5.180  20.338  0.00  0.00    +0.000 OA
BRANCH  31  33
ATOM     33  O   UNL     1       8.465   6.859  19.095  0.00  0.00    +0.000 OA
ATOM     34  H   UNL     1       7.906   7.652  18.998  0.00  0.00    +0.000 HD
ENDBRANCH  31  33
ENDBRANCH   4  31
TORSDOF 11
ENDMDL
MODEL 2
REMARK VINA RESULT:      -8.0      2.441      4.902
REMARK  Name = 
REMARK  12 active torsions:
REMARK  status: ('A' for Active; 'I' for Inactive)
REMARK    1  A    between atoms: C_1  and  C_2
REMARK    2  A    between atoms: N_4  and  C_5
REMARK    3  A    between atoms: C_6  and  N_7
REMARK    4  A    between atoms: C_9  and  C_10
REMARK    5  A    between atoms: C_10  and  O_12
REMARK    6  A    between atoms: C_14  and  C_15
REMARK    7  A    between atoms: N_17  and  C_18
REMARK    8  A    between atoms: N_17  and  C_23
REMARK    9  A    between atoms: C_18  and  C_19
REMARK   10  A    between atoms: C_19  and  N_20
REMARK   11  A    between atoms: C_23  and  C_24
REMARK   12  A    between atoms: C_24  and  C_25
REMARK                            x       y       z     vdW  Elec       q    Type
REMARK                         _______ _______ _______ _____ _____    ______ ____
ROOT
ATOM      1  C   UNL     1       4.720   3.083  18.092  0.00  0.00    +0.000 C 
ATOM      2  C   UNL     1       3.508   2.098  18.026  0.00  0.00    +0.000 C 
ATOM      3  C   UNL     1       2.592   2.189  19.185  0.00  0.00    +0.000 C 
ATOM      4  C   UNL     1       2.707   3.134  20.126  0.00  0.00    +0.000 C 
ATOM      5  O   UNL     1       3.683   4.124  20.093  0.00  0.00    +0.000 OA
ATOM      6  C   UNL     1       4.183   4.408  18.738  0.00  0.00    +0.000 C 
ENDROOT
BRANCH   1  10
ATOM      7  C   UNL     1       6.164   3.983  14.566  0.00  0.00    +0.000 C 
ATOM      8  C   UNL     1       5.090   3.730  15.606  0.00  0.00    +0.000 C 
ATOM      9  O   UNL     1       3.945   4.109  15.379  0.00  0.00    +0.000 OA
ATOM     10  N   UNL     1       5.497   3.160  16.806  0.00  0.00    +0.000 N 
ATOM     11  H   UNL     1       6.423   2.743  16.834  0.00  0.00    +0.000 HD
ENDBRANCH   1  10
BRANCH   2  12
ATOM     12  N   UNL     1       3.945   0.710  17.878  0.00  0.00    +0.000 NA
ATOM     13  H   UNL     1       4.958   0.671  17.798  0.00  0.00    +0.000 HD
ATOM     14  H   UNL     1       3.572   0.378  16.984  0.00  0.00    +0.000 HD
ENDBRANCH   2  12
BRANCH   6  15
ATOM     15  C   UNL     1       5.210   5.585  18.816  0.00  0.00    +0.000 C 
ATOM     16  O   UNL     1       6.123   5.521  19.648  0.00  0.00    +0.000 OA
ATOM     17  N   UNL     1       5.072   6.714  17.995  0.00  0.00    +0.000 N 
BRANCH  17  18
ATOM     18  C   UNL     1       6.111   7.771  17.925  0.00  0.00    +0.000 C 
BRANCH  18  19
ATOM     19  C   UNL     1       7.556   7.489  17.519  0.00  0.00    +0.000 C 
BRANCH  19  20
ATOM     20  N   UNL     1       7.615   6.403  16.533  0.00  0.00    +0.000 NA
ATOM     21  N   UNL     1       7.901   5.290  17.015  0.00  0.00    +0.000 NA
ATOM     22  N   UNL     1       8.182   4.277  17.455  0.00  0.00    +0.000 NA
ENDBRANCH  19  20
ENDBRANCH  18  19
ENDBRANCH  17  18
BRANCH  17  23
ATOM     23  C   UNL     1       3.951   7.027  17.095  0.00  0.00    +0.000 C 
BRANCH  23  24
ATOM     24  C   UNL     1       2.483   6.855  17.512  0.00  0.00    +0.000 C 
BRANCH  24  25
ATOM     25  C   UNL     1       1.974   7.877  18.490  0.00  0.00    +0.000 A 
ATOM     26  C   UNL     1       1.486   9.117  18.067  0.00  0.00    +0.000 A 
ATOM     27  C   UNL     1       1.019  10.053  18.980  0.00  0.00    +0.000 A 
ATOM     28  C   UNL     1       1.011   9.747  20.332  0.00  0.00    +0.000 A 
ATOM     29  C   UNL     1       1.480   8.511  20.776  0.00  0.00    +0.000 A 
ATOM     30  C   UNL     1       1.961   7.580  19.859  0.00  0.00    +0.000 A 
ENDBRANCH  24  25
ENDBRANCH  23  24
ENDBRANCH  17  23
ENDBRANCH   6  15
BRANCH   4  31
ATOM     31  C   UNL     1       1.699   3.100  21.236  0.00  0.00    +0.000 C 
ATOM     32  O   UNL     1       1.970   3.033  22.416  0.00  0.00    +0.000 OA
BRANCH  31  33
ATOM     33  O   UNL     1       0.434   3.120  20.760  0.00  0.00    +0.000 OA
ATOM     34  H   UNL     1       0.085   2.214  20.664  0.00  0.00    +0.000 HD
ENDBRANCH  31  33
ENDBRANCH   4  31
TORSDOF 11
ENDMDL
MODEL 3
REMARK VINA RESULT:      -8.0      1.356      4.005
REMARK  Name = 
REMARK  12 active torsions:
REMARK  status: ('A' for Active; 'I' for Inactive)
REMARK    1  A    between atoms: C_1  and  C_2
REMARK    2  A    between atoms: N_4  and  C_5
REMARK    3  A    between atoms: C_6  and  N_7
REMARK    4  A    between atoms: C_9  and  C_10
REMARK    5  A    between atoms: C_10  and  O_12
REMARK    6  A    between atoms: C_14  and  C_15
REMARK    7  A    between atoms: N_17  and  C_18
REMARK    8  A    between atoms: N_17  and  C_23
REMARK    9  A    between atoms: C_18  and  C_19
REMARK   10  A    between atoms: C_19  and  N_20
REMARK   11  A    between atoms: C_23  and  C_24
REMARK   12  A    between atoms: C_24  and  C_25
REMARK                            x       y       z     vdW  Elec       q    Type
REMARK                         _______ _______ _______ _____ _____    ______ ____
ROOT
ATOM      1  C   UNL     1       6.422   4.755  15.867  0.00  0.00    +0.000 C 
ATOM      2  C   UNL     1       6.909   5.385  14.522  0.00  0.00    +0.000 C 
ATOM      3  C   UNL     1       6.431   4.676  13.313  0.00  0.00    +0.000 C 
ATOM      4  C   UNL     1       5.538   3.680  13.366  0.00  0.00    +0.000 C 
ATOM      5  O   UNL     1       4.967   3.232  14.552  0.00  0.00    +0.000 OA
ATOM      6  C   UNL     1       4.958   4.248  15.617  0.00  0.00    +0.000 C 
ENDROOT
BRANCH   1  10
ATOM      7  C   UNL     1       7.940   6.523  19.012  0.00  0.00    +0.000 C 
ATOM      8  C   UNL     1       7.589   5.361  18.105  0.00  0.00    +0.000 C 
ATOM      9  O   UNL     1       8.157   4.286  18.272  0.00  0.00    +0.000 OA
ATOM     10  N   UNL     1       6.701   5.619  17.067  0.00  0.00    +0.000 N 
ATOM     11  H   UNL     1       6.173   6.485  17.109  0.00  0.00    +0.000 HD
ENDBRANCH   1  10
BRANCH   2  12
ATOM     12  N   UNL     1       8.367   5.483  14.465  0.00  0.00    +0.000 NA
ATOM     13  H   UNL     1       8.658   6.440  14.646  0.00  0.00    +0.000 HD
ATOM     14  H   UNL     1       8.638   5.276  13.500  0.00  0.00    +0.000 HD
ENDBRANCH   2  12
BRANCH   6  15
ATOM     15  C   UNL     1       4.225   3.660  16.868  0.00  0.00    +0.000 C 
ATOM     16  O   UNL     1       4.250   2.437  17.049  0.00  0.00    +0.000 OA
ATOM     17  N   UNL     1       3.513   4.495  17.740  0.00  0.00    +0.000 N 
BRANCH  17  18
ATOM     18  C   UNL     1       2.944   4.001  19.019  0.00  0.00    +0.000 C 
BRANCH  18  19
ATOM     19  C   UNL     1       1.451   3.754  19.222  0.00  0.00    +0.000 C 
BRANCH  19  20
ATOM     20  N   UNL     1       1.052   4.085  20.595  0.00  0.00    +0.000 NA
ATOM     21  N   UNL     1       1.447   3.271  21.453  0.00  0.00    +0.000 NA
ATOM     22  N   UNL     1       1.792   2.516  22.232  0.00  0.00    +0.000 NA
ENDBRANCH  19  20
ENDBRANCH  18  19
ENDBRANCH  17  18
BRANCH  17  23
ATOM     23  C   UNL     1       3.232   5.930  17.568  0.00  0.00    +0.000 C 
BRANCH  23  24
ATOM     24  C   UNL     1       3.479   6.959  18.680  0.00  0.00    +0.000 C 
BRANCH  24  25
ATOM     25  C   UNL     1       2.359   7.936  18.906  0.00  0.00    +0.000 A 
ATOM     26  C   UNL     1       1.837   8.706  17.861  0.00  0.00    +0.000 A 
ATOM     27  C   UNL     1       0.802   9.605  18.082  0.00  0.00    +0.000 A 
ATOM     28  C   UNL     1       0.258   9.725  19.351  0.00  0.00    +0.000 A 
ATOM     29  C   UNL     1       0.754   8.958  20.405  0.00  0.00    +0.000 A 
ATOM     30  C   UNL     1       1.801   8.068  20.183  0.00  0.00    +0.000 A 
ENDBRANCH  24  25
ENDBRANCH  23  24
ENDBRANCH  17  23
ENDBRANCH   6  15
BRANCH   4  31
ATOM     31  C   UNL     1       5.146   3.063  12.055  0.00  0.00    +0.000 C 
ATOM     32  O   UNL     1       4.244   3.456  11.348  0.00  0.00    +0.000 OA
BRANCH  31  33
ATOM     33  O   UNL     1       5.904   1.982  11.769  0.00  0.00    +0.000 OA
ATOM     34  H   UNL     1       5.800   1.294  12.452  0.00  0.00    +0.000 HD
ENDBRANCH  31  33
ENDBRANCH   4  31
TORSDOF 11
ENDMDL
MODEL 4
REMARK VINA RESULT:      -7.9      1.723      4.116
REMARK  Name = 
REMARK  12 active torsions:
REMARK  status: ('A' for Active; 'I' for Inactive)
REMARK    1  A    between atoms: C_1  and  C_2
REMARK    2  A    between atoms: N_4  and  C_5
REMARK    3  A    between atoms: C_6  and  N_7
REMARK    4  A    between atoms: C_9  and  C_10
REMARK    5  A    between atoms: C_10  and  O_12
REMARK    6  A    between atoms: C_14  and  C_15
REMARK    7  A    between atoms: N_17  and  C_18
REMARK    8  A    between atoms: N_17  and  C_23
REMARK    9  A    between atoms: C_18  and  C_19
REMARK   10  A    between atoms: C_19  and  N_20
REMARK   11  A    between atoms: C_23  and  C_24
REMARK   12  A    between atoms: C_24  and  C_25
REMARK                            x       y       z     vdW  Elec       q    Type
REMARK                         _______ _______ _______ _____ _____    ______ ____
ROOT
ATOM      1  C   UNL     1       6.959   5.218  15.553  0.00  0.00    +0.000 C 
ATOM      2  C   UNL     1       7.298   5.665  14.094  0.00  0.00    +0.000 C 
ATOM      3  C   UNL     1       6.752   4.773  13.046  0.00  0.00    +0.000 C 
ATOM      4  C   UNL     1       5.915   3.765  13.319  0.00  0.00    +0.000 C 
ATOM      5  O   UNL     1       5.470   3.473  14.604  0.00  0.00    +0.000 OA
ATOM      6  C   UNL     1       5.505   4.631  15.512  0.00  0.00    +0.000 C 
ENDROOT
BRANCH   1  10
ATOM      7  C   UNL     1       8.322   7.220  18.629  0.00  0.00    +0.000 C 
ATOM      8  C   UNL     1       7.724   6.037  17.895  0.00  0.00    +0.000 C 
ATOM      9  O   UNL     1       7.717   4.940  18.445  0.00  0.00    +0.000 OA
ATOM     10  N   UNL     1       7.299   6.255  16.589  0.00  0.00    +0.000 N 
ATOM     11  H   UNL     1       7.201   7.219  16.286  0.00  0.00    +0.000 HD
ENDBRANCH   1  10
BRANCH   2  12
ATOM     12  N   UNL     1       8.740   5.804  13.891  0.00  0.00    +0.000 NA
ATOM     13  H   UNL     1       9.006   5.390  13.001  0.00  0.00    +0.000 HD
ATOM     14  H   UNL     1       9.194   5.244  14.617  0.00  0.00    +0.000 HD
ENDBRANCH   2  12
BRANCH   6  15
ATOM     15  C   UNL     1       4.910   4.204  16.895  0.00  0.00    +0.000 C 
ATOM     16  O   UNL     1       4.871   3.001  17.177  0.00  0.00    +0.000 OA
ATOM     17  N   UNL     1       4.386   5.160  17.777  0.00  0.00    +0.000 N 
BRANCH  17  18
ATOM     18  C   UNL     1       3.965   4.815  19.158  0.00  0.00    +0.000 C 
BRANCH  18  19
ATOM     19  C   UNL     1       2.790   3.886  19.458  0.00  0.00    +0.000 C 
BRANCH  19  20
ATOM     20  N   UNL     1       1.824   3.897  18.353  0.00  0.00    +0.000 NA
ATOM     21  N   UNL     1       1.004   2.959  18.381  0.00  0.00    +0.000 NA
ATOM     22  N   UNL     1       0.269   2.089  18.398  0.00  0.00    +0.000 NA
ENDBRANCH  19  20
ENDBRANCH  18  19
ENDBRANCH  17  18
BRANCH  17  23
ATOM     23  C   UNL     1       4.189   6.595  17.518  0.00  0.00    +0.000 C 
BRANCH  23  24
ATOM     24  C   UNL     1       2.817   7.190  17.166  0.00  0.00    +0.000 C 
BRANCH  24  25
ATOM     25  C   UNL     1       2.174   7.998  18.259  0.00  0.00    +0.000 A 
ATOM     26  C   UNL     1       2.131   7.541  19.580  0.00  0.00    +0.000 A 
ATOM     27  C   UNL     1       1.534   8.296  20.580  0.00  0.00    +0.000 A 
ATOM     28  C   UNL     1       0.992   9.535  20.273  0.00  0.00    +0.000 A 
ATOM     29  C   UNL     1       1.035  10.016  18.965  0.00  0.00    +0.000 A 
ATOM     30  C   UNL     1       1.623   9.251  17.962  0.00  0.00    +0.000 A 
ENDBRANCH  24  25
ENDBRANCH  23  24
ENDBRANCH  17  23
ENDBRANCH   6  15
BRANCH   4  31
ATOM     31  C   UNL     1       5.441   2.953  12.150  0.00  0.00    +0.000 C 
ATOM     32  O   UNL     1       4.416   3.155  11.537  0.00  0.00    +0.000 OA
BRANCH  31  33
ATOM     33  O   UNL     1       6.287   1.934  11.878  0.00  0.00    +0.000 OA
ATOM     34  H   UNL     1       7.212   2.201  12.034  0.00  0.00    +0.000 HD
ENDBRANCH  31  33
ENDBRANCH   4  31
TORSDOF 11
ENDMDL
MODEL 5
REMARK VINA RESULT:      -7.9      1.371      3.944
REMARK  Name = 
REMARK  12 active torsions:
REMARK  status: ('A' for Active; 'I' for Inactive)
REMARK    1  A    between atoms: C_1  and  C_2
REMARK    2  A    between atoms: N_4  and  C_5
REMARK    3  A    between atoms: C_6  and  N_7
REMARK    4  A    between atoms: C_9  and  C_10
REMARK    5  A    between atoms: C_10  and  O_12
REMARK    6  A    between atoms: C_14  and  C_15
REMARK    7  A    between atoms: N_17  and  C_18
REMARK    8  A    between atoms: N_17  and  C_23
REMARK    9  A    between atoms: C_18  and  C_19
REMARK   10  A    between atoms: C_19  and  N_20
REMARK   11  A    between atoms: C_23  and  C_24
REMARK   12  A    between atoms: C_24  and  C_25
REMARK                            x       y       z     vdW  Elec       q    Type
REMARK                         _______ _______ _______ _____ _____    ______ ____
ROOT
ATOM      1  C   UNL     1       6.628   4.984  15.711  0.00  0.00    +0.000 C 
ATOM      2  C   UNL     1       7.074   5.495  14.303  0.00  0.00    +0.000 C 
ATOM      3  C   UNL     1       6.538   4.701  13.174  0.00  0.00    +0.000 C 
ATOM      4  C   UNL     1       5.631   3.730  13.339  0.00  0.00    +0.000 C 
ATOM      5  O   UNL     1       5.099   3.390  14.578  0.00  0.00    +0.000 OA
ATOM      6  C   UNL     1       5.147   4.488  15.557  0.00  0.00    +0.000 C 
ENDROOT
BRANCH   1  10
ATOM      7  C   UNL     1       8.160   6.829  18.806  0.00  0.00    +0.000 C 
ATOM      8  C   UNL     1       7.650   5.649  18.003  0.00  0.00    +0.000 C 
ATOM      9  O   UNL     1       7.928   4.514  18.376  0.00  0.00    +0.000 OA
ATOM     10  N   UNL     1       6.967   5.936  16.827  0.00  0.00    +0.000 N 
ATOM     11  H   UNL     1       6.655   6.892  16.690  0.00  0.00    +0.000 HD
ENDBRANCH   1  10
BRANCH   2  12
ATOM     12  N   UNL     1       8.530   5.559  14.186  0.00  0.00    +0.000 NA
ATOM     13  H   UNL     1       8.938   5.841  15.073  0.00  0.00    +0.000 HD
ATOM     14  H   UNL     1       8.739   6.308  13.521  0.00  0.00    +0.000 HD
ENDBRANCH   2  12
BRANCH   6  15
ATOM     15  C   UNL     1       4.452   4.017  16.877  0.00  0.00    +0.000 C 
ATOM     16  O   UNL     1       4.245   2.809  17.039  0.00  0.00    +0.000 OA
ATOM     17  N   UNL     1       4.027   4.947  17.836  0.00  0.00    +0.000 N 
BRANCH  17  18
ATOM     18  C   UNL     1       3.515   4.534  19.166  0.00  0.00    +0.000 C 
BRANCH  18  19
ATOM     19  C   UNL     1       2.046   4.203  19.423  0.00  0.00    +0.000 C 
BRANCH  19  20
ATOM     20  N   UNL     1       1.901   2.825  19.908  0.00  0.00    +0.000 NA
ATOM     21  N   UNL     1       2.170   2.678  21.116  0.00  0.00    +0.000 NA
ATOM     22  N   UNL     1       2.436   2.541  22.215  0.00  0.00    +0.000 NA
ENDBRANCH  19  20
ENDBRANCH  18  19
ENDBRANCH  17  18
BRANCH  17  23
ATOM     23  C   UNL     1       4.030   6.414  17.715  0.00  0.00    +0.000 C 
BRANCH  23  24
ATOM     24  C   UNL     1       2.810   7.204  17.216  0.00  0.00    +0.000 C 
BRANCH  24  25
ATOM     25  C   UNL     1       2.127   8.046  18.257  0.00  0.00    +0.000 A 
ATOM     26  C   UNL     1       2.099   7.668  19.603  0.00  0.00    +0.000 A 
ATOM     27  C   UNL     1       1.465   8.455  20.555  0.00  0.00    +0.000 A 
ATOM     28  C   UNL     1       0.871   9.647  20.173  0.00  0.00    +0.000 A 
ATOM     29  C   UNL     1       0.897  10.051  18.838  0.00  0.00    +0.000 A 
ATOM     30  C   UNL     1       1.523   9.253  17.884  0.00  0.00    +0.000 A 
ENDBRANCH  24  25
ENDBRANCH  23  24
ENDBRANCH  17  23
ENDBRANCH   6  15
BRANCH   4  31
ATOM     31  C   UNL     1       5.179   3.019  12.098  0.00  0.00    +0.000 C 
ATOM     32  O   UNL     1       4.200   3.315  11.448  0.00  0.00    +0.000 OA
BRANCH  31  33
ATOM     33  O   UNL     1       5.983   1.973  11.805  0.00  0.00    +0.000 OA
ATOM     34  H   UNL     1       6.747   2.262  11.271  0.00  0.00    +0.000 HD
ENDBRANCH  31  33
ENDBRANCH   4  31
TORSDOF 11
ENDMDL
MODEL 6
REMARK VINA RESULT:      -7.9      1.406      4.073
REMARK  Name = 
REMARK  12 active torsions:
REMARK  status: ('A' for Active; 'I' for Inactive)
REMARK    1  A    between atoms: C_1  and  C_2
REMARK    2  A    between atoms: N_4  and  C_5
REMARK    3  A    between atoms: C_6  and  N_7
REMARK    4  A    between atoms: C_9  and  C_10
REMARK    5  A    between atoms: C_10  and  O_12
REMARK    6  A    between atoms: C_14  and  C_15
REMARK    7  A    between atoms: N_17  and  C_18
REMARK    8  A    between atoms: N_17  and  C_23
REMARK    9  A    between atoms: C_18  and  C_19
REMARK   10  A    between atoms: C_19  and  N_20
REMARK   11  A    between atoms: C_23  and  C_24
REMARK   12  A    between atoms: C_24  and  C_25
REMARK                            x       y       z     vdW  Elec       q    Type
REMARK                         _______ _______ _______ _____ _____    ______ ____
ROOT
ATOM      1  C   UNL     1       6.839   5.115  15.576  0.00  0.00    +0.000 C 
ATOM      2  C   UNL     1       7.219   5.600  14.139  0.00  0.00    +0.000 C 
ATOM      3  C   UNL     1       6.691   4.742  13.053  0.00  0.00    +0.000 C 
ATOM      4  C   UNL     1       5.838   3.735  13.277  0.00  0.00    +0.000 C 
ATOM      5  O   UNL     1       5.359   3.411  14.542  0.00  0.00    +0.000 OA
ATOM      6  C   UNL     1       5.381   4.543  15.483  0.00  0.00    +0.000 C 
ENDROOT
BRANCH   1  10
ATOM      7  C   UNL     1       8.219   7.047  18.689  0.00  0.00    +0.000 C 
ATOM      8  C   UNL     1       7.662   5.865  17.921  0.00  0.00    +0.000 C 
ATOM      9  O   UNL     1       7.751   4.745  18.413  0.00  0.00    +0.000 OA
ATOM     10  N   UNL     1       7.162   6.120  16.649  0.00  0.00    +0.000 N 
ATOM     11  H   UNL     1       6.990   7.089  16.401  0.00  0.00    +0.000 HD
ENDBRANCH   1  10
BRANCH   2  12
ATOM     12  N   UNL     1       8.666   5.729  13.976  0.00  0.00    +0.000 NA
ATOM     13  H   UNL     1       8.879   6.111  13.057  0.00  0.00    +0.000 HD
ATOM     14  H   UNL     1       9.050   4.781  13.990  0.00  0.00    +0.000 HD
ENDBRANCH   2  12
BRANCH   6  15
ATOM     15  C   UNL     1       4.748   4.084  16.838  0.00  0.00    +0.000 C 
ATOM     16  O   UNL     1       4.677   2.874  17.079  0.00  0.00    +0.000 OA
ATOM     17  N   UNL     1       4.227   5.022  17.741  0.00  0.00    +0.000 N 
BRANCH  17  18
ATOM     18  C   UNL     1       3.768   4.641  19.100  0.00  0.00    +0.000 C 
BRANCH  18  19
ATOM     19  C   UNL     1       2.351   4.154  19.391  0.00  0.00    +0.000 C 
BRANCH  19  20
ATOM     20  N   UNL     1       2.368   2.767  19.873  0.00  0.00    +0.000 NA
ATOM     21  N   UNL     1       1.985   2.631  21.052  0.00  0.00    +0.000 NA
ATOM     22  N   UNL     1       1.653   2.511  22.135  0.00  0.00    +0.000 NA
ENDBRANCH  19  20
ENDBRANCH  18  19
ENDBRANCH  17  18
BRANCH  17  23
ATOM     23  C   UNL     1       4.066   6.469  17.526  0.00  0.00    +0.000 C 
BRANCH  23  24
ATOM     24  C   UNL     1       2.715   7.106  17.167  0.00  0.00    +0.000 C 
BRANCH  24  25
ATOM     25  C   UNL     1       2.136   8.010  18.220  0.00  0.00    +0.000 A 
ATOM     26  C   UNL     1       1.636   9.277  17.904  0.00  0.00    +0.000 A 
ATOM     27  C   UNL     1       1.103  10.102  18.885  0.00  0.00    +0.000 A 
ATOM     28  C   UNL     1       1.042   9.657  20.196  0.00  0.00    +0.000 A 
ATOM     29  C   UNL     1       1.523   8.392  20.532  0.00  0.00    +0.000 A 
ATOM     30  C   UNL     1       2.069   7.572  19.548  0.00  0.00    +0.000 A 
ENDBRANCH  24  25
ENDBRANCH  23  24
ENDBRANCH  17  23
ENDBRANCH   6  15
BRANCH   4  31
ATOM     31  C   UNL     1       5.387   2.960  12.074  0.00  0.00    +0.000 C 
ATOM     32  O   UNL     1       5.974   2.011  11.602  0.00  0.00    +0.000 OA
BRANCH  31  33
ATOM     33  O   UNL     1       4.250   3.472  11.552  0.00  0.00    +0.000 OA
ATOM     34  H   UNL     1       4.321   4.440  11.451  0.00  0.00    +0.000 HD
ENDBRANCH  31  33
ENDBRANCH   4  31
TORSDOF 11
ENDMDL
MODEL 7
REMARK VINA RESULT:      -7.8      2.569      4.015
REMARK  Name = 
REMARK  12 active torsions:
REMARK  status: ('A' for Active; 'I' for Inactive)
REMARK    1  A    between atoms: C_1  and  C_2
REMARK    2  A    between atoms: N_4  and  C_5
REMARK    3  A    between atoms: C_6  and  N_7
REMARK    4  A    between atoms: C_9  and  C_10
REMARK    5  A    between atoms: C_10  and  O_12
REMARK    6  A    between atoms: C_14  and  C_15
REMARK    7  A    between atoms: N_17  and  C_18
REMARK    8  A    between atoms: N_17  and  C_23
REMARK    9  A    between atoms: C_18  and  C_19
REMARK   10  A    between atoms: C_19  and  N_20
REMARK   11  A    between atoms: C_23  and  C_24
REMARK   12  A    between atoms: C_24  and  C_25
REMARK                            x       y       z     vdW  Elec       q    Type
REMARK                         _______ _______ _______ _____ _____    ______ ____
ROOT
ATOM      1  C   UNL     1       4.067   4.592  17.569  0.00  0.00    +0.000 C 
ATOM      2  C   UNL     1       5.431   4.162  16.939  0.00  0.00    +0.000 C 
ATOM      3  C   UNL     1       6.513   5.159  17.100  0.00  0.00    +0.000 C 
ATOM      4  C   UNL     1       6.377   6.259  17.851  0.00  0.00    +0.000 C 
ATOM      5  O   UNL     1       5.217   6.557  18.559  0.00  0.00    +0.000 OA
ATOM      6  C   UNL     1       4.411   5.370  18.887  0.00  0.00    +0.000 C 
ENDROOT
BRANCH   1  10
ATOM      7  C   UNL     1       1.738   1.610  18.573  0.00  0.00    +0.000 C 
ATOM      8  C   UNL     1       3.027   2.404  18.500  0.00  0.00    +0.000 C 
ATOM      9  O   UNL     1       3.942   2.118  19.265  0.00  0.00    +0.000 OA
ATOM     10  N   UNL     1       3.055   3.480  17.620  0.00  0.00    +0.000 N 
ATOM     11  H   UNL     1       2.315   3.535  16.927  0.00  0.00    +0.000 HD
ENDBRANCH   1  10
BRANCH   2  12
ATOM     12  N   UNL     1       5.294   3.840  15.518  0.00  0.00    +0.000 NA
ATOM     13  H   UNL     1       5.572   2.876  15.353  0.00  0.00    +0.000 HD
ATOM     14  H   UNL     1       5.969   4.425  15.018  0.00  0.00    +0.000 HD
ENDBRANCH   2  12
BRANCH   6  15
ATOM     15  C   UNL     1       3.183   5.818  19.747  0.00  0.00    +0.000 C 
ATOM     16  O   UNL     1       2.784   5.068  20.645  0.00  0.00    +0.000 OA
ATOM     17  N   UNL     1       2.518   7.022  19.476  0.00  0.00    +0.000 N 
BRANCH  17  18
ATOM     18  C   UNL     1       1.458   7.557  20.366  0.00  0.00    +0.000 C 
BRANCH  18  19
ATOM     19  C   UNL     1       1.762   8.362  21.628  0.00  0.00    +0.000 C 
BRANCH  19  20
ATOM     20  N   UNL     1       1.102   9.672  21.579  0.00  0.00    +0.000 NA
ATOM     21  N   UNL     1       0.422   9.939  22.589  0.00  0.00    +0.000 NA
ATOM     22  N   UNL     1      -0.215  10.173  23.504  0.00  0.00    +0.000 NA
ENDBRANCH  19  20
ENDBRANCH  18  19
ENDBRANCH  17  18
BRANCH  17  23
ATOM     23  C   UNL     1       2.747   7.928  18.340  0.00  0.00    +0.000 C 
BRANCH  23  24
ATOM     24  C   UNL     1       1.597   8.562  17.543  0.00  0.00    +0.000 C 
BRANCH  24  25
ATOM     25  C   UNL     1       1.158   9.917  18.024  0.00  0.00    +0.000 A 
ATOM     26  C   UNL     1      -0.182  10.193  18.313  0.00  0.00    +0.000 A 
ATOM     27  C   UNL     1      -0.575  11.448  18.758  0.00  0.00    +0.000 A 
ATOM     28  C   UNL     1       0.376  12.439  18.943  0.00  0.00    +0.000 A 
ATOM     29  C   UNL     1       1.721  12.182  18.675  0.00  0.00    +0.000 A 
ATOM     30  C   UNL     1       2.110  10.926  18.217  0.00  0.00    +0.000 A 
ENDBRANCH  24  25
ENDBRANCH  23  24
ENDBRANCH  17  23
ENDBRANCH   6  15
BRANCH   4  31
ATOM     31  C   UNL     1       7.565   7.172  17.922  0.00  0.00    +0.000 C 
ATOM     32  O   UNL     1       7.814   8.048  17.123  0.00  0.00    +0.000 OA
BRANCH  31  33
ATOM     33  O   UNL     1       8.354   6.878  18.979  0.00  0.00    +0.000 OA
ATOM     34  H   UNL     1       9.218   6.537  18.681  0.00  0.00    +0.000 HD
ENDBRANCH  31  33
ENDBRANCH   4  31
TORSDOF 11
ENDMDL
MODEL 8
REMARK VINA RESULT:      -7.8      2.974      5.157
REMARK  Name = 
REMARK  12 active torsions:
REMARK  status: ('A' for Active; 'I' for Inactive)
REMARK    1  A    between atoms: C_1  and  C_2
REMARK    2  A    between atoms: N_4  and  C_5
REMARK    3  A    between atoms: C_6  and  N_7
REMARK    4  A    between atoms: C_9  and  C_10
REMARK    5  A    between atoms: C_10  and  O_12
REMARK    6  A    between atoms: C_14  and  C_15
REMARK    7  A    between atoms: N_17  and  C_18
REMARK    8  A    between atoms: N_17  and  C_23
REMARK    9  A    between atoms: C_18  and  C_19
REMARK   10  A    between atoms: C_19  and  N_20
REMARK   11  A    between atoms: C_23  and  C_24
REMARK   12  A    between atoms: C_24  and  C_25
REMARK                            x       y       z     vdW  Elec       q    Type
REMARK                         _______ _______ _______ _____ _____    ______ ____
ROOT
ATOM      1  C   UNL     1       4.245   3.555  17.403  0.00  0.00    +0.000 C 
ATOM      2  C   UNL     1       2.797   3.033  17.676  0.00  0.00    +0.000 C 
ATOM      3  C   UNL     1       2.461   2.907  19.113  0.00  0.00    +0.000 C 
ATOM      4  C   UNL     1       3.269   3.346  20.086  0.00  0.00    +0.000 C 
ATOM      5  O   UNL     1       4.485   3.974  19.838  0.00  0.00    +0.000 OA
ATOM      6  C   UNL     1       4.553   4.617  18.516  0.00  0.00    +0.000 C 
ENDROOT
BRANCH   1  10
ATOM      7  C   UNL     1       5.620   3.954  13.760  0.00  0.00    +0.000 C 
ATOM      8  C   UNL     1       5.692   3.868  15.271  0.00  0.00    +0.000 C 
ATOM      9  O   UNL     1       6.782   3.681  15.803  0.00  0.00    +0.000 OA
ATOM     10  N   UNL     1       4.487   3.916  15.962  0.00  0.00    +0.000 N 
ATOM     11  H   UNL     1       3.668   4.228  15.450  0.00  0.00    +0.000 HD
ENDBRANCH   1  10
BRANCH   2  12
ATOM     12  N   UNL     1       2.551   1.750  17.020  0.00  0.00    +0.000 NA
ATOM     13  H   UNL     1       1.591   1.455  17.183  0.00  0.00    +0.000 HD
ATOM     14  H   UNL     1       3.148   1.062  17.486  0.00  0.00    +0.000 HD
ENDBRANCH   2  12
BRANCH   6  15
ATOM     15  C   UNL     1       5.927   5.354  18.384  0.00  0.00    +0.000 C 
ATOM     16  O   UNL     1       6.919   4.860  18.933  0.00  0.00    +0.000 OA
ATOM     17  N   UNL     1       6.024   6.574  17.701  0.00  0.00    +0.000 N 
BRANCH  17  18
ATOM     18  C   UNL     1       7.330   7.219  17.416  0.00  0.00    +0.000 C 
BRANCH  18  19
ATOM     19  C   UNL     1       8.182   7.880  18.497  0.00  0.00    +0.000 C 
BRANCH  19  20
ATOM     20  N   UNL     1       8.508   9.263  18.126  0.00  0.00    +0.000 NA
ATOM     21  N   UNL     1       8.992   9.940  19.054  0.00  0.00    +0.000 NA
ATOM     22  N   UNL     1       9.415  10.563  19.908  0.00  0.00    +0.000 NA
ENDBRANCH  19  20
ENDBRANCH  18  19
ENDBRANCH  17  18
BRANCH  17  23
ATOM     23  C   UNL     1       4.919   7.380  17.157  0.00  0.00    +0.000 C 
BRANCH  23  24
ATOM     24  C   UNL     1       3.449   6.953  17.276  0.00  0.00    +0.000 C 
BRANCH  24  25
ATOM     25  C   UNL     1       2.612   7.794  18.199  0.00  0.00    +0.000 A 
ATOM     26  C   UNL     1       2.024   8.988  17.771  0.00  0.00    +0.000 A 
ATOM     27  C   UNL     1       1.253   9.756  18.633  0.00  0.00    +0.000 A 
ATOM     28  C   UNL     1       1.040   9.323  19.932  0.00  0.00    +0.000 A 
ATOM     29  C   UNL     1       1.606   8.128  20.377  0.00  0.00    +0.000 A 
ATOM     30  C   UNL     1       2.389   7.367  19.514  0.00  0.00    +0.000 A 
ENDBRANCH  24  25
ENDBRANCH  23  24
ENDBRANCH  17  23
ENDBRANCH   6  15
BRANCH   4  31
ATOM     31  C   UNL     1       2.788   3.153  21.493  0.00  0.00    +0.000 C 
ATOM     32  O   UNL     1       2.203   3.990  22.146  0.00  0.00    +0.000 OA
BRANCH  31  33
ATOM     33  O   UNL     1       3.117   1.931  21.967  0.00  0.00    +0.000 OA
ATOM     34  H   UNL     1       4.019   1.684  21.690  0.00  0.00    +0.000 HD
ENDBRANCH  31  33
ENDBRANCH   4  31
TORSDOF 11
ENDMDL
MODEL 9
REMARK VINA RESULT:      -7.8      3.242      7.444
REMARK  Name = 
REMARK  12 active torsions:
REMARK  status: ('A' for Active; 'I' for Inactive)
REMARK    1  A    between atoms: C_1  and  C_2
REMARK    2  A    between atoms: N_4  and  C_5
REMARK    3  A    between atoms: C_6  and  N_7
REMARK    4  A    between atoms: C_9  and  C_10
REMARK    5  A    between atoms: C_10  and  O_12
REMARK    6  A    between atoms: C_14  and  C_15
REMARK    7  A    between atoms: N_17  and  C_18
REMARK    8  A    between atoms: N_17  and  C_23
REMARK    9  A    between atoms: C_18  and  C_19
REMARK   10  A    between atoms: C_19  and  N_20
REMARK   11  A    between atoms: C_23  and  C_24
REMARK   12  A    between atoms: C_24  and  C_25
REMARK                            x       y       z     vdW  Elec       q    Type
REMARK                         _______ _______ _______ _____ _____    ______ ____
ROOT
ATOM      1  C   UNL     1       1.914   8.415  19.102  0.00  0.00    +0.000 C 
ATOM      2  C   UNL     1       1.367   8.275  20.560  0.00  0.00    +0.000 C 
ATOM      3  C   UNL     1       1.237   6.875  21.024  0.00  0.00    +0.000 C 
ATOM      4  C   UNL     1       1.692   5.833  20.317  0.00  0.00    +0.000 C 
ATOM      5  O   UNL     1       2.340   5.969  19.095  0.00  0.00    +0.000 OA
ATOM      6  C   UNL     1       2.983   7.282  18.916  0.00  0.00    +0.000 C 
ENDROOT
BRANCH   1  10
ATOM      7  C   UNL     1       2.022  12.281  18.497  0.00  0.00    +0.000 C 
ATOM      8  C   UNL     1       1.411  10.895  18.524  0.00  0.00    +0.000 C 
ATOM      9  O   UNL     1       0.192  10.784  18.443  0.00  0.00    +0.000 OA
ATOM     10  N   UNL     1       2.277   9.829  18.734  0.00  0.00    +0.000 N 
ATOM     11  H   UNL     1       3.271  10.008  18.632  0.00  0.00    +0.000 HD
ENDBRANCH   1  10
BRANCH   2  12
ATOM     12  N   UNL     1       0.078   8.947  20.723  0.00  0.00    +0.000 NA
ATOM     13  H   UNL     1      -0.564   8.348  21.235  0.00  0.00    +0.000 HD
ATOM     14  H   UNL     1      -0.316   9.058  19.785  0.00  0.00    +0.000 HD
ENDBRANCH   2  12
BRANCH   6  15
ATOM     15  C   UNL     1       3.743   7.289  17.549  0.00  0.00    +0.000 C 
ATOM     16  O   UNL     1       3.205   7.827  16.574  0.00  0.00    +0.000 OA
ATOM     17  N   UNL     1       4.987   6.656  17.417  0.00  0.00    +0.000 N 
BRANCH  17  18
ATOM     18  C   UNL     1       5.810   6.780  16.188  0.00  0.00    +0.000 C 
BRANCH  18  19
ATOM     19  C   UNL     1       5.892   5.681  15.130  0.00  0.00    +0.000 C 
BRANCH  19  20
ATOM     20  N   UNL     1       7.252   5.133  15.056  0.00  0.00    +0.000 NA
ATOM     21  N   UNL     1       7.906   5.522  14.069  0.00  0.00    +0.000 NA
ATOM     22  N   UNL     1       8.496   5.864  13.156  0.00  0.00    +0.000 NA
ENDBRANCH  19  20
ENDBRANCH  18  19
ENDBRANCH  17  18
BRANCH  17  23
ATOM     23  C   UNL     1       5.672   5.821  18.417  0.00  0.00    +0.000 C 
BRANCH  23  24
ATOM     24  C   UNL     1       5.880   4.311  18.229  0.00  0.00    +0.000 C 
BRANCH  24  25
ATOM     25  C   UNL     1       4.624   3.486  18.251  0.00  0.00    +0.000 A 
ATOM     26  C   UNL     1       3.691   3.543  17.211  0.00  0.00    +0.000 A 
ATOM     27  C   UNL     1       2.535   2.776  17.242  0.00  0.00    +0.000 A 
ATOM     28  C   UNL     1       2.309   1.919  18.308  0.00  0.00    +0.000 A 
ATOM     29  C   UNL     1       3.233   1.835  19.350  0.00  0.00    +0.000 A 
ATOM     30  C   UNL     1       4.385   2.616  19.322  0.00  0.00    +0.000 A 
ENDBRANCH  24  25
ENDBRANCH  23  24
ENDBRANCH  17  23
ENDBRANCH   6  15
BRANCH   4  31
ATOM     31  C   UNL     1       1.492   4.475  20.923  0.00  0.00    +0.000 C 
ATOM     32  O   UNL     1       0.591   3.716  20.639  0.00  0.00    +0.000 OA
BRANCH  31  33
ATOM     33  O   UNL     1       2.430   4.206  21.858  0.00  0.00    +0.000 OA
ATOM     34  H   UNL     1       2.079   4.362  22.755  0.00  0.00    +0.000 HD
ENDBRANCH  31  33
ENDBRANCH   4  31
TORSDOF 11
ENDMDL
