MODEL 1
REMARK VINA RESULT:      -7.6      0.000      0.000
REMARK  Name = 
REMARK  7 active torsions:
REMARK  status: ('A' for Active; 'I' for Inactive)
REMARK    1  A    between atoms: N_1  and  C_2
REMARK    2  A    between atoms: C_2  and  C_3
REMARK    3  A    between atoms: N_6  and  C_7
REMARK    4  A    between atoms: C_12  and  C_13
REMARK    5  A    between atoms: N_15  and  C_16
REMARK    6  A    between atoms: C_16  and  C_17
REMARK    7  A    between atoms: C_17  and  C_18
REMARK                            x       y       z     vdW  Elec       q    Type
REMARK                         _______ _______ _______ _____ _____    ______ ____
ROOT
ATOM      1  C   UNL     1       3.476   3.867  18.437  0.00  0.00    +0.000 A 
ATOM      2  C   UNL     1       3.279   2.510  18.095  0.00  0.00    +0.000 A 
ATOM      3  C   UNL     1       2.042   1.891  18.264  0.00  0.00    +0.000 A 
ATOM      4  C   UNL     1       0.969   2.621  18.751  0.00  0.00    +0.000 A 
ATOM      5  C   UNL     1       1.133   3.970  19.066  0.00  0.00    +0.000 A 
ATOM      6  C   UNL     1       2.384   4.611  18.929  0.00  0.00    +0.000 A 
ENDROOT
BRANCH   1  10
ATOM      7  C   UNL     1       6.792   5.316  18.525  0.00  0.00    +0.000 A 
ATOM      8  C   UNL     1       6.467   5.131  17.170  0.00  0.00    +0.000 A 
ATOM      9  N   UNL     1       5.318   4.476  17.001  0.00  0.00    +0.000 NA
ATOM     10  N   UNL     1       4.792   4.384  18.256  0.00  0.00    +0.000 N 
ATOM     11  C   UNL     1       5.729   4.746  19.199  0.00  0.00    +0.000 A 
BRANCH   7  12
ATOM     12  C   UNL     1       7.989   5.975  19.092  0.00  0.00    +0.000 C 
BRANCH  12  13
ATOM     13  N   UNL     1       8.172   5.473  20.444  0.00  0.00    +0.000 NA
ATOM     14  H   UNL     1       8.431   4.490  20.412  0.00  0.00    +0.000 HD
ATOM     15  H   UNL     1       7.280   5.523  20.940  0.00  0.00    +0.000 HD
ENDBRANCH  12  13
ENDBRANCH   7  12
ENDBRANCH   1  10
BRANCH   6  16
ATOM     16  C   UNL     1       2.392   6.089  19.156  0.00  0.00    +0.000 C 
ATOM     17  O   UNL     1       2.189   6.567  20.264  0.00  0.00    +0.000 OA
ATOM     18  N   UNL     1       2.669   6.870  18.047  0.00  0.00    +0.000 N 
ATOM     19  H   UNL     1       2.654   6.444  17.128  0.00  0.00    +0.000 HD
BRANCH  18  20
ATOM     20  C   UNL     1       2.638   8.321  18.131  0.00  0.00    +0.000 C 
BRANCH  20  21
ATOM     21  C   UNL     1       1.334   8.936  17.606  0.00  0.00    +0.000 C 
BRANCH  21  22
ATOM     22  C   UNL     1       0.527   9.723  18.615  0.00  0.00    +0.000 A 
ATOM     23  C   UNL     1       0.950   9.900  19.935  0.00  0.00    +0.000 A 
ATOM     24  C   UNL     1       0.148  10.623  20.804  0.00  0.00    +0.000 A 
ATOM     25  N   UNL     1      -1.023  11.191  20.450  0.00  0.00    +0.000 NA
ATOM     26  C   UNL     1      -1.400  11.043  19.164  0.00  0.00    +0.000 A 
ATOM     27  C   UNL     1      -0.669  10.334  18.222  0.00  0.00    +0.000 A 
ENDBRANCH  21  22
ENDBRANCH  20  21
ENDBRANCH  18  20
ENDBRANCH   6  16
TORSDOF 7
ENDMDL
MODEL 2
REMARK VINA RESULT:      -7.5      3.905      7.056
REMARK  Name = 
REMARK  7 active torsions:
REMARK  status: ('A' for Active; 'I' for Inactive)
REMARK    1  A    between atoms: N_1  and  C_2
REMARK    2  A    between atoms: C_2  and  C_3
REMARK    3  A    between atoms: N_6  and  C_7
REMARK    4  A    between atoms: C_12  and  C_13
REMARK    5  A    between atoms: N_15  and  C_16
REMARK    6  A    between atoms: C_16  and  C_17
REMARK    7  A    between atoms: C_17  and  C_18
REMARK                            x       y       z     vdW  Elec       q    Type
REMARK                         _______ _______ _______ _____ _____    ______ ____
ROOT
ATOM      1  C   UNL     1       5.211   5.172  16.810  0.00  0.00    +0.000 A 
ATOM      2  C   UNL     1       4.704   4.337  15.789  0.00  0.00    +0.000 A 
ATOM      3  C   UNL     1       5.458   4.037  14.656  0.00  0.00    +0.000 A 
ATOM      4  C   UNL     1       6.744   4.540  14.533  0.00  0.00    +0.000 A 
ATOM      5  C   UNL     1       7.276   5.340  15.543  0.00  0.00    +0.000 A 
ATOM      6  C   UNL     1       6.520   5.681  16.687  0.00  0.00    +0.000 A 
ENDROOT
BRANCH   1  10
ATOM      7  C   UNL     1       3.046   5.301  19.708  0.00  0.00    +0.000 A 
ATOM      8  C   UNL     1       2.876   6.517  19.022  0.00  0.00    +0.000 A 
ATOM      9  N   UNL     1       3.723   6.653  18.002  0.00  0.00    +0.000 NA
ATOM     10  N   UNL     1       4.337   5.440  17.904  0.00  0.00    +0.000 N 
ATOM     11  C   UNL     1       4.055   4.668  19.009  0.00  0.00    +0.000 A 
BRANCH   7  12
ATOM     12  C   UNL     1       2.307   4.815  20.894  0.00  0.00    +0.000 C 
BRANCH  12  13
ATOM     13  N   UNL     1       2.590   3.396  21.041  0.00  0.00    +0.000 NA
ATOM     14  H   UNL     1       2.938   3.212  21.978  0.00  0.00    +0.000 HD
ATOM     15  H   UNL     1       3.340   3.140  20.396  0.00  0.00    +0.000 HD
ENDBRANCH  12  13
ENDBRANCH   7  12
ENDBRANCH   1  10
BRANCH   6  16
ATOM     16  C   UNL     1       7.253   6.418  17.763  0.00  0.00    +0.000 C 
ATOM     17  O   UNL     1       7.437   5.921  18.866  0.00  0.00    +0.000 OA
ATOM     18  N   UNL     1       7.728   7.672  17.422  0.00  0.00    +0.000 N 
ATOM     19  H   UNL     1       7.401   8.107  16.567  0.00  0.00    +0.000 HD
BRANCH  18  20
ATOM     20  C   UNL     1       8.397   8.508  18.406  0.00  0.00    +0.000 C 
BRANCH  20  21
ATOM     21  C   UNL     1       8.396   9.999  18.043  0.00  0.00    +0.000 C 
BRANCH  21  22
ATOM     22  C   UNL     1       9.515  10.821  18.642  0.00  0.00    +0.000 A 
ATOM     23  C   UNL     1      10.519  11.399  17.859  0.00  0.00    +0.000 A 
ATOM     24  C   UNL     1      11.519  12.128  18.484  0.00  0.00    +0.000 A 
ATOM     25  N   UNL     1      11.579  12.335  19.816  0.00  0.00    +0.000 NA
ATOM     26  C   UNL     1      10.583  11.803  20.554  0.00  0.00    +0.000 A 
ATOM     27  C   UNL     1       9.544  11.054  20.022  0.00  0.00    +0.000 A 
ENDBRANCH  21  22
ENDBRANCH  20  21
ENDBRANCH  18  20
ENDBRANCH   6  16
TORSDOF 7
ENDMDL
MODEL 3
REMARK VINA RESULT:      -7.5      2.022      6.165
REMARK  Name = 
REMARK  7 active torsions:
REMARK  status: ('A' for Active; 'I' for Inactive)
REMARK    1  A    between atoms: N_1  and  C_2
REMARK    2  A    between atoms: C_2  and  C_3
REMARK    3  A    between atoms: N_6  and  C_7
REMARK    4  A    between atoms: C_12  and  C_13
REMARK    5  A    between atoms: N_15  and  C_16
REMARK    6  A    between atoms: C_16  and  C_17
REMARK    7  A    between atoms: C_17  and  C_18
REMARK                            x       y       z     vdW  Elec       q    Type
REMARK                         _______ _______ _______ _____ _____    ______ ____
ROOT
ATOM      1  C   UNL     1       2.438   4.918  19.712  0.00  0.00    +0.000 A 
ATOM      2  C   UNL     1       2.207   4.806  21.101  0.00  0.00    +0.000 A 
ATOM      3  C   UNL     1       2.118   3.562  21.724  0.00  0.00    +0.000 A 
ATOM      4  C   UNL     1       2.286   2.406  20.977  0.00  0.00    +0.000 A 
ATOM      5  C   UNL     1       2.547   2.494  19.610  0.00  0.00    +0.000 A 
ATOM      6  C   UNL     1       2.613   3.743  18.952  0.00  0.00    +0.000 A 
ENDROOT
BRANCH   1  10
ATOM      7  C   UNL     1       2.054   8.359  18.655  0.00  0.00    +0.000 A 
ATOM      8  C   UNL     1       3.036   7.788  17.826  0.00  0.00    +0.000 A 
ATOM      9  N   UNL     1       3.370   6.553  18.200  0.00  0.00    +0.000 NA
ATOM     10  N   UNL     1       2.474   6.240  19.179  0.00  0.00    +0.000 N 
ATOM     11  C   UNL     1       1.775   7.361  19.569  0.00  0.00    +0.000 A 
BRANCH   7  12
ATOM     12  C   UNL     1       1.456   9.709  18.561  0.00  0.00    +0.000 C 
BRANCH  12  13
ATOM     13  N   UNL     1       2.109  10.406  17.465  0.00  0.00    +0.000 NA
ATOM     14  H   UNL     1       1.724  10.089  16.580  0.00  0.00    +0.000 HD
ATOM     15  H   UNL     1       3.100  10.157  17.458  0.00  0.00    +0.000 HD
ENDBRANCH  12  13
ENDBRANCH   7  12
ENDBRANCH   1  10
BRANCH   6  16
ATOM     16  C   UNL     1       3.046   3.709  17.521  0.00  0.00    +0.000 C 
ATOM     17  O   UNL     1       2.254   3.467  16.620  0.00  0.00    +0.000 OA
ATOM     18  N   UNL     1       4.379   3.993  17.285  0.00  0.00    +0.000 N 
ATOM     19  H   UNL     1       5.025   4.010  18.066  0.00  0.00    +0.000 HD
BRANCH  18  20
ATOM     20  C   UNL     1       4.929   3.923  15.941  0.00  0.00    +0.000 C 
BRANCH  20  21
ATOM     21  C   UNL     1       6.449   4.128  15.891  0.00  0.00    +0.000 C 
BRANCH  21  22
ATOM     22  C   UNL     1       7.007   5.142  16.865  0.00  0.00    +0.000 A 
ATOM     23  C   UNL     1       6.951   6.518  16.624  0.00  0.00    +0.000 A 
ATOM     24  C   UNL     1       7.496   7.385  17.559  0.00  0.00    +0.000 A 
ATOM     25  N   UNL     1       8.069   6.983  18.711  0.00  0.00    +0.000 NA
ATOM     26  C   UNL     1       8.082   5.655  18.948  0.00  0.00    +0.000 A 
ATOM     27  C   UNL     1       7.568   4.711  18.072  0.00  0.00    +0.000 A 
ENDBRANCH  21  22
ENDBRANCH  20  21
ENDBRANCH  18  20
ENDBRANCH   6  16
TORSDOF 7
ENDMDL
MODEL 4
REMARK VINA RESULT:      -7.4      1.434      2.086
REMARK  Name = 
REMARK  7 active torsions:
REMARK  status: ('A' for Active; 'I' for Inactive)
REMARK    1  A    between atoms: N_1  and  C_2
REMARK    2  A    between atoms: C_2  and  C_3
REMARK    3  A    between atoms: N_6  and  C_7
REMARK    4  A    between atoms: C_12  and  C_13
REMARK    5  A    between atoms: N_15  and  C_16
REMARK    6  A    between atoms: C_16  and  C_17
REMARK    7  A    between atoms: C_17  and  C_18
REMARK                            x       y       z     vdW  Elec       q    Type
REMARK                         _______ _______ _______ _____ _____    ______ ____
ROOT
ATOM      1  C   UNL     1       3.143   3.733  18.325  0.00  0.00    +0.000 A 
ATOM      2  C   UNL     1       2.680   2.402  18.218  0.00  0.00    +0.000 A 
ATOM      3  C   UNL     1       1.518   1.984  18.865  0.00  0.00    +0.000 A 
ATOM      4  C   UNL     1       0.780   2.893  19.607  0.00  0.00    +0.000 A 
ATOM      5  C   UNL     1       1.202   4.219  19.700  0.00  0.00    +0.000 A 
ATOM      6  C   UNL     1       2.391   4.659  19.077  0.00  0.00    +0.000 A 
ENDROOT
BRANCH   1  10
ATOM      7  C   UNL     1       5.967   4.342  16.144  0.00  0.00    +0.000 A 
ATOM      8  C   UNL     1       6.454   4.402  17.462  0.00  0.00    +0.000 A 
ATOM      9  N   UNL     1       5.482   4.327  18.372  0.00  0.00    +0.000 NA
ATOM     10  N   UNL     1       4.362   4.037  17.651  0.00  0.00    +0.000 N 
ATOM     11  C   UNL     1       4.603   4.191  16.304  0.00  0.00    +0.000 A 
BRANCH   7  12
ATOM     12  C   UNL     1       6.740   4.415  14.885  0.00  0.00    +0.000 C 
BRANCH  12  13
ATOM     13  N   UNL     1       7.641   5.552  14.984  0.00  0.00    +0.000 NA
ATOM     14  H   UNL     1       7.182   6.310  15.483  0.00  0.00    +0.000 HD
ATOM     15  H   UNL     1       7.840   5.900  14.044  0.00  0.00    +0.000 HD
ENDBRANCH  12  13
ENDBRANCH   7  12
ENDBRANCH   1  10
BRANCH   6  16
ATOM     16  C   UNL     1       2.653   6.130  19.126  0.00  0.00    +0.000 C 
ATOM     17  O   UNL     1       3.014   6.681  20.158  0.00  0.00    +0.000 OA
ATOM     18  N   UNL     1       2.489   6.815  17.935  0.00  0.00    +0.000 N 
ATOM     19  H   UNL     1       2.022   6.354  17.162  0.00  0.00    +0.000 HD
BRANCH  18  20
ATOM     20  C   UNL     1       2.650   8.259  17.877  0.00  0.00    +0.000 C 
BRANCH  20  21
ATOM     21  C   UNL     1       1.321   9.024  17.936  0.00  0.00    +0.000 C 
BRANCH  21  22
ATOM     22  C   UNL     1       1.100   9.860  19.177  0.00  0.00    +0.000 A 
ATOM     23  C   UNL     1       1.138  11.257  19.152  0.00  0.00    +0.000 A 
ATOM     24  C   UNL     1       0.939  11.954  20.335  0.00  0.00    +0.000 A 
ATOM     25  N   UNL     1       0.690  11.364  21.522  0.00  0.00    +0.000 NA
ATOM     26  C   UNL     1       0.619  10.018  21.523  0.00  0.00    +0.000 A 
ATOM     27  C   UNL     1       0.810   9.234  20.394  0.00  0.00    +0.000 A 
ENDBRANCH  21  22
ENDBRANCH  20  21
ENDBRANCH  18  20
ENDBRANCH   6  16
TORSDOF 7
ENDMDL
MODEL 5
REMARK VINA RESULT:      -7.4      1.853      2.604
REMARK  Name = 
REMARK  7 active torsions:
REMARK  status: ('A' for Active; 'I' for Inactive)
REMARK    1  A    between atoms: N_1  and  C_2
REMARK    2  A    between atoms: C_2  and  C_3
REMARK    3  A    between atoms: N_6  and  C_7
REMARK    4  A    between atoms: C_12  and  C_13
REMARK    5  A    between atoms: N_15  and  C_16
REMARK    6  A    between atoms: C_16  and  C_17
REMARK    7  A    between atoms: C_17  and  C_18
REMARK                            x       y       z     vdW  Elec       q    Type
REMARK                         _______ _______ _______ _____ _____    ______ ____
ROOT
ATOM      1  C   UNL     1       3.702   4.095  19.562  0.00  0.00    +0.000 A 
ATOM      2  C   UNL     1       3.753   2.823  20.177  0.00  0.00    +0.000 A 
ATOM      3  C   UNL     1       2.828   2.450  21.149  0.00  0.00    +0.000 A 
ATOM      4  C   UNL     1       1.815   3.326  21.508  0.00  0.00    +0.000 A 
ATOM      5  C   UNL     1       1.727   4.574  20.891  0.00  0.00    +0.000 A 
ATOM      6  C   UNL     1       2.670   4.985  19.923  0.00  0.00    +0.000 A 
ENDROOT
BRANCH   1  10
ATOM      7  C   UNL     1       6.012   4.463  16.800  0.00  0.00    +0.000 A 
ATOM      8  C   UNL     1       6.625   5.050  17.921  0.00  0.00    +0.000 A 
ATOM      9  N   UNL     1       5.818   5.100  18.981  0.00  0.00    +0.000 NA
ATOM     10  N   UNL     1       4.721   4.381  18.608  0.00  0.00    +0.000 N 
ATOM     11  C   UNL     1       4.754   4.120  17.255  0.00  0.00    +0.000 A 
BRANCH   7  12
ATOM     12  C   UNL     1       6.587   4.256  15.452  0.00  0.00    +0.000 C 
BRANCH  12  13
ATOM     13  N   UNL     1       7.512   5.348  15.194  0.00  0.00    +0.000 NA
ATOM     14  H   UNL     1       7.008   6.139  14.803  0.00  0.00    +0.000 HD
ATOM     15  H   UNL     1       8.184   5.051  14.484  0.00  0.00    +0.000 HD
ENDBRANCH  12  13
ENDBRANCH   7  12
ENDBRANCH   1  10
BRANCH   6  16
ATOM     16  C   UNL     1       2.379   6.279  19.231  0.00  0.00    +0.000 C 
ATOM     17  O   UNL     1       2.302   6.348  18.012  0.00  0.00    +0.000 OA
ATOM     18  N   UNL     1       2.178   7.373  20.053  0.00  0.00    +0.000 N 
ATOM     19  H   UNL     1       2.426   7.305  21.034  0.00  0.00    +0.000 HD
BRANCH  18  20
ATOM     20  C   UNL     1       1.955   8.696  19.492  0.00  0.00    +0.000 C 
BRANCH  20  21
ATOM     21  C   UNL     1       0.491   9.151  19.561  0.00  0.00    +0.000 C 
BRANCH  21  22
ATOM     22  C   UNL     1       0.077   9.841  20.842  0.00  0.00    +0.000 A 
ATOM     23  C   UNL     1      -0.217  11.206  20.892  0.00  0.00    +0.000 A 
ATOM     24  C   UNL     1      -0.576  11.769  22.108  0.00  0.00    +0.000 A 
ATOM     25  N   UNL     1      -0.680  11.072  23.257  0.00  0.00    +0.000 NA
ATOM     26  C   UNL     1      -0.429   9.749  23.186  0.00  0.00    +0.000 A 
ATOM     27  C   UNL     1      -0.058   9.097  22.019  0.00  0.00    +0.000 A 
ENDBRANCH  21  22
ENDBRANCH  20  21
ENDBRANCH  18  20
ENDBRANCH   6  16
TORSDOF 7
ENDMDL
MODEL 6
REMARK VINA RESULT:      -7.3      1.704      2.036
REMARK  Name = 
REMARK  7 active torsions:
REMARK  status: ('A' for Active; 'I' for Inactive)
REMARK    1  A    between atoms: N_1  and  C_2
REMARK    2  A    between atoms: C_2  and  C_3
REMARK    3  A    between atoms: N_6  and  C_7
REMARK    4  A    between atoms: C_12  and  C_13
REMARK    5  A    between atoms: N_15  and  C_16
REMARK    6  A    between atoms: C_16  and  C_17
REMARK    7  A    between atoms: C_17  and  C_18
REMARK                            x       y       z     vdW  Elec       q    Type
REMARK                         _______ _______ _______ _____ _____    ______ ____
ROOT
ATOM      1  C   UNL     1       3.250   4.158  18.943  0.00  0.00    +0.000 A 
ATOM      2  C   UNL     1       3.082   2.784  18.659  0.00  0.00    +0.000 A 
ATOM      3  C   UNL     1       1.941   2.093  19.063  0.00  0.00    +0.000 A 
ATOM      4  C   UNL     1       0.931   2.767  19.732  0.00  0.00    +0.000 A 
ATOM      5  C   UNL     1       1.061   4.131  19.995  0.00  0.00    +0.000 A 
ATOM      6  C   UNL     1       2.221   4.845  19.620  0.00  0.00    +0.000 A 
ENDROOT
BRANCH   1  10
ATOM      7  C   UNL     1       6.482   5.697  18.405  0.00  0.00    +0.000 A 
ATOM      8  C   UNL     1       5.799   5.749  17.176  0.00  0.00    +0.000 A 
ATOM      9  N   UNL     1       4.640   5.091  17.204  0.00  0.00    +0.000 NA
ATOM     10  N   UNL     1       4.473   4.750  18.514  0.00  0.00    +0.000 N 
ATOM     11  C   UNL     1       5.635   4.972  19.221  0.00  0.00    +0.000 A 
BRANCH   7  12
ATOM     12  C   UNL     1       7.795   6.288  18.742  0.00  0.00    +0.000 C 
BRANCH  12  13
ATOM     13  N   UNL     1       8.340   5.545  19.867  0.00  0.00    +0.000 NA
ATOM     14  H   UNL     1       7.591   5.054  20.347  0.00  0.00    +0.000 HD
ATOM     15  H   UNL     1       8.735   6.205  20.539  0.00  0.00    +0.000 HD
ENDBRANCH  12  13
ENDBRANCH   7  12
ENDBRANCH   1  10
BRANCH   6  16
ATOM     16  C   UNL     1       2.175   6.325  19.823  0.00  0.00    +0.000 C 
ATOM     17  O   UNL     1       2.646   7.098  18.999  0.00  0.00    +0.000 OA
ATOM     18  N   UNL     1       1.546   6.759  20.977  0.00  0.00    +0.000 N 
ATOM     19  H   UNL     1       1.334   6.086  21.705  0.00  0.00    +0.000 HD
BRANCH  18  20
ATOM     20  C   UNL     1       1.500   8.173  21.314  0.00  0.00    +0.000 C 
BRANCH  20  21
ATOM     21  C   UNL     1       0.080   8.755  21.312  0.00  0.00    +0.000 C 
BRANCH  21  22
ATOM     22  C   UNL     1      -0.020  10.240  21.584  0.00  0.00    +0.000 A 
ATOM     23  C   UNL     1      -0.805  10.757  22.619  0.00  0.00    +0.000 A 
ATOM     24  C   UNL     1      -0.856  12.131  22.797  0.00  0.00    +0.000 A 
ATOM     25  N   UNL     1      -0.174  13.014  22.039  0.00  0.00    +0.000 NA
ATOM     26  C   UNL     1       0.608  12.498  21.069  0.00  0.00    +0.000 A 
ATOM     27  C   UNL     1       0.720  11.140  20.810  0.00  0.00    +0.000 A 
ENDBRANCH  21  22
ENDBRANCH  20  21
ENDBRANCH  18  20
ENDBRANCH   6  16
TORSDOF 7
ENDMDL
MODEL 7
REMARK VINA RESULT:      -7.3      3.886      7.030
REMARK  Name = 
REMARK  7 active torsions:
REMARK  status: ('A' for Active; 'I' for Inactive)
REMARK    1  A    between atoms: N_1  and  C_2
REMARK    2  A    between atoms: C_2  and  C_3
REMARK    3  A    between atoms: N_6  and  C_7
REMARK    4  A    between atoms: C_12  and  C_13
REMARK    5  A    between atoms: N_15  and  C_16
REMARK    6  A    between atoms: C_16  and  C_17
REMARK    7  A    between atoms: C_17  and  C_18
REMARK                            x       y       z     vdW  Elec       q    Type
REMARK                         _______ _______ _______ _____ _____    ______ ____
ROOT
ATOM      1  C   UNL     1       5.558   4.710  16.545  0.00  0.00    +0.000 A 
ATOM      2  C   UNL     1       5.124   3.904  15.468  0.00  0.00    +0.000 A 
ATOM      3  C   UNL     1       5.810   3.883  14.256  0.00  0.00    +0.000 A 
ATOM      4  C   UNL     1       6.960   4.642  14.103  0.00  0.00    +0.000 A 
ATOM      5  C   UNL     1       7.424   5.420  15.163  0.00  0.00    +0.000 A 
ATOM      6  C   UNL     1       6.729   5.480  16.392  0.00  0.00    +0.000 A 
ENDROOT
BRANCH   1  10
ATOM      7  C   UNL     1       3.304   5.120  19.348  0.00  0.00    +0.000 A 
ATOM      8  C   UNL     1       4.205   4.098  19.699  0.00  0.00    +0.000 A 
ATOM      9  N   UNL     1       5.009   3.755  18.693  0.00  0.00    +0.000 NA
ATOM     10  N   UNL     1       4.756   4.680  17.724  0.00  0.00    +0.000 N 
ATOM     11  C   UNL     1       3.633   5.413  18.039  0.00  0.00    +0.000 A 
BRANCH   7  12
ATOM     12  C   UNL     1       2.257   5.739  20.190  0.00  0.00    +0.000 C 
BRANCH  12  13
ATOM     13  N   UNL     1       1.228   4.739  20.424  0.00  0.00    +0.000 NA
ATOM     14  H   UNL     1       0.386   5.189  20.770  0.00  0.00    +0.000 HD
ATOM     15  H   UNL     1       1.544   4.105  21.160  0.00  0.00    +0.000 HD
ENDBRANCH  12  13
ENDBRANCH   7  12
ENDBRANCH   1  10
BRANCH   6  16
ATOM     16  C   UNL     1       7.407   6.228  17.494  0.00  0.00    +0.000 C 
ATOM     17  O   UNL     1       7.733   5.675  18.536  0.00  0.00    +0.000 OA
ATOM     18  N   UNL     1       7.664   7.566  17.250  0.00  0.00    +0.000 N 
ATOM     19  H   UNL     1       7.221   8.015  16.456  0.00  0.00    +0.000 HD
BRANCH  18  20
ATOM     20  C   UNL     1       8.257   8.410  18.274  0.00  0.00    +0.000 C 
BRANCH  20  21
ATOM     21  C   UNL     1       8.313   9.894  17.886  0.00  0.00    +0.000 C 
BRANCH  21  22
ATOM     22  C   UNL     1       9.366  10.718  18.593  0.00  0.00    +0.000 A 
ATOM     23  C   UNL     1       9.419  10.825  19.985  0.00  0.00    +0.000 A 
ATOM     24  C   UNL     1      10.408  11.611  20.559  0.00  0.00    +0.000 A 
ATOM     25  N   UNL     1      11.346  12.273  19.852  0.00  0.00    +0.000 NA
ATOM     26  C   UNL     1      11.304  12.130  18.512  0.00  0.00    +0.000 A 
ATOM     27  C   UNL     1      10.352  11.372  17.846  0.00  0.00    +0.000 A 
ENDBRANCH  21  22
ENDBRANCH  20  21
ENDBRANCH  18  20
ENDBRANCH   6  16
TORSDOF 7
ENDMDL
MODEL 8
REMARK VINA RESULT:      -7.3      0.593      1.022
REMARK  Name = 
REMARK  7 active torsions:
REMARK  status: ('A' for Active; 'I' for Inactive)
REMARK    1  A    between atoms: N_1  and  C_2
REMARK    2  A    between atoms: C_2  and  C_3
REMARK    3  A    between atoms: N_6  and  C_7
REMARK    4  A    between atoms: C_12  and  C_13
REMARK    5  A    between atoms: N_15  and  C_16
REMARK    6  A    between atoms: C_16  and  C_17
REMARK    7  A    between atoms: C_17  and  C_18
REMARK                            x       y       z     vdW  Elec       q    Type
REMARK                         _______ _______ _______ _____ _____    ______ ____
ROOT
ATOM      1  C   UNL     1       3.387   3.847  18.526  0.00  0.00    +0.000 A 
ATOM      2  C   UNL     1       3.211   2.496  18.151  0.00  0.00    +0.000 A 
ATOM      3  C   UNL     1       1.997   1.840  18.347  0.00  0.00    +0.000 A 
ATOM      4  C   UNL     1       0.925   2.528  18.894  0.00  0.00    +0.000 A 
ATOM      5  C   UNL     1       1.067   3.871  19.242  0.00  0.00    +0.000 A 
ATOM      6  C   UNL     1       2.296   4.548  19.079  0.00  0.00    +0.000 A 
ENDROOT
BRANCH   1  10
ATOM      7  C   UNL     1       6.664   5.385  18.535  0.00  0.00    +0.000 A 
ATOM      8  C   UNL     1       6.302   5.211  17.187  0.00  0.00    +0.000 A 
ATOM      9  N   UNL     1       5.166   4.527  17.044  0.00  0.00    +0.000 NA
ATOM     10  N   UNL     1       4.682   4.402  18.313  0.00  0.00    +0.000 N 
ATOM     11  C   UNL     1       5.638   4.776  19.232  0.00  0.00    +0.000 A 
BRANCH   7  12
ATOM     12  C   UNL     1       7.859   6.069  19.075  0.00  0.00    +0.000 C 
BRANCH  12  13
ATOM     13  N   UNL     1       8.157   5.481  20.371  0.00  0.00    +0.000 NA
ATOM     14  H   UNL     1       7.386   4.887  20.663  0.00  0.00    +0.000 HD
ATOM     15  H   UNL     1       8.229   6.228  21.065  0.00  0.00    +0.000 HD
ENDBRANCH  12  13
ENDBRANCH   7  12
ENDBRANCH   1  10
BRANCH   6  16
ATOM     16  C   UNL     1       2.276   6.019  19.349  0.00  0.00    +0.000 C 
ATOM     17  O   UNL     1       2.100   6.460  20.477  0.00  0.00    +0.000 OA
ATOM     18  N   UNL     1       2.496   6.838  18.255  0.00  0.00    +0.000 N 
ATOM     19  H   UNL     1       2.459   6.438  17.325  0.00  0.00    +0.000 HD
BRANCH  18  20
ATOM     20  C   UNL     1       2.432   8.285  18.383  0.00  0.00    +0.000 C 
BRANCH  20  21
ATOM     21  C   UNL     1       1.275   8.918  17.599  0.00  0.00    +0.000 C 
BRANCH  21  22
ATOM     22  C   UNL     1       0.551  10.049  18.295  0.00  0.00    +0.000 A 
ATOM     23  C   UNL     1      -0.841  10.165  18.279  0.00  0.00    +0.000 A 
ATOM     24  C   UNL     1      -1.431  11.239  18.930  0.00  0.00    +0.000 A 
ATOM     25  N   UNL     1      -0.740  12.181  19.603  0.00  0.00    +0.000 NA
ATOM     26  C   UNL     1       0.600  12.034  19.642  0.00  0.00    +0.000 A 
ATOM     27  C   UNL     1       1.281  10.999  19.017  0.00  0.00    +0.000 A 
ENDBRANCH  21  22
ENDBRANCH  20  21
ENDBRANCH  18  20
ENDBRANCH   6  16
TORSDOF 7
ENDMDL
MODEL 9
REMARK VINA RESULT:      -7.3      1.641      2.019
REMARK  Name = 
REMARK  7 active torsions:
REMARK  status: ('A' for Active; 'I' for Inactive)
REMARK    1  A    between atoms: N_1  and  C_2
REMARK    2  A    between atoms: C_2  and  C_3
REMARK    3  A    between atoms: N_6  and  C_7
REMARK    4  A    between atoms: C_12  and  C_13
REMARK    5  A    between atoms: N_15  and  C_16
REMARK    6  A    between atoms: C_16  and  C_17
REMARK    7  A    between atoms: C_17  and  C_18
REMARK                            x       y       z     vdW  Elec       q    Type
REMARK                         _______ _______ _______ _____ _____    ______ ____
ROOT
ATOM      1  C   UNL     1       3.218   4.367  19.121  0.00  0.00    +0.000 A 
ATOM      2  C   UNL     1       3.096   2.962  19.022  0.00  0.00    +0.000 A 
ATOM      3  C   UNL     1       2.060   2.278  19.655  0.00  0.00    +0.000 A 
ATOM      4  C   UNL     1       1.108   2.984  20.375  0.00  0.00    +0.000 A 
ATOM      5  C   UNL     1       1.192   4.373  20.459  0.00  0.00    +0.000 A 
ATOM      6  C   UNL     1       2.249   5.086  19.850  0.00  0.00    +0.000 A 
ENDROOT
BRANCH   1  10
ATOM      7  C   UNL     1       6.254   5.968  17.973  0.00  0.00    +0.000 A 
ATOM      8  C   UNL     1       5.417   5.836  16.850  0.00  0.00    +0.000 A 
ATOM      9  N   UNL     1       4.314   5.135  17.112  0.00  0.00    +0.000 NA
ATOM     10  N   UNL     1       4.338   4.955  18.463  0.00  0.00    +0.000 N 
ATOM     11  C   UNL     1       5.565   5.314  18.975  0.00  0.00    +0.000 A 
BRANCH   7  12
ATOM     12  C   UNL     1       7.562   6.656  18.056  0.00  0.00    +0.000 C 
BRANCH  12  13
ATOM     13  N   UNL     1       7.528   7.783  17.139  0.00  0.00    +0.000 NA
ATOM     14  H   UNL     1       6.921   7.567  16.353  0.00  0.00    +0.000 HD
ATOM     15  H   UNL     1       8.463   7.926  16.754  0.00  0.00    +0.000 HD
ENDBRANCH  12  13
ENDBRANCH   7  12
ENDBRANCH   1  10
BRANCH   6  16
ATOM     16  C   UNL     1       2.142   6.577  19.886  0.00  0.00    +0.000 C 
ATOM     17  O   UNL     1       2.523   7.268  18.951  0.00  0.00    +0.000 OA
ATOM     18  N   UNL     1       1.565   7.115  21.023  0.00  0.00    +0.000 N 
ATOM     19  H   UNL     1       1.431   6.523  21.835  0.00  0.00    +0.000 HD
BRANCH  18  20
ATOM     20  C   UNL     1       1.470   8.555  21.200  0.00  0.00    +0.000 C 
BRANCH  20  21
ATOM     21  C   UNL     1       0.041   9.044  21.474  0.00  0.00    +0.000 C 
BRANCH  21  22
ATOM     22  C   UNL     1      -0.420  10.220  20.641  0.00  0.00    +0.000 A 
ATOM     23  C   UNL     1      -0.884  11.406  21.217  0.00  0.00    +0.000 A 
ATOM     24  C   UNL     1      -1.303  12.435  20.386  0.00  0.00    +0.000 A 
ATOM     25  N   UNL     1      -1.274  12.372  19.039  0.00  0.00    +0.000 NA
ATOM     26  C   UNL     1      -0.789  11.236  18.499  0.00  0.00    +0.000 A 
ATOM     27  C   UNL     1      -0.352  10.151  19.245  0.00  0.00    +0.000 A 
ENDBRANCH  21  22
ENDBRANCH  20  21
ENDBRANCH  18  20
ENDBRANCH   6  16
TORSDOF 7
ENDMDL
