MODEL 1
REMARK VINA RESULT:      -8.7      0.000      0.000
REMARK  Name = 
REMARK  7 active torsions:
REMARK  status: ('A' for Active; 'I' for Inactive)
REMARK    1  A    between atoms: C_1  and  C_2
REMARK    2  A    between atoms: C_2  and  N_3
REMARK    3  A    between atoms: C_2  and  C_25
REMARK    4  A    between atoms: C_4  and  C_6
REMARK    5  A    between atoms: C_9  and  C_10
REMARK    6  A    between atoms: C_12  and  C_13
REMARK    7  A    between atoms: C_21  and  N_22
REMARK                            x       y       z     vdW  Elec       q    Type
REMARK                         _______ _______ _______ _____ _____    ______ ____
ROOT
ATOM      1  C   UNL     1       3.676   6.310  18.472  0.00  0.00    +0.000 A 
ATOM      2  C   UNL     1       2.921   6.275  19.645  0.00  0.00    +0.000 A 
ATOM      3  C   UNL     1       1.950   7.258  19.879  0.00  0.00    +0.000 A 
ATOM      4  C   UNL     1       1.752   8.326  18.980  0.00  0.00    +0.000 A 
ATOM      5  C   UNL     1       2.601   8.372  17.856  0.00  0.00    +0.000 A 
ATOM      6  C   UNL     1       3.530   7.369  17.590  0.00  0.00    +0.000 A 
ENDROOT
BRANCH   4   7
ATOM      7  C   UNL     1       0.751   9.399  19.218  0.00  0.00    +0.000 A 
ATOM      8  C   UNL     1      -0.141   9.767  18.196  0.00  0.00    +0.000 A 
ATOM      9  C   UNL     1      -1.166  10.695  18.405  0.00  0.00    +0.000 A 
ATOM     10  C   UNL     1      -1.256  11.244  19.675  0.00  0.00    +0.000 A 
ATOM     11  N   UNL     1      -0.394  10.975  20.678  0.00  0.00    +0.000 NA
ATOM     12  C   UNL     1       0.594  10.087  20.440  0.00  0.00    +0.000 A 
BRANCH   9  13
ATOM     13  C   UNL     1      -2.110  11.107  17.296  0.00  0.00    +0.000 C 
ATOM     14  C   UNL     1      -3.525  11.426  17.808  0.00  0.00    +0.000 C 
ATOM     15  C   UNL     1      -4.480  11.666  16.648  0.00  0.00    +0.000 C 
ATOM     16  O   UNL     1      -4.475  10.558  15.750  0.00  0.00    +0.000 OA
ATOM     17  C   UNL     1      -3.197  10.356  15.151  0.00  0.00    +0.000 C 
ATOM     18  C   UNL     1      -2.159  10.020  16.210  0.00  0.00    +0.000 C 
ENDBRANCH   9  13
BRANCH  12  19
ATOM     19  N   UNL     1       1.427   9.869  21.540  0.00  0.00    +0.000 N 
ATOM     20  H   UNL     1       1.274  10.633  22.193  0.00  0.00    +0.000 HD
ATOM     21  H   UNL     1       2.397   9.772  21.262  0.00  0.00    +0.000 HD
ENDBRANCH  12  19
ENDBRANCH   4   7
BRANCH   1  23
ATOM     22  N   UNL     1       5.460   5.380  17.119  0.00  0.00    +0.000 N 
ATOM     23  C   UNL     1       4.619   5.196  18.188  0.00  0.00    +0.000 C 
ATOM     24  O   UNL     1       4.580   4.170  18.861  0.00  0.00    +0.000 OA
ATOM     25  H   UNL     1       5.356   6.197  16.538  0.00  0.00    +0.000 HD
BRANCH  22  27
ATOM     26  C   UNL     1       7.732   4.467  17.337  0.00  0.00    +0.000 C 
ATOM     27  C   UNL     1       6.366   4.341  16.663  0.00  0.00    +0.000 C 
BRANCH  27  28
ATOM     28  C   UNL     1       6.494   4.387  15.151  0.00  0.00    +0.000 A 
ATOM     29  C   UNL     1       5.618   3.635  14.355  0.00  0.00    +0.000 A 
ATOM     30  C   UNL     1       5.753   3.622  12.965  0.00  0.00    +0.000 A 
ATOM     31  C   UNL     1       6.750   4.378  12.353  0.00  0.00    +0.000 A 
ATOM     32  C   UNL     1       7.611   5.152  13.128  0.00  0.00    +0.000 A 
ATOM     33  C   UNL     1       7.487   5.155  14.518  0.00  0.00    +0.000 A 
ENDBRANCH  27  28
ENDBRANCH  22  27
ENDBRANCH   1  23
TORSDOF 6
ENDMDL
MODEL 2
REMARK VINA RESULT:      -8.5      2.202      9.845
REMARK  Name = 
REMARK  7 active torsions:
REMARK  status: ('A' for Active; 'I' for Inactive)
REMARK    1  A    between atoms: C_1  and  C_2
REMARK    2  A    between atoms: C_2  and  N_3
REMARK    3  A    between atoms: C_2  and  C_25
REMARK    4  A    between atoms: C_4  and  C_6
REMARK    5  A    between atoms: C_9  and  C_10
REMARK    6  A    between atoms: C_12  and  C_13
REMARK    7  A    between atoms: C_21  and  N_22
REMARK                            x       y       z     vdW  Elec       q    Type
REMARK                         _______ _______ _______ _____ _____    ______ ____
ROOT
ATOM      1  C   UNL     1       0.989   9.719  19.120  0.00  0.00    +0.000 A 
ATOM      2  C   UNL     1       1.097   8.943  20.274  0.00  0.00    +0.000 A 
ATOM      3  C   UNL     1       1.826   7.746  20.245  0.00  0.00    +0.000 A 
ATOM      4  C   UNL     1       2.410   7.269  19.053  0.00  0.00    +0.000 A 
ATOM      5  C   UNL     1       2.196   8.039  17.892  0.00  0.00    +0.000 A 
ATOM      6  C   UNL     1       1.520   9.256  17.926  0.00  0.00    +0.000 A 
ENDROOT
BRANCH   4   7
ATOM      7  C   UNL     1       3.162   5.989  18.986  0.00  0.00    +0.000 A 
ATOM      8  C   UNL     1       4.036   5.742  17.913  0.00  0.00    +0.000 A 
ATOM      9  C   UNL     1       4.842   4.600  17.860  0.00  0.00    +0.000 A 
ATOM     10  C   UNL     1       4.731   3.713  18.920  0.00  0.00    +0.000 A 
ATOM     11  N   UNL     1       3.869   3.867  19.947  0.00  0.00    +0.000 NA
ATOM     12  C   UNL     1       3.093   4.971  19.961  0.00  0.00    +0.000 A 
BRANCH   9  13
ATOM     13  C   UNL     1       5.765   4.327  16.692  0.00  0.00    +0.000 C 
ATOM     14  C   UNL     1       6.913   5.345  16.591  0.00  0.00    +0.000 C 
ATOM     15  C   UNL     1       7.711   5.137  15.312  0.00  0.00    +0.000 C 
ATOM     16  O   UNL     1       6.857   5.180  14.170  0.00  0.00    +0.000 OA
ATOM     17  C   UNL     1       5.888   4.135  14.183  0.00  0.00    +0.000 C 
ATOM     18  C   UNL     1       4.963   4.282  15.381  0.00  0.00    +0.000 C 
ENDBRANCH   9  13
BRANCH  12  19
ATOM     19  N   UNL     1       2.242   5.042  21.066  0.00  0.00    +0.000 N 
ATOM     20  H   UNL     1       2.812   4.921  21.899  0.00  0.00    +0.000 HD
ATOM     21  H   UNL     1       1.486   4.371  21.000  0.00  0.00    +0.000 HD
ENDBRANCH  12  19
ENDBRANCH   4   7
BRANCH   1  23
ATOM     22  N   UNL     1      -0.977  11.026  19.675  0.00  0.00    +0.000 N 
ATOM     23  C   UNL     1       0.311  11.040  19.200  0.00  0.00    +0.000 C 
ATOM     24  O   UNL     1       0.886  12.051  18.807  0.00  0.00    +0.000 OA
ATOM     25  H   UNL     1      -1.427  10.144  19.867  0.00  0.00    +0.000 HD
BRANCH  22  27
ATOM     26  C   UNL     1      -2.070  12.652  21.159  0.00  0.00    +0.000 C 
ATOM     27  C   UNL     1      -1.795  12.223  19.718  0.00  0.00    +0.000 C 
BRANCH  27  28
ATOM     28  C   UNL     1      -3.090  11.998  18.957  0.00  0.00    +0.000 A 
ATOM     29  C   UNL     1      -3.054  11.449  17.668  0.00  0.00    +0.000 A 
ATOM     30  C   UNL     1      -4.229  11.283  16.931  0.00  0.00    +0.000 A 
ATOM     31  C   UNL     1      -5.456  11.643  17.483  0.00  0.00    +0.000 A 
ATOM     32  C   UNL     1      -5.512  12.165  18.774  0.00  0.00    +0.000 A 
ATOM     33  C   UNL     1      -4.338  12.344  19.506  0.00  0.00    +0.000 A 
ENDBRANCH  27  28
ENDBRANCH  22  27
ENDBRANCH   1  23
TORSDOF 6
ENDMDL
MODEL 3
REMARK VINA RESULT:      -8.5      0.707      1.157
REMARK  Name = 
REMARK  7 active torsions:
REMARK  status: ('A' for Active; 'I' for Inactive)
REMARK    1  A    between atoms: C_1  and  C_2
REMARK    2  A    between atoms: C_2  and  N_3
REMARK    3  A    between atoms: C_2  and  C_25
REMARK    4  A    between atoms: C_4  and  C_6
REMARK    5  A    between atoms: C_9  and  C_10
REMARK    6  A    between atoms: C_12  and  C_13
REMARK    7  A    between atoms: C_21  and  N_22
REMARK                            x       y       z     vdW  Elec       q    Type
REMARK                         _______ _______ _______ _____ _____    ______ ____
ROOT
ATOM      1  C   UNL     1       3.193   6.404  18.919  0.00  0.00    +0.000 A 
ATOM      2  C   UNL     1       3.056   7.405  17.956  0.00  0.00    +0.000 A 
ATOM      3  C   UNL     1       2.204   8.491  18.197  0.00  0.00    +0.000 A 
ATOM      4  C   UNL     1       1.428   8.573  19.372  0.00  0.00    +0.000 A 
ATOM      5  C   UNL     1       1.529   7.493  20.272  0.00  0.00    +0.000 A 
ATOM      6  C   UNL     1       2.415   6.438  20.065  0.00  0.00    +0.000 A 
ENDROOT
BRANCH   4   7
ATOM      7  C   UNL     1       0.494   9.697  19.639  0.00  0.00    +0.000 A 
ATOM      8  C   UNL     1      -0.435  10.088  18.660  0.00  0.00    +0.000 A 
ATOM      9  C   UNL     1      -1.402  11.069  18.904  0.00  0.00    +0.000 A 
ATOM     10  C   UNL     1      -1.394  11.648  20.164  0.00  0.00    +0.000 A 
ATOM     11  N   UNL     1      -0.492  11.356  21.124  0.00  0.00    +0.000 NA
ATOM     12  C   UNL     1       0.438  10.416  20.852  0.00  0.00    +0.000 A 
BRANCH   9  13
ATOM     13  C   UNL     1      -2.385  11.504  17.838  0.00  0.00    +0.000 C 
ATOM     14  C   UNL     1      -3.831  11.573  18.358  0.00  0.00    +0.000 C 
ATOM     15  C   UNL     1      -4.804  11.845  17.220  0.00  0.00    +0.000 C 
ATOM     16  O   UNL     1      -4.655  10.875  16.184  0.00  0.00    +0.000 OA
ATOM     17  C   UNL     1      -3.360  10.917  15.591  0.00  0.00    +0.000 C 
ATOM     18  C   UNL     1      -2.292  10.574  16.618  0.00  0.00    +0.000 C 
ENDBRANCH   9  13
BRANCH  12  19
ATOM     19  N   UNL     1       1.320  10.181  21.909  0.00  0.00    +0.000 N 
ATOM     20  H   UNL     1       2.136   9.711  21.526  0.00  0.00    +0.000 HD
ATOM     21  H   UNL     1       0.877   9.661  22.658  0.00  0.00    +0.000 HD
ENDBRANCH  12  19
ENDBRANCH   4   7
BRANCH   1  23
ATOM     22  N   UNL     1       5.297   5.667  17.965  0.00  0.00    +0.000 N 
ATOM     23  C   UNL     1       4.188   5.321  18.696  0.00  0.00    +0.000 C 
ATOM     24  O   UNL     1       3.967   4.188  19.113  0.00  0.00    +0.000 OA
ATOM     25  H   UNL     1       5.356   6.585  17.553  0.00  0.00    +0.000 HD
BRANCH  22  27
ATOM     26  C   UNL     1       7.677   5.074  18.142  0.00  0.00    +0.000 C 
ATOM     27  C   UNL     1       6.305   4.693  17.586  0.00  0.00    +0.000 C 
BRANCH  27  28
ATOM     28  C   UNL     1       6.346   4.547  16.076  0.00  0.00    +0.000 A 
ATOM     29  C   UNL     1       5.324   3.850  15.414  0.00  0.00    +0.000 A 
ATOM     30  C   UNL     1       5.372   3.659  14.032  0.00  0.00    +0.000 A 
ATOM     31  C   UNL     1       6.429   4.181  13.291  0.00  0.00    +0.000 A 
ATOM     32  C   UNL     1       7.439   4.899  13.928  0.00  0.00    +0.000 A 
ATOM     33  C   UNL     1       7.400   5.079  15.312  0.00  0.00    +0.000 A 
ENDBRANCH  27  28
ENDBRANCH  22  27
ENDBRANCH   1  23
TORSDOF 6
ENDMDL
MODEL 4
REMARK VINA RESULT:      -8.5      5.707      9.280
REMARK  Name = 
REMARK  7 active torsions:
REMARK  status: ('A' for Active; 'I' for Inactive)
REMARK    1  A    between atoms: C_1  and  C_2
REMARK    2  A    between atoms: C_2  and  N_3
REMARK    3  A    between atoms: C_2  and  C_25
REMARK    4  A    between atoms: C_4  and  C_6
REMARK    5  A    between atoms: C_9  and  C_10
REMARK    6  A    between atoms: C_12  and  C_13
REMARK    7  A    between atoms: C_21  and  N_22
REMARK                            x       y       z     vdW  Elec       q    Type
REMARK                         _______ _______ _______ _____ _____    ______ ____
ROOT
ATOM      1  C   UNL     1       8.474   9.187  18.314  0.00  0.00    +0.000 A 
ATOM      2  C   UNL     1       7.468   9.263  17.351  0.00  0.00    +0.000 A 
ATOM      3  C   UNL     1       6.666   8.143  17.091  0.00  0.00    +0.000 A 
ATOM      4  C   UNL     1       6.888   6.912  17.741  0.00  0.00    +0.000 A 
ATOM      5  C   UNL     1       7.974   6.856  18.637  0.00  0.00    +0.000 A 
ATOM      6  C   UNL     1       8.740   7.979  18.941  0.00  0.00    +0.000 A 
ENDROOT
BRANCH   4   7
ATOM      7  C   UNL     1       6.073   5.700  17.463  0.00  0.00    +0.000 A 
ATOM      8  C   UNL     1       4.803   5.558  18.047  0.00  0.00    +0.000 A 
ATOM      9  C   UNL     1       3.958   4.488  17.734  0.00  0.00    +0.000 A 
ATOM     10  C   UNL     1       4.440   3.564  16.819  0.00  0.00    +0.000 A 
ATOM     11  N   UNL     1       5.672   3.616  16.270  0.00  0.00    +0.000 NA
ATOM     12  C   UNL     1       6.469   4.652  16.605  0.00  0.00    +0.000 A 
BRANCH   9  13
ATOM     13  C   UNL     1       2.600   4.325  18.383  0.00  0.00    +0.000 C 
ATOM     14  C   UNL     1       2.601   4.724  19.868  0.00  0.00    +0.000 C 
ATOM     15  C   UNL     1       1.269   4.385  20.522  0.00  0.00    +0.000 C 
ATOM     16  O   UNL     1       0.953   3.006  20.340  0.00  0.00    +0.000 OA
ATOM     17  C   UNL     1       0.795   2.666  18.964  0.00  0.00    +0.000 C 
ATOM     18  C   UNL     1       2.098   2.883  18.210  0.00  0.00    +0.000 C 
ENDBRANCH   9  13
BRANCH  12  19
ATOM     19  N   UNL     1       7.718   4.621  15.980  0.00  0.00    +0.000 N 
ATOM     20  H   UNL     1       7.910   3.654  15.731  0.00  0.00    +0.000 HD
ATOM     21  H   UNL     1       8.439   5.031  16.563  0.00  0.00    +0.000 HD
ENDBRANCH  12  19
ENDBRANCH   4   7
BRANCH   1  23
ATOM     22  N   UNL     1       9.144  10.836  19.962  0.00  0.00    +0.000 N 
ATOM     23  C   UNL     1       9.237  10.417  18.658  0.00  0.00    +0.000 C 
ATOM     24  O   UNL     1       9.859  11.018  17.788  0.00  0.00    +0.000 OA
ATOM     25  H   UNL     1       8.520  10.360  20.595  0.00  0.00    +0.000 HD
BRANCH  22  27
ATOM     26  C   UNL     1      11.273  11.933  20.513  0.00  0.00    +0.000 C 
ATOM     27  C   UNL     1       9.754  12.070  20.420  0.00  0.00    +0.000 C 
BRANCH  27  28
ATOM     28  C   UNL     1       9.158  12.483  21.754  0.00  0.00    +0.000 A 
ATOM     29  C   UNL     1       8.451  11.546  22.521  0.00  0.00    +0.000 A 
ATOM     30  C   UNL     1       7.850  11.920  23.725  0.00  0.00    +0.000 A 
ATOM     31  C   UNL     1       7.968  13.228  24.188  0.00  0.00    +0.000 A 
ATOM     32  C   UNL     1       8.691  14.164  23.452  0.00  0.00    +0.000 A 
ATOM     33  C   UNL     1       9.280  13.796  22.241  0.00  0.00    +0.000 A 
ENDBRANCH  27  28
ENDBRANCH  22  27
ENDBRANCH   1  23
TORSDOF 6
ENDMDL
MODEL 5
REMARK VINA RESULT:      -8.4      2.210      9.857
REMARK  Name = 
REMARK  7 active torsions:
REMARK  status: ('A' for Active; 'I' for Inactive)
REMARK    1  A    between atoms: C_1  and  C_2
REMARK    2  A    between atoms: C_2  and  N_3
REMARK    3  A    between atoms: C_2  and  C_25
REMARK    4  A    between atoms: C_4  and  C_6
REMARK    5  A    between atoms: C_9  and  C_10
REMARK    6  A    between atoms: C_12  and  C_13
REMARK    7  A    between atoms: C_21  and  N_22
REMARK                            x       y       z     vdW  Elec       q    Type
REMARK                         _______ _______ _______ _____ _____    ______ ____
ROOT
ATOM      1  C   UNL     1       1.039   9.857  19.188  0.00  0.00    +0.000 A 
ATOM      2  C   UNL     1       1.598   9.469  17.970  0.00  0.00    +0.000 A 
ATOM      3  C   UNL     1       2.204   8.210  17.850  0.00  0.00    +0.000 A 
ATOM      4  C   UNL     1       2.316   7.340  18.954  0.00  0.00    +0.000 A 
ATOM      5  C   UNL     1       1.820   7.812  20.185  0.00  0.00    +0.000 A 
ATOM      6  C   UNL     1       1.168   9.038  20.299  0.00  0.00    +0.000 A 
ENDROOT
BRANCH   4   7
ATOM      7  C   UNL     1       2.979   6.013  18.863  0.00  0.00    +0.000 A 
ATOM      8  C   UNL     1       3.935   5.771  17.861  0.00  0.00    +0.000 A 
ATOM      9  C   UNL     1       4.660   4.576  17.800  0.00  0.00    +0.000 A 
ATOM     10  C   UNL     1       4.383   3.632  18.777  0.00  0.00    +0.000 A 
ATOM     11  N   UNL     1       3.437   3.783  19.728  0.00  0.00    +0.000 NA
ATOM     12  C   UNL     1       2.743   4.941  19.750  0.00  0.00    +0.000 A 
BRANCH   9  13
ATOM     13  C   UNL     1       5.671   4.310  16.706  0.00  0.00    +0.000 C 
ATOM     14  C   UNL     1       6.781   5.373  16.652  0.00  0.00    +0.000 C 
ATOM     15  C   UNL     1       7.674   5.164  15.438  0.00  0.00    +0.000 C 
ATOM     16  O   UNL     1       6.900   5.139  14.239  0.00  0.00    +0.000 OA
ATOM     17  C   UNL     1       5.975   4.054  14.218  0.00  0.00    +0.000 C 
ATOM     18  C   UNL     1       4.965   4.194  15.346  0.00  0.00    +0.000 C 
ENDBRANCH   9  13
BRANCH  12  19
ATOM     19  N   UNL     1       1.794   5.004  20.773  0.00  0.00    +0.000 N 
ATOM     20  H   UNL     1       1.098   5.694  20.500  0.00  0.00    +0.000 HD
ATOM     21  H   UNL     1       2.222   5.205  21.669  0.00  0.00    +0.000 HD
ENDBRANCH  12  19
ENDBRANCH   4   7
BRANCH   1  23
ATOM     22  N   UNL     1      -0.982  11.075  19.748  0.00  0.00    +0.000 N 
ATOM     23  C   UNL     1       0.300  11.146  19.263  0.00  0.00    +0.000 C 
ATOM     24  O   UNL     1       0.825  12.180  18.860  0.00  0.00    +0.000 OA
ATOM     25  H   UNL     1      -1.389  10.175  19.950  0.00  0.00    +0.000 HD
BRANCH  22  27
ATOM     26  C   UNL     1      -2.225  12.594  21.227  0.00  0.00    +0.000 C 
ATOM     27  C   UNL     1      -1.855  12.233  19.789  0.00  0.00    +0.000 C 
BRANCH  27  28
ATOM     28  C   UNL     1      -3.096  11.981  18.951  0.00  0.00    +0.000 A 
ATOM     29  C   UNL     1      -4.361  12.294  19.467  0.00  0.00    +0.000 A 
ATOM     30  C   UNL     1      -5.517  12.021  18.733  0.00  0.00    +0.000 A 
ATOM     31  C   UNL     1      -5.422  11.453  17.465  0.00  0.00    +0.000 A 
ATOM     32  C   UNL     1      -4.171  11.161  16.926  0.00  0.00    +0.000 A 
ATOM     33  C   UNL     1      -3.014  11.420  17.663  0.00  0.00    +0.000 A 
ENDBRANCH  27  28
ENDBRANCH  22  27
ENDBRANCH   1  23
TORSDOF 6
ENDMDL
MODEL 6
REMARK VINA RESULT:      -8.4      4.301     11.303
REMARK  Name = 
REMARK  7 active torsions:
REMARK  status: ('A' for Active; 'I' for Inactive)
REMARK    1  A    between atoms: C_1  and  C_2
REMARK    2  A    between atoms: C_2  and  N_3
REMARK    3  A    between atoms: C_2  and  C_25
REMARK    4  A    between atoms: C_4  and  C_6
REMARK    5  A    between atoms: C_9  and  C_10
REMARK    6  A    between atoms: C_12  and  C_13
REMARK    7  A    between atoms: C_21  and  N_22
REMARK                            x       y       z     vdW  Elec       q    Type
REMARK                         _______ _______ _______ _____ _____    ______ ____
ROOT
ATOM      1  C   UNL     1      -1.052  11.467  22.207  0.00  0.00    +0.000 A 
ATOM      2  C   UNL     1      -0.915  11.638  20.829  0.00  0.00    +0.000 A 
ATOM      3  C   UNL     1      -0.173  10.713  20.082  0.00  0.00    +0.000 A 
ATOM      4  C   UNL     1       0.494   9.635  20.698  0.00  0.00    +0.000 A 
ATOM      5  C   UNL     1       0.404   9.555  22.102  0.00  0.00    +0.000 A 
ATOM      6  C   UNL     1      -0.376  10.438  22.845  0.00  0.00    +0.000 A 
ENDROOT
BRANCH   4   7
ATOM      7  C   UNL     1       1.311   8.656  19.935  0.00  0.00    +0.000 A 
ATOM      8  C   UNL     1       1.558   7.379  20.467  0.00  0.00    +0.000 A 
ATOM      9  C   UNL     1       2.233   6.391  19.742  0.00  0.00    +0.000 A 
ATOM     10  C   UNL     1       2.656   6.737  18.468  0.00  0.00    +0.000 A 
ATOM     11  N   UNL     1       2.500   7.963  17.926  0.00  0.00    +0.000 NA
ATOM     12  C   UNL     1       1.859   8.899  18.657  0.00  0.00    +0.000 A 
BRANCH   9  13
ATOM     13  C   UNL     1       2.517   5.024  20.327  0.00  0.00    +0.000 C 
ATOM     14  C   UNL     1       3.453   4.183  19.443  0.00  0.00    +0.000 C 
ATOM     15  C   UNL     1       3.574   2.763  19.979  0.00  0.00    +0.000 C 
ATOM     16  O   UNL     1       2.287   2.163  20.116  0.00  0.00    +0.000 OA
ATOM     17  C   UNL     1       1.469   2.853  21.059  0.00  0.00    +0.000 C 
ATOM     18  C   UNL     1       1.201   4.275  20.590  0.00  0.00    +0.000 C 
ENDBRANCH   9  13
BRANCH  12  19
ATOM     19  N   UNL     1       1.741  10.131  18.008  0.00  0.00    +0.000 N 
ATOM     20  H   UNL     1       2.568  10.676  18.238  0.00  0.00    +0.000 HD
ATOM     21  H   UNL     1       0.876  10.600  18.249  0.00  0.00    +0.000 HD
ENDBRANCH  12  19
ENDBRANCH   4   7
BRANCH   1  23
ATOM     22  N   UNL     1      -3.268  12.062  22.990  0.00  0.00    +0.000 N 
ATOM     23  C   UNL     1      -1.937  12.393  22.964  0.00  0.00    +0.000 C 
ATOM     24  O   UNL     1      -1.472  13.406  23.476  0.00  0.00    +0.000 OA
ATOM     25  H   UNL     1      -3.598  11.279  22.447  0.00  0.00    +0.000 HD
BRANCH  22  27
ATOM     26  C   UNL     1      -4.619  12.432  25.011  0.00  0.00    +0.000 C 
ATOM     27  C   UNL     1      -4.264  12.920  23.606  0.00  0.00    +0.000 C 
BRANCH  27  28
ATOM     28  C   UNL     1      -5.498  13.003  22.727  0.00  0.00    +0.000 A 
ATOM     29  C   UNL     1      -5.359  13.245  21.352  0.00  0.00    +0.000 A 
ATOM     30  C   UNL     1      -6.485  13.377  20.536  0.00  0.00    +0.000 A 
ATOM     31  C   UNL     1      -7.761  13.247  21.078  0.00  0.00    +0.000 A 
ATOM     32  C   UNL     1      -7.915  12.979  22.436  0.00  0.00    +0.000 A 
ATOM     33  C   UNL     1      -6.793  12.860  23.257  0.00  0.00    +0.000 A 
ENDBRANCH  27  28
ENDBRANCH  22  27
ENDBRANCH   1  23
TORSDOF 6
ENDMDL
MODEL 7
REMARK VINA RESULT:      -8.4      1.667      2.473
REMARK  Name = 
REMARK  7 active torsions:
REMARK  status: ('A' for Active; 'I' for Inactive)
REMARK    1  A    between atoms: C_1  and  C_2
REMARK    2  A    between atoms: C_2  and  N_3
REMARK    3  A    between atoms: C_2  and  C_25
REMARK    4  A    between atoms: C_4  and  C_6
REMARK    5  A    between atoms: C_9  and  C_10
REMARK    6  A    between atoms: C_12  and  C_13
REMARK    7  A    between atoms: C_21  and  N_22
REMARK                            x       y       z     vdW  Elec       q    Type
REMARK                         _______ _______ _______ _____ _____    ______ ____
ROOT
ATOM      1  C   UNL     1       2.583   7.204  19.114  0.00  0.00    +0.000 A 
ATOM      2  C   UNL     1       2.418   7.901  17.916  0.00  0.00    +0.000 A 
ATOM      3  C   UNL     1       1.641   9.067  17.888  0.00  0.00    +0.000 A 
ATOM      4  C   UNL     1       0.965   9.528  19.037  0.00  0.00    +0.000 A 
ATOM      5  C   UNL     1       1.085   8.742  20.200  0.00  0.00    +0.000 A 
ATOM      6  C   UNL     1       1.900   7.613  20.249  0.00  0.00    +0.000 A 
ENDROOT
BRANCH   4   7
ATOM      7  C   UNL     1       0.110  10.744  19.029  0.00  0.00    +0.000 A 
ATOM      8  C   UNL     1      -1.286  10.621  18.924  0.00  0.00    +0.000 A 
ATOM      9  C   UNL     1      -2.137  11.727  19.017  0.00  0.00    +0.000 A 
ATOM     10  C   UNL     1      -1.533  12.960  19.211  0.00  0.00    +0.000 A 
ATOM     11  N   UNL     1      -0.198  13.148  19.261  0.00  0.00    +0.000 NA
ATOM     12  C   UNL     1       0.597  12.063  19.152  0.00  0.00    +0.000 A 
BRANCH   9  13
ATOM     13  C   UNL     1      -3.639  11.594  18.881  0.00  0.00    +0.000 C 
ATOM     14  C   UNL     1      -4.114  11.703  17.422  0.00  0.00    +0.000 C 
ATOM     15  C   UNL     1      -5.634  11.736  17.348  0.00  0.00    +0.000 C 
ATOM     16  O   UNL     1      -6.157  12.786  18.160  0.00  0.00    +0.000 OA
ATOM     17  C   UNL     1      -5.851  12.603  19.540  0.00  0.00    +0.000 C 
ATOM     18  C   UNL     1      -4.347  12.637  19.761  0.00  0.00    +0.000 C 
ENDBRANCH   9  13
BRANCH  12  19
ATOM     19  N   UNL     1       1.960  12.359  19.222  0.00  0.00    +0.000 N 
ATOM     20  H   UNL     1       2.327  11.910  20.058  0.00  0.00    +0.000 HD
ATOM     21  H   UNL     1       2.128  13.358  19.202  0.00  0.00    +0.000 HD
ENDBRANCH  12  19
ENDBRANCH   4   7
BRANCH   1  23
ATOM     22  N   UNL     1       4.653   6.158  18.408  0.00  0.00    +0.000 N 
ATOM     23  C   UNL     1       3.504   6.037  19.148  0.00  0.00    +0.000 C 
ATOM     24  O   UNL     1       3.193   5.027  19.773  0.00  0.00    +0.000 OA
ATOM     25  H   UNL     1       4.788   6.969  17.825  0.00  0.00    +0.000 HD
BRANCH  22  27
ATOM     26  C   UNL     1       6.882   5.343  19.050  0.00  0.00    +0.000 C 
ATOM     27  C   UNL     1       5.598   5.065  18.269  0.00  0.00    +0.000 C 
BRANCH  27  28
ATOM     28  C   UNL     1       5.893   4.814  16.801  0.00  0.00    +0.000 A 
ATOM     29  C   UNL     1       4.936   4.178  15.997  0.00  0.00    +0.000 A 
ATOM     30  C   UNL     1       5.209   3.891  14.658  0.00  0.00    +0.000 A 
ATOM     31  C   UNL     1       6.431   4.256  14.100  0.00  0.00    +0.000 A 
ATOM     32  C   UNL     1       7.382   4.913  14.877  0.00  0.00    +0.000 A 
ATOM     33  C   UNL     1       7.117   5.189  16.220  0.00  0.00    +0.000 A 
ENDBRANCH  27  28
ENDBRANCH  22  27
ENDBRANCH   1  23
TORSDOF 6
ENDMDL
MODEL 8
REMARK VINA RESULT:      -8.4      3.445      4.357
REMARK  Name = 
REMARK  7 active torsions:
REMARK  status: ('A' for Active; 'I' for Inactive)
REMARK    1  A    between atoms: C_1  and  C_2
REMARK    2  A    between atoms: C_2  and  N_3
REMARK    3  A    between atoms: C_2  and  C_25
REMARK    4  A    between atoms: C_4  and  C_6
REMARK    5  A    between atoms: C_9  and  C_10
REMARK    6  A    between atoms: C_12  and  C_13
REMARK    7  A    between atoms: C_21  and  N_22
REMARK                            x       y       z     vdW  Elec       q    Type
REMARK                         _______ _______ _______ _____ _____    ______ ____
ROOT
ATOM      1  C   UNL     1       2.477   7.370  18.953  0.00  0.00    +0.000 A 
ATOM      2  C   UNL     1       2.467   8.114  17.773  0.00  0.00    +0.000 A 
ATOM      3  C   UNL     1       1.878   9.385  17.755  0.00  0.00    +0.000 A 
ATOM      4  C   UNL     1       1.236   9.916  18.893  0.00  0.00    +0.000 A 
ATOM      5  C   UNL     1       1.190   9.091  20.035  0.00  0.00    +0.000 A 
ATOM      6  C   UNL     1       1.821   7.850  20.077  0.00  0.00    +0.000 A 
ENDROOT
BRANCH   4   7
ATOM      7  C   UNL     1       0.578  11.248  18.894  0.00  0.00    +0.000 A 
ATOM      8  C   UNL     1       1.352  12.416  19.005  0.00  0.00    +0.000 A 
ATOM      9  C   UNL     1       0.788  13.692  18.906  0.00  0.00    +0.000 A 
ATOM     10  C   UNL     1      -0.582  13.751  18.699  0.00  0.00    +0.000 A 
ATOM     11  N   UNL     1      -1.385  12.668  18.642  0.00  0.00    +0.000 NA
ATOM     12  C   UNL     1      -0.812  11.451  18.757  0.00  0.00    +0.000 A 
BRANCH   9  13
ATOM     13  C   UNL     1       1.622  14.947  19.050  0.00  0.00    +0.000 C 
ATOM     14  C   UNL     1       0.826  16.227  18.742  0.00  0.00    +0.000 C 
ATOM     15  C   UNL     1       1.739  17.444  18.732  0.00  0.00    +0.000 C 
ATOM     16  O   UNL     1       2.822  17.256  17.821  0.00  0.00    +0.000 OA
ATOM     17  C   UNL     1       3.656  16.162  18.195  0.00  0.00    +0.000 C 
ATOM     18  C   UNL     1       2.872  14.860  18.161  0.00  0.00    +0.000 C 
ENDBRANCH   9  13
BRANCH  12  19
ATOM     19  N   UNL     1      -1.723  10.395  18.678  0.00  0.00    +0.000 N 
ATOM     20  H   UNL     1      -1.225   9.589  18.308  0.00  0.00    +0.000 HD
ATOM     21  H   UNL     1      -2.539  10.644  18.130  0.00  0.00    +0.000 HD
ENDBRANCH  12  19
ENDBRANCH   4   7
BRANCH   1  23
ATOM     22  N   UNL     1       4.509   6.110  18.550  0.00  0.00    +0.000 N 
ATOM     23  C   UNL     1       3.207   6.075  18.983  0.00  0.00    +0.000 C 
ATOM     24  O   UNL     1       2.628   5.051  19.334  0.00  0.00    +0.000 OA
ATOM     25  H   UNL     1       4.883   6.963  18.164  0.00  0.00    +0.000 HD
BRANCH  22  27
ATOM     26  C   UNL     1       6.529   4.966  19.356  0.00  0.00    +0.000 C 
ATOM     27  C   UNL     1       5.314   4.908  18.431  0.00  0.00    +0.000 C 
BRANCH  27  28
ATOM     28  C   UNL     1       5.734   4.702  16.987  0.00  0.00    +0.000 A 
ATOM     29  C   UNL     1       7.035   5.036  16.585  0.00  0.00    +0.000 A 
ATOM     30  C   UNL     1       7.424   4.902  15.250  0.00  0.00    +0.000 A 
ATOM     31  C   UNL     1       6.525   4.413  14.306  0.00  0.00    +0.000 A 
ATOM     32  C   UNL     1       5.237   4.051  14.694  0.00  0.00    +0.000 A 
ATOM     33  C   UNL     1       4.842   4.196  16.025  0.00  0.00    +0.000 A 
ENDBRANCH  27  28
ENDBRANCH  22  27
ENDBRANCH   1  23
TORSDOF 6
ENDMDL
MODEL 9
REMARK VINA RESULT:      -8.3      5.807      8.989
REMARK  Name = 
REMARK  7 active torsions:
REMARK  status: ('A' for Active; 'I' for Inactive)
REMARK    1  A    between atoms: C_1  and  C_2
REMARK    2  A    between atoms: C_2  and  N_3
REMARK    3  A    between atoms: C_2  and  C_25
REMARK    4  A    between atoms: C_4  and  C_6
REMARK    5  A    between atoms: C_9  and  C_10
REMARK    6  A    between atoms: C_12  and  C_13
REMARK    7  A    between atoms: C_21  and  N_22
REMARK                            x       y       z     vdW  Elec       q    Type
REMARK                         _______ _______ _______ _____ _____    ______ ____
ROOT
ATOM      1  C   UNL     1       8.541   8.987  18.529  0.00  0.00    +0.000 A 
ATOM      2  C   UNL     1       7.633   9.138  17.481  0.00  0.00    +0.000 A 
ATOM      3  C   UNL     1       6.808   8.066  17.113  0.00  0.00    +0.000 A 
ATOM      4  C   UNL     1       6.913   6.808  17.740  0.00  0.00    +0.000 A 
ATOM      5  C   UNL     1       7.908   6.675  18.730  0.00  0.00    +0.000 A 
ATOM      6  C   UNL     1       8.692   7.751  19.139  0.00  0.00    +0.000 A 
ENDROOT
BRANCH   4   7
ATOM      7  C   UNL     1       6.073   5.645  17.350  0.00  0.00    +0.000 A 
ATOM      8  C   UNL     1       4.805   5.467  17.929  0.00  0.00    +0.000 A 
ATOM      9  C   UNL     1       3.938   4.450  17.518  0.00  0.00    +0.000 A 
ATOM     10  C   UNL     1       4.395   3.614  16.511  0.00  0.00    +0.000 A 
ATOM     11  N   UNL     1       5.623   3.699  15.957  0.00  0.00    +0.000 NA
ATOM     12  C   UNL     1       6.443   4.682  16.387  0.00  0.00    +0.000 A 
BRANCH   9  13
ATOM     13  C   UNL     1       2.582   4.247  18.161  0.00  0.00    +0.000 C 
ATOM     14  C   UNL     1       2.554   4.681  19.636  0.00  0.00    +0.000 C 
ATOM     15  C   UNL     1       1.231   4.303  20.288  0.00  0.00    +0.000 C 
ATOM     16  O   UNL     1       0.974   2.908  20.137  0.00  0.00    +0.000 OA
ATOM     17  C   UNL     1       0.842   2.530  18.769  0.00  0.00    +0.000 C 
ATOM     18  C   UNL     1       2.141   2.781  18.019  0.00  0.00    +0.000 C 
ENDBRANCH   9  13
BRANCH  12  19
ATOM     19  N   UNL     1       7.686   4.691  15.750  0.00  0.00    +0.000 N 
ATOM     20  H   UNL     1       8.180   5.525  16.059  0.00  0.00    +0.000 HD
ATOM     21  H   UNL     1       7.591   4.635  14.743  0.00  0.00    +0.000 HD
ENDBRANCH  12  19
ENDBRANCH   4   7
BRANCH   1  23
ATOM     22  N   UNL     1       9.877  10.937  17.988  0.00  0.00    +0.000 N 
ATOM     23  C   UNL     1       9.324  10.169  18.981  0.00  0.00    +0.000 C 
ATOM     24  O   UNL     1       9.483  10.379  20.180  0.00  0.00    +0.000 OA
ATOM     25  H   UNL     1       9.804  10.638  17.027  0.00  0.00    +0.000 HD
BRANCH  22  27
ATOM     26  C   UNL     1      11.926  11.639  19.150  0.00  0.00    +0.000 C 
ATOM     27  C   UNL     1      10.745  12.063  18.277  0.00  0.00    +0.000 C 
BRANCH  27  28
ATOM     28  C   UNL     1       9.951  13.179  18.933  0.00  0.00    +0.000 A 
ATOM     29  C   UNL     1       8.798  13.675  18.307  0.00  0.00    +0.000 A 
ATOM     30  C   UNL     1       8.085  14.736  18.868  0.00  0.00    +0.000 A 
ATOM     31  C   UNL     1       8.501  15.300  20.071  0.00  0.00    +0.000 A 
ATOM     32  C   UNL     1       9.629  14.801  20.720  0.00  0.00    +0.000 A 
ATOM     33  C   UNL     1      10.352  13.749  20.154  0.00  0.00    +0.000 A 
ENDBRANCH  27  28
ENDBRANCH  22  27
ENDBRANCH   1  23
TORSDOF 6
ENDMDL
