MODEL 1
REMARK VINA RESULT:      -6.7      0.000      0.000
REMARK  Name = 
REMARK  2 active torsions:
REMARK  status: ('A' for Active; 'I' for Inactive)
REMARK    1  A    between atoms: C_2  and  O_3
REMARK    2  A    between atoms: O_3  and  C_4
REMARK                            x       y       z     vdW  Elec       q    Type
REMARK                         _______ _______ _______ _____ _____    ______ ____
ROOT
ATOM      1  C   UNL     1       2.863   5.300  18.637  0.00  0.00    +0.000 A 
ATOM      2  N   UNL     1       1.765   4.658  19.040  0.00  0.00    +0.000 NA
ATOM      3  S   UNL     1       1.708   3.287  18.104  0.00  0.00    +0.000 S 
ATOM      4  N   UNL     1       3.159   3.413  17.302  0.00  0.00    +0.000 NA
ATOM      5  C   UNL     1       3.729   4.559  17.710  0.00  0.00    +0.000 A 
ATOM      6  N   UNL     1       4.948   4.977  17.236  0.00  0.00    +0.000 N 
ATOM      7  C   UNL     1       5.903   5.724  18.062  0.00  0.00    +0.000 C 
ATOM      8  C   UNL     1       6.728   6.635  17.142  0.00  0.00    +0.000 C 
ATOM      9  O   UNL     1       7.428   5.874  16.143  0.00  0.00    +0.000 OA
ATOM     10  C   UNL     1       6.505   5.113  15.343  0.00  0.00    +0.000 C 
ATOM     11  C   UNL     1       5.643   4.174  16.205  0.00  0.00    +0.000 C 
ENDROOT
BRANCH   1  12
ATOM     12  O   UNL     1       3.126   6.493  19.220  0.00  0.00    +0.000 OA
BRANCH  12  14
ATOM     13  O   UNL     1       3.062   7.858  17.363  0.00  0.00    +0.000 OA
ATOM     14  C   UNL     1       2.741   7.613  18.522  0.00  0.00    +0.000 C 
ATOM     15  N   UNL     1       1.911   8.477  19.255  0.00  0.00    +0.000 N 
ATOM     16  C   UNL     1       0.997   9.287  18.444  0.00  0.00    +0.000 C 
ATOM     17  C   UNL     1       0.137  10.283  19.231  0.00  0.00    +0.000 C 
ATOM     18  O   UNL     1      -0.362   9.732  20.455  0.00  0.00    +0.000 OA
ATOM     19  C   UNL     1       0.733   9.306  21.273  0.00  0.00    +0.000 C 
ATOM     20  C   UNL     1       1.461   8.137  20.604  0.00  0.00    +0.000 C 
ENDBRANCH  12  14
ENDBRANCH   1  12
TORSDOF 2
ENDMDL
MODEL 2
REMARK VINA RESULT:      -6.3      2.515      3.877
REMARK  Name = 
REMARK  2 active torsions:
REMARK  status: ('A' for Active; 'I' for Inactive)
REMARK    1  A    between atoms: C_2  and  O_3
REMARK    2  A    between atoms: O_3  and  C_4
REMARK                            x       y       z     vdW  Elec       q    Type
REMARK                         _______ _______ _______ _____ _____    ______ ____
ROOT
ATOM      1  C   UNL     1       3.422   6.322  18.184  0.00  0.00    +0.000 A 
ATOM      2  N   UNL     1       4.371   6.928  17.468  0.00  0.00    +0.000 NA
ATOM      3  S   UNL     1       5.753   6.060  17.774  0.00  0.00    +0.000 S 
ATOM      4  N   UNL     1       5.129   4.814  18.679  0.00  0.00    +0.000 NA
ATOM      5  C   UNL     1       3.813   5.051  18.809  0.00  0.00    +0.000 A 
ATOM      6  N   UNL     1       2.986   4.209  19.511  0.00  0.00    +0.000 N 
ATOM      7  C   UNL     1       1.587   3.981  19.134  0.00  0.00    +0.000 C 
ATOM      8  C   UNL     1       0.790   3.659  20.406  0.00  0.00    +0.000 C 
ATOM      9  O   UNL     1       1.317   2.501  21.075  0.00  0.00    +0.000 OA
ATOM     10  C   UNL     1       2.698   2.701  21.426  0.00  0.00    +0.000 C 
ATOM     11  C   UNL     1       3.558   3.027  20.193  0.00  0.00    +0.000 C 
ENDROOT
BRANCH   1  12
ATOM     12  O   UNL     1       2.183   6.864  18.148  0.00  0.00    +0.000 OA
BRANCH  12  14
ATOM     13  O   UNL     1       2.326   8.960  17.198  0.00  0.00    +0.000 OA
ATOM     14  C   UNL     1       2.114   8.236  18.167  0.00  0.00    +0.000 C 
ATOM     15  N   UNL     1       1.756   8.766  19.418  0.00  0.00    +0.000 N 
ATOM     16  C   UNL     1       1.073  10.063  19.363  0.00  0.00    +0.000 C 
ATOM     17  C   UNL     1       0.741  10.681  20.727  0.00  0.00    +0.000 C 
ATOM     18  O   UNL     1       0.268   9.712  21.669  0.00  0.00    +0.000 OA
ATOM     19  C   UNL     1       1.253   8.688  21.844  0.00  0.00    +0.000 C 
ATOM     20  C   UNL     1       1.420   7.897  20.544  0.00  0.00    +0.000 C 
ENDBRANCH  12  14
ENDBRANCH   1  12
TORSDOF 2
ENDMDL
MODEL 3
REMARK VINA RESULT:      -6.3      1.318      1.973
REMARK  Name = 
REMARK  2 active torsions:
REMARK  status: ('A' for Active; 'I' for Inactive)
REMARK    1  A    between atoms: C_2  and  O_3
REMARK    2  A    between atoms: O_3  and  C_4
REMARK                            x       y       z     vdW  Elec       q    Type
REMARK                         _______ _______ _______ _____ _____    ______ ____
ROOT
ATOM      1  C   UNL     1       3.536   4.243  18.840  0.00  0.00    +0.000 A 
ATOM      2  N   UNL     1       2.607   3.402  19.298  0.00  0.00    +0.000 NA
ATOM      3  S   UNL     1       2.550   2.179  18.176  0.00  0.00    +0.000 S 
ATOM      4  N   UNL     1       3.817   2.619  17.192  0.00  0.00    +0.000 NA
ATOM      5  C   UNL     1       4.310   3.766  17.686  0.00  0.00    +0.000 A 
ATOM      6  N   UNL     1       5.372   4.413  17.104  0.00  0.00    +0.000 N 
ATOM      7  C   UNL     1       6.361   5.167  17.883  0.00  0.00    +0.000 C 
ATOM      8  C   UNL     1       6.903   6.303  17.004  0.00  0.00    +0.000 C 
ATOM      9  O   UNL     1       7.505   5.793  15.802  0.00  0.00    +0.000 OA
ATOM     10  C   UNL     1       6.553   5.027  15.042  0.00  0.00    +0.000 C 
ATOM     11  C   UNL     1       5.968   3.867  15.865  0.00  0.00    +0.000 C 
ENDROOT
BRANCH   1  12
ATOM     12  O   UNL     1       3.755   5.369  19.558  0.00  0.00    +0.000 OA
BRANCH  12  14
ATOM     13  O   UNL     1       2.098   5.526  21.154  0.00  0.00    +0.000 OA
ATOM     14  C   UNL     1       2.653   5.946  20.142  0.00  0.00    +0.000 C 
ATOM     15  N   UNL     1       2.203   7.101  19.481  0.00  0.00    +0.000 N 
ATOM     16  C   UNL     1       1.506   8.067  20.337  0.00  0.00    +0.000 C 
ATOM     17  C   UNL     1       0.950   9.298  19.610  0.00  0.00    +0.000 C 
ATOM     18  O   UNL     1       1.852   9.806  18.621  0.00  0.00    +0.000 OA
ATOM     19  C   UNL     1       2.142   8.783  17.662  0.00  0.00    +0.000 C 
ATOM     20  C   UNL     1       2.919   7.646  18.329  0.00  0.00    +0.000 C 
ENDBRANCH  12  14
ENDBRANCH   1  12
TORSDOF 2
ENDMDL
MODEL 4
REMARK VINA RESULT:      -6.3      2.087      6.043
REMARK  Name = 
REMARK  2 active torsions:
REMARK  status: ('A' for Active; 'I' for Inactive)
REMARK    1  A    between atoms: C_2  and  O_3
REMARK    2  A    between atoms: O_3  and  C_4
REMARK                            x       y       z     vdW  Elec       q    Type
REMARK                         _______ _______ _______ _____ _____    ______ ____
ROOT
ATOM      1  C   UNL     1       3.274   3.433  19.567  0.00  0.00    +0.000 A 
ATOM      2  N   UNL     1       3.238   2.247  20.178  0.00  0.00    +0.000 NA
ATOM      3  S   UNL     1       2.400   2.520  21.586  0.00  0.00    +0.000 S 
ATOM      4  N   UNL     1       1.932   4.099  21.352  0.00  0.00    +0.000 NA
ATOM      5  C   UNL     1       2.449   4.486  20.175  0.00  0.00    +0.000 A 
ATOM      6  N   UNL     1       2.257   5.750  19.675  0.00  0.00    +0.000 N 
ATOM      7  C   UNL     1       2.141   6.021  18.237  0.00  0.00    +0.000 C 
ATOM      8  C   UNL     1       2.670   7.437  17.969  0.00  0.00    +0.000 C 
ATOM      9  O   UNL     1       1.936   8.421  18.718  0.00  0.00    +0.000 OA
ATOM     10  C   UNL     1       2.017   8.150  20.130  0.00  0.00    +0.000 C 
ATOM     11  C   UNL     1       1.500   6.741  20.471  0.00  0.00    +0.000 C 
ENDROOT
BRANCH   1  12
ATOM     12  O   UNL     1       3.948   3.501  18.395  0.00  0.00    +0.000 OA
BRANCH  12  14
ATOM     13  O   UNL     1       5.818   4.343  19.449  0.00  0.00    +0.000 OA
ATOM     14  C   UNL     1       5.169   4.129  18.428  0.00  0.00    +0.000 C 
ATOM     15  N   UNL     1       5.645   4.506  17.162  0.00  0.00    +0.000 N 
ATOM     16  C   UNL     1       7.105   4.577  17.049  0.00  0.00    +0.000 C 
ATOM     17  C   UNL     1       7.631   5.056  15.690  0.00  0.00    +0.000 C 
ATOM     18  O   UNL     1       6.899   4.501  14.591  0.00  0.00    +0.000 OA
ATOM     19  C   UNL     1       5.515   4.847  14.710  0.00  0.00    +0.000 C 
ATOM     20  C   UNL     1       4.911   4.171  15.943  0.00  0.00    +0.000 C 
ENDBRANCH  12  14
ENDBRANCH   1  12
TORSDOF 2
ENDMDL
MODEL 5
REMARK VINA RESULT:      -6.1      3.759      7.239
REMARK  Name = 
REMARK  2 active torsions:
REMARK  status: ('A' for Active; 'I' for Inactive)
REMARK    1  A    between atoms: C_2  and  O_3
REMARK    2  A    between atoms: O_3  and  C_4
REMARK                            x       y       z     vdW  Elec       q    Type
REMARK                         _______ _______ _______ _____ _____    ______ ____
ROOT
ATOM      1  C   UNL     1       6.643   4.674  17.634  0.00  0.00    +0.000 A 
ATOM      2  N   UNL     1       7.888   4.985  17.999  0.00  0.00    +0.000 NA
ATOM      3  S   UNL     1       7.758   5.460  19.586  0.00  0.00    +0.000 S 
ATOM      4  N   UNL     1       6.157   5.115  19.870  0.00  0.00    +0.000 NA
ATOM      5  C   UNL     1       5.650   4.648  18.718  0.00  0.00    +0.000 A 
ATOM      6  N   UNL     1       4.336   4.268  18.600  0.00  0.00    +0.000 N 
ATOM      7  C   UNL     1       3.907   3.170  17.726  0.00  0.00    +0.000 C 
ATOM      8  C   UNL     1       2.478   3.465  17.248  0.00  0.00    +0.000 C 
ATOM      9  O   UNL     1       1.572   3.597  18.356  0.00  0.00    +0.000 OA
ATOM     10  C   UNL     1       1.998   4.653  19.237  0.00  0.00    +0.000 C 
ATOM     11  C   UNL     1       3.427   4.421  19.757  0.00  0.00    +0.000 C 
ENDROOT
BRANCH   1  12
ATOM     12  O   UNL     1       6.456   4.288  16.350  0.00  0.00    +0.000 OA
BRANCH  12  14
ATOM     13  O   UNL     1       7.634   6.126  15.608  0.00  0.00    +0.000 OA
ATOM     14  C   UNL     1       6.985   5.109  15.383  0.00  0.00    +0.000 C 
ATOM     15  N   UNL     1       6.732   4.672  14.072  0.00  0.00    +0.000 N 
ATOM     16  C   UNL     1       7.732   5.085  13.083  0.00  0.00    +0.000 C 
ATOM     17  C   UNL     1       7.427   4.672  11.637  0.00  0.00    +0.000 C 
ATOM     18  O   UNL     1       6.900   3.344  11.545  0.00  0.00    +0.000 OA
ATOM     19  C   UNL     1       5.704   3.244  12.326  0.00  0.00    +0.000 C 
ATOM     20  C   UNL     1       6.034   3.414  13.811  0.00  0.00    +0.000 C 
ENDBRANCH  12  14
ENDBRANCH   1  12
TORSDOF 2
ENDMDL
MODEL 6
REMARK VINA RESULT:      -6.0      2.342      3.477
REMARK  Name = 
REMARK  2 active torsions:
REMARK  status: ('A' for Active; 'I' for Inactive)
REMARK    1  A    between atoms: C_2  and  O_3
REMARK    2  A    between atoms: O_3  and  C_4
REMARK                            x       y       z     vdW  Elec       q    Type
REMARK                         _______ _______ _______ _____ _____    ______ ____
ROOT
ATOM      1  C   UNL     1       3.470   6.541  18.001  0.00  0.00    +0.000 A 
ATOM      2  N   UNL     1       4.256   7.435  17.399  0.00  0.00    +0.000 NA
ATOM      3  S   UNL     1       5.380   6.528  16.578  0.00  0.00    +0.000 S 
ATOM      4  N   UNL     1       4.779   5.000  16.841  0.00  0.00    +0.000 NA
ATOM      5  C   UNL     1       3.692   5.140  17.617  0.00  0.00    +0.000 A 
ATOM      6  N   UNL     1       2.949   4.062  18.032  0.00  0.00    +0.000 N 
ATOM      7  C   UNL     1       1.496   4.132  18.224  0.00  0.00    +0.000 C 
ATOM      8  C   UNL     1       1.106   3.132  19.321  0.00  0.00    +0.000 C 
ATOM      9  O   UNL     1       1.495   1.793  18.973  0.00  0.00    +0.000 OA
ATOM     10  C   UNL     1       2.916   1.717  18.754  0.00  0.00    +0.000 C 
ATOM     11  C   UNL     1       3.377   2.696  17.661  0.00  0.00    +0.000 C 
ENDROOT
BRANCH   1  12
ATOM     12  O   UNL     1       2.478   7.023  18.786  0.00  0.00    +0.000 OA
BRANCH  12  14
ATOM     13  O   UNL     1       2.056   8.794  17.372  0.00  0.00    +0.000 OA
ATOM     14  C   UNL     1       2.021   8.283  18.488  0.00  0.00    +0.000 C 
ATOM     15  N   UNL     1       1.476   8.962  19.591  0.00  0.00    +0.000 N 
ATOM     16  C   UNL     1       0.454   9.959  19.256  0.00  0.00    +0.000 C 
ATOM     17  C   UNL     1      -0.095  10.754  20.447  0.00  0.00    +0.000 C 
ATOM     18  O   UNL     1      -0.310   9.934  21.602  0.00  0.00    +0.000 OA
ATOM     19  C   UNL     1       0.919   9.304  21.981  0.00  0.00    +0.000 C 
ATOM     20  C   UNL     1       1.357   8.317  20.897  0.00  0.00    +0.000 C 
ENDBRANCH  12  14
ENDBRANCH   1  12
TORSDOF 2
ENDMDL
MODEL 7
REMARK VINA RESULT:      -5.9      3.540      6.774
REMARK  Name = 
REMARK  2 active torsions:
REMARK  status: ('A' for Active; 'I' for Inactive)
REMARK    1  A    between atoms: C_2  and  O_3
REMARK    2  A    between atoms: O_3  and  C_4
REMARK                            x       y       z     vdW  Elec       q    Type
REMARK                         _______ _______ _______ _____ _____    ______ ____
ROOT
ATOM      1  C   UNL     1       4.320   5.789  17.197  0.00  0.00    +0.000 A 
ATOM      2  N   UNL     1       4.504   7.098  17.017  0.00  0.00    +0.000 NA
ATOM      3  S   UNL     1       3.132   7.808  17.626  0.00  0.00    +0.000 S 
ATOM      4  N   UNL     1       2.372   6.478  18.274  0.00  0.00    +0.000 NA
ATOM      5  C   UNL     1       3.149   5.417  18.004  0.00  0.00    +0.000 A 
ATOM      6  N   UNL     1       2.811   4.146  18.397  0.00  0.00    +0.000 N 
ATOM      7  C   UNL     1       3.813   3.145  18.779  0.00  0.00    +0.000 C 
ATOM      8  C   UNL     1       3.259   1.753  18.440  0.00  0.00    +0.000 C 
ATOM      9  O   UNL     1       2.021   1.501  19.126  0.00  0.00    +0.000 OA
ATOM     10  C   UNL     1       1.037   2.494  18.782  0.00  0.00    +0.000 C 
ATOM     11  C   UNL     1       1.528   3.917  19.097  0.00  0.00    +0.000 C 
ENDROOT
BRANCH   1  12
ATOM     12  O   UNL     1       5.290   4.963  16.741  0.00  0.00    +0.000 OA
BRANCH  12  14
ATOM     13  O   UNL     1       7.059   6.369  16.285  0.00  0.00    +0.000 OA
ATOM     14  C   UNL     1       6.241   5.527  15.926  0.00  0.00    +0.000 C 
ATOM     15  N   UNL     1       6.216   5.040  14.609  0.00  0.00    +0.000 N 
ATOM     16  C   UNL     1       7.504   5.093  13.909  0.00  0.00    +0.000 C 
ATOM     17  C   UNL     1       7.470   4.629  12.448  0.00  0.00    +0.000 C 
ATOM     18  O   UNL     1       6.651   3.470  12.258  0.00  0.00    +0.000 OA
ATOM     19  C   UNL     1       5.316   3.747  12.695  0.00  0.00    +0.000 C 
ATOM     20  C   UNL     1       5.298   3.975  14.208  0.00  0.00    +0.000 C 
ENDBRANCH  12  14
ENDBRANCH   1  12
TORSDOF 2
ENDMDL
MODEL 8
REMARK VINA RESULT:      -5.9      3.787      4.746
REMARK  Name = 
REMARK  2 active torsions:
REMARK  status: ('A' for Active; 'I' for Inactive)
REMARK    1  A    between atoms: C_2  and  O_3
REMARK    2  A    between atoms: O_3  and  C_4
REMARK                            x       y       z     vdW  Elec       q    Type
REMARK                         _______ _______ _______ _____ _____    ______ ____
ROOT
ATOM      1  C   UNL     1       5.963   4.564  17.993  0.00  0.00    +0.000 A 
ATOM      2  N   UNL     1       6.305   5.045  19.189  0.00  0.00    +0.000 NA
ATOM      3  S   UNL     1       7.697   5.910  18.916  0.00  0.00    +0.000 S 
ATOM      4  N   UNL     1       7.782   5.821  17.258  0.00  0.00    +0.000 NA
ATOM      5  C   UNL     1       6.740   5.075  16.856  0.00  0.00    +0.000 A 
ATOM      6  N   UNL     1       6.511   4.796  15.531  0.00  0.00    +0.000 N 
ATOM      7  C   UNL     1       5.160   4.652  14.977  0.00  0.00    +0.000 C 
ATOM      8  C   UNL     1       5.225   3.673  13.796  0.00  0.00    +0.000 C 
ATOM      9  O   UNL     1       6.129   4.137  12.780  0.00  0.00    +0.000 OA
ATOM     10  C   UNL     1       7.453   4.309  13.318  0.00  0.00    +0.000 C 
ATOM     11  C   UNL     1       7.462   5.284  14.508  0.00  0.00    +0.000 C 
ENDROOT
BRANCH   1  12
ATOM     12  O   UNL     1       4.866   3.773  17.940  0.00  0.00    +0.000 OA
BRANCH  12  14
ATOM     13  O   UNL     1       3.160   5.259  17.497  0.00  0.00    +0.000 OA
ATOM     14  C   UNL     1       3.660   4.381  18.194  0.00  0.00    +0.000 C 
ATOM     15  N   UNL     1       3.012   3.893  19.341  0.00  0.00    +0.000 N 
ATOM     16  C   UNL     1       1.550   4.006  19.316  0.00  0.00    +0.000 C 
ATOM     17  C   UNL     1       0.840   3.541  20.594  0.00  0.00    +0.000 C 
ATOM     18  O   UNL     1       1.412   2.345  21.136  0.00  0.00    +0.000 OA
ATOM     19  C   UNL     1       2.799   2.561  21.420  0.00  0.00    +0.000 C 
ATOM     20  C   UNL     1       3.570   2.787  20.117  0.00  0.00    +0.000 C 
ENDBRANCH  12  14
ENDBRANCH   1  12
TORSDOF 2
ENDMDL
MODEL 9
REMARK VINA RESULT:      -5.9      2.027      6.101
REMARK  Name = 
REMARK  2 active torsions:
REMARK  status: ('A' for Active; 'I' for Inactive)
REMARK    1  A    between atoms: C_2  and  O_3
REMARK    2  A    between atoms: O_3  and  C_4
REMARK                            x       y       z     vdW  Elec       q    Type
REMARK                         _______ _______ _______ _____ _____    ______ ____
ROOT
ATOM      1  C   UNL     1       3.684   3.876  19.802  0.00  0.00    +0.000 A 
ATOM      2  N   UNL     1       3.738   2.618  20.242  0.00  0.00    +0.000 NA
ATOM      3  S   UNL     1       2.591   2.537  21.440  0.00  0.00    +0.000 S 
ATOM      4  N   UNL     1       1.903   4.044  21.295  0.00  0.00    +0.000 NA
ATOM      5  C   UNL     1       2.573   4.684  20.324  0.00  0.00    +0.000 A 
ATOM      6  N   UNL     1       2.263   5.968  19.947  0.00  0.00    +0.000 N 
ATOM      7  C   UNL     1       2.400   6.440  18.565  0.00  0.00    +0.000 C 
ATOM      8  C   UNL     1       2.707   7.945  18.598  0.00  0.00    +0.000 C 
ATOM      9  O   UNL     1       1.667   8.676  19.269  0.00  0.00    +0.000 OA
ATOM     10  C   UNL     1       1.502   8.203  20.618  0.00  0.00    +0.000 C 
ATOM     11  C   UNL     1       1.191   6.697  20.660  0.00  0.00    +0.000 C 
ENDROOT
BRANCH   1  12
ATOM     12  O   UNL     1       4.562   4.228  18.834  0.00  0.00    +0.000 OA
BRANCH  12  14
ATOM     13  O   UNL     1       3.295   3.132  17.250  0.00  0.00    +0.000 OA
ATOM     14  C   UNL     1       4.310   3.742  17.574  0.00  0.00    +0.000 C 
ATOM     15  N   UNL     1       5.328   4.021  16.647  0.00  0.00    +0.000 N 
ATOM     16  C   UNL     1       4.883   4.113  15.253  0.00  0.00    +0.000 C 
ATOM     17  C   UNL     1       5.999   4.347  14.227  0.00  0.00    +0.000 C 
ATOM     18  O   UNL     1       6.976   5.290  14.683  0.00  0.00    +0.000 OA
ATOM     19  C   UNL     1       7.552   4.830  15.911  0.00  0.00    +0.000 C 
ATOM     20  C   UNL     1       6.493   4.823  17.015  0.00  0.00    +0.000 C 
ENDBRANCH  12  14
ENDBRANCH   1  12
TORSDOF 2
ENDMDL
