MODEL 1
REMARK VINA RESULT:      -7.8      0.000      0.000
REMARK  Name = 
REMARK  5 active torsions:
REMARK  status: ('A' for Active; 'I' for Inactive)
REMARK    1  A    between atoms: C_1  and  O_2
REMARK    2  A    between atoms: O_2  and  C_3
REMARK    3  A    between atoms: C_8  and  N_9
REMARK    4  A    between atoms: C_12  and  C_13
REMARK    5  A    between atoms: N_15  and  C_16
REMARK                            x       y       z     vdW  Elec       q    Type
REMARK                         _______ _______ _______ _____ _____    ______ ____
ROOT
ATOM      1  N   UNL     1       4.818   4.497  19.775  0.00  0.00    +0.000 N 
ATOM      2  C   UNL     1       5.487   4.709  18.517  0.00  0.00    +0.000 A 
ATOM      3  C   UNL     1       6.728   5.317  18.592  0.00  0.00    +0.000 A 
ATOM      4  C   UNL     1       7.259   5.894  17.440  0.00  0.00    +0.000 A 
ATOM      5  C   UNL     1       6.952   5.313  16.222  0.00  0.00    +0.000 A 
ATOM      6  C   UNL     1       7.764   5.506  15.079  0.00  0.00    +0.000 A 
ATOM      7  C   UNL     1       7.407   4.961  13.861  0.00  0.00    +0.000 A 
ATOM      8  C   UNL     1       6.228   4.231  13.783  0.00  0.00    +0.000 A 
ATOM      9  C   UNL     1       5.432   4.034  14.932  0.00  0.00    +0.000 A 
ATOM     10  C   UNL     1       5.782   4.545  16.185  0.00  0.00    +0.000 A 
ATOM     11  N   UNL     1       5.014   4.340  17.304  0.00  0.00    +0.000 NA
ATOM     12  H   UNL     1       5.070   5.224  20.438  0.00  0.00    +0.000 HD
ENDROOT
BRANCH   1  18
ATOM     13  C   UNL     1       3.025   2.800  19.989  0.00  0.00    +0.000 A 
ATOM     14  C   UNL     1       1.712   2.462  20.348  0.00  0.00    +0.000 A 
ATOM     15  C   UNL     1       0.782   3.472  20.608  0.00  0.00    +0.000 A 
ATOM     16  C   UNL     1       1.158   4.798  20.514  0.00  0.00    +0.000 A 
ATOM     17  C   UNL     1       2.483   5.145  20.252  0.00  0.00    +0.000 A 
ATOM     18  C   UNL     1       3.453   4.163  20.037  0.00  0.00    +0.000 A 
BRANCH  13  20
ATOM     19  C   UNL     1       3.693   1.235  18.335  0.00  0.00    +0.000 C 
ATOM     20  O   UNL     1       3.950   1.847  19.609  0.00  0.00    +0.000 OA
ENDBRANCH  13  20
ENDBRANCH   1  18
BRANCH   4  21
ATOM     21  C   UNL     1       7.340   7.410  17.379  0.00  0.00    +0.000 C 
ATOM     22  O   UNL     1       6.434   8.073  16.883  0.00  0.00    +0.000 OA
ATOM     23  N   UNL     1       8.406   8.018  18.013  0.00  0.00    +0.000 N 
ATOM     24  H   UNL     1       9.052   7.444  18.534  0.00  0.00    +0.000 HD
BRANCH  23  25
ATOM     25  C   UNL     1       8.336   9.422  18.379  0.00  0.00    +0.000 C 
ATOM     26  C   UNL     1       9.135   9.697  19.645  0.00  0.00    +0.000 C 
ATOM     27  C   UNL     1       9.326  11.203  19.639  0.00  0.00    +0.000 C 
ATOM     28  C   UNL     1       9.374  11.608  18.167  0.00  0.00    +0.000 C 
ATOM     29  C   UNL     1       8.975  10.370  17.366  0.00  0.00    +0.000 C 
ENDBRANCH  23  25
ENDBRANCH   4  21
TORSDOF 4
ENDMDL
MODEL 2
REMARK VINA RESULT:      -7.6      3.416      6.185
REMARK  Name = 
REMARK  5 active torsions:
REMARK  status: ('A' for Active; 'I' for Inactive)
REMARK    1  A    between atoms: C_1  and  O_2
REMARK    2  A    between atoms: O_2  and  C_3
REMARK    3  A    between atoms: C_8  and  N_9
REMARK    4  A    between atoms: C_12  and  C_13
REMARK    5  A    between atoms: N_15  and  C_16
REMARK                            x       y       z     vdW  Elec       q    Type
REMARK                         _______ _______ _______ _____ _____    ______ ____
ROOT
ATOM      1  N   UNL     1       2.729   7.610  19.883  0.00  0.00    +0.000 N 
ATOM      2  C   UNL     1       2.902   6.211  19.582  0.00  0.00    +0.000 A 
ATOM      3  C   UNL     1       4.155   5.689  19.852  0.00  0.00    +0.000 A 
ATOM      4  C   UNL     1       4.520   4.486  19.252  0.00  0.00    +0.000 A 
ATOM      5  C   UNL     1       3.526   3.555  19.009  0.00  0.00    +0.000 A 
ATOM      6  C   UNL     1       3.818   2.179  18.846  0.00  0.00    +0.000 A 
ATOM      7  C   UNL     1       2.815   1.276  18.548  0.00  0.00    +0.000 A 
ATOM      8  C   UNL     1       1.519   1.754  18.400  0.00  0.00    +0.000 A 
ATOM      9  C   UNL     1       1.237   3.125  18.576  0.00  0.00    +0.000 A 
ATOM     10  C   UNL     1       2.223   4.058  18.909  0.00  0.00    +0.000 A 
ATOM     11  N   UNL     1       1.945   5.389  19.095  0.00  0.00    +0.000 NA
ATOM     12  H   UNL     1       3.606   8.109  19.764  0.00  0.00    +0.000 HD
ENDROOT
BRANCH   1  18
ATOM     13  C   UNL     1       0.736   8.972  20.441  0.00  0.00    +0.000 A 
ATOM     14  C   UNL     1      -0.217   9.933  20.072  0.00  0.00    +0.000 A 
ATOM     15  C   UNL     1      -0.329  10.323  18.736  0.00  0.00    +0.000 A 
ATOM     16  C   UNL     1       0.502   9.766  17.782  0.00  0.00    +0.000 A 
ATOM     17  C   UNL     1       1.515   8.882  18.150  0.00  0.00    +0.000 A 
ATOM     18  C   UNL     1       1.691   8.507  19.484  0.00  0.00    +0.000 A 
BRANCH  13  20
ATOM     19  C   UNL     1       0.487   9.408  22.761  0.00  0.00    +0.000 C 
ATOM     20  O   UNL     1       0.811   8.466  21.723  0.00  0.00    +0.000 OA
ENDBRANCH  13  20
ENDBRANCH   1  18
BRANCH   4  21
ATOM     21  C   UNL     1       5.583   4.528  18.167  0.00  0.00    +0.000 C 
ATOM     22  O   UNL     1       6.772   4.385  18.439  0.00  0.00    +0.000 OA
ATOM     23  N   UNL     1       5.154   4.602  16.856  0.00  0.00    +0.000 N 
ATOM     24  H   UNL     1       4.163   4.571  16.668  0.00  0.00    +0.000 HD
BRANCH  23  25
ATOM     25  C   UNL     1       6.039   4.212  15.772  0.00  0.00    +0.000 C 
ATOM     26  C   UNL     1       5.248   3.870  14.518  0.00  0.00    +0.000 C 
ATOM     27  C   UNL     1       6.282   3.920  13.407  0.00  0.00    +0.000 C 
ATOM     28  C   UNL     1       7.306   4.966  13.843  0.00  0.00    +0.000 C 
ATOM     29  C   UNL     1       6.972   5.322  15.290  0.00  0.00    +0.000 C 
ENDBRANCH  23  25
ENDBRANCH   4  21
TORSDOF 4
ENDMDL
MODEL 3
REMARK VINA RESULT:      -7.6      1.045      1.691
REMARK  Name = 
REMARK  5 active torsions:
REMARK  status: ('A' for Active; 'I' for Inactive)
REMARK    1  A    between atoms: C_1  and  O_2
REMARK    2  A    between atoms: O_2  and  C_3
REMARK    3  A    between atoms: C_8  and  N_9
REMARK    4  A    between atoms: C_12  and  C_13
REMARK    5  A    between atoms: N_15  and  C_16
REMARK                            x       y       z     vdW  Elec       q    Type
REMARK                         _______ _______ _______ _____ _____    ______ ____
ROOT
ATOM      1  N   UNL     1       4.854   4.296  19.785  0.00  0.00    +0.000 N 
ATOM      2  C   UNL     1       5.490   4.531  18.514  0.00  0.00    +0.000 A 
ATOM      3  C   UNL     1       6.737   5.130  18.568  0.00  0.00    +0.000 A 
ATOM      4  C   UNL     1       7.240   5.729  17.415  0.00  0.00    +0.000 A 
ATOM      5  C   UNL     1       6.897   5.176  16.194  0.00  0.00    +0.000 A 
ATOM      6  C   UNL     1       7.679   5.390  15.033  0.00  0.00    +0.000 A 
ATOM      7  C   UNL     1       7.285   4.873  13.814  0.00  0.00    +0.000 A 
ATOM      8  C   UNL     1       6.099   4.153  13.753  0.00  0.00    +0.000 A 
ATOM      9  C   UNL     1       5.333   3.936  14.918  0.00  0.00    +0.000 A 
ATOM     10  C   UNL     1       5.721   4.417  16.173  0.00  0.00    +0.000 A 
ATOM     11  N   UNL     1       4.983   4.192  17.307  0.00  0.00    +0.000 NA
ATOM     12  H   UNL     1       5.130   5.007  20.457  0.00  0.00    +0.000 HD
ENDROOT
BRANCH   1  18
ATOM     13  C   UNL     1       2.488   4.980  20.054  0.00  0.00    +0.000 A 
ATOM     14  C   UNL     1       1.140   4.637  20.237  0.00  0.00    +0.000 A 
ATOM     15  C   UNL     1       0.798   3.329  20.589  0.00  0.00    +0.000 A 
ATOM     16  C   UNL     1       1.787   2.377  20.752  0.00  0.00    +0.000 A 
ATOM     17  C   UNL     1       3.120   2.682  20.480  0.00  0.00    +0.000 A 
ATOM     18  C   UNL     1       3.495   3.965  20.077  0.00  0.00    +0.000 A 
BRANCH  13  20
ATOM     19  C   UNL     1       2.522   6.801  18.533  0.00  0.00    +0.000 C 
ATOM     20  O   UNL     1       2.889   6.280  19.821  0.00  0.00    +0.000 OA
ENDBRANCH  13  20
ENDBRANCH   1  18
BRANCH   4  21
ATOM     21  C   UNL     1       7.330   7.246  17.385  0.00  0.00    +0.000 C 
ATOM     22  O   UNL     1       6.474   7.919  16.819  0.00  0.00    +0.000 OA
ATOM     23  N   UNL     1       8.335   7.840  18.122  0.00  0.00    +0.000 N 
ATOM     24  H   UNL     1       8.930   7.256  18.691  0.00  0.00    +0.000 HD
BRANCH  23  25
ATOM     25  C   UNL     1       8.236   9.239  18.502  0.00  0.00    +0.000 C 
ATOM     26  C   UNL     1       9.310   9.608  19.514  0.00  0.00    +0.000 C 
ATOM     27  C   UNL     1       9.354  11.125  19.466  0.00  0.00    +0.000 C 
ATOM     28  C   UNL     1       8.976  11.504  18.036  0.00  0.00    +0.000 C 
ATOM     29  C   UNL     1       8.496  10.222  17.361  0.00  0.00    +0.000 C 
ENDBRANCH  23  25
ENDBRANCH   4  21
TORSDOF 4
ENDMDL
MODEL 4
REMARK VINA RESULT:      -7.2      3.604      6.272
REMARK  Name = 
REMARK  5 active torsions:
REMARK  status: ('A' for Active; 'I' for Inactive)
REMARK    1  A    between atoms: C_1  and  O_2
REMARK    2  A    between atoms: O_2  and  C_3
REMARK    3  A    between atoms: C_8  and  N_9
REMARK    4  A    between atoms: C_12  and  C_13
REMARK    5  A    between atoms: N_15  and  C_16
REMARK                            x       y       z     vdW  Elec       q    Type
REMARK                         _______ _______ _______ _____ _____    ______ ____
ROOT
ATOM      1  N   UNL     1       2.691   8.037  19.028  0.00  0.00    +0.000 N 
ATOM      2  C   UNL     1       2.851   6.620  18.824  0.00  0.00    +0.000 A 
ATOM      3  C   UNL     1       4.147   6.188  18.601  0.00  0.00    +0.000 A 
ATOM      4  C   UNL     1       4.344   4.934  18.029  0.00  0.00    +0.000 A 
ATOM      5  C   UNL     1       3.425   3.939  18.314  0.00  0.00    +0.000 A 
ATOM      6  C   UNL     1       3.748   2.567  18.184  0.00  0.00    +0.000 A 
ATOM      7  C   UNL     1       2.796   1.593  18.421  0.00  0.00    +0.000 A 
ATOM      8  C   UNL     1       1.515   1.994  18.776  0.00  0.00    +0.000 A 
ATOM      9  C   UNL     1       1.206   3.365  18.914  0.00  0.00    +0.000 A 
ATOM     10  C   UNL     1       2.155   4.372  18.713  0.00  0.00    +0.000 A 
ATOM     11  N   UNL     1       1.857   5.703  18.863  0.00  0.00    +0.000 NA
ATOM     12  H   UNL     1       3.394   8.553  18.507  0.00  0.00    +0.000 HD
ENDROOT
BRANCH   1  18
ATOM     13  C   UNL     1       0.845   9.173  20.229  0.00  0.00    +0.000 A 
ATOM     14  C   UNL     1      -0.258  10.039  20.215  0.00  0.00    +0.000 A 
ATOM     15  C   UNL     1      -0.804  10.449  18.997  0.00  0.00    +0.000 A 
ATOM     16  C   UNL     1      -0.254  10.005  17.809  0.00  0.00    +0.000 A 
ATOM     17  C   UNL     1       0.899   9.221  17.809  0.00  0.00    +0.000 A 
ATOM     18  C   UNL     1       1.504   8.832  19.006  0.00  0.00    +0.000 A 
BRANCH  13  20
ATOM     19  C   UNL     1       0.832   9.243  22.601  0.00  0.00    +0.000 C 
ATOM     20  O   UNL     1       1.349   8.645  21.401  0.00  0.00    +0.000 OA
ENDBRANCH  13  20
ENDBRANCH   1  18
BRANCH   4  21
ATOM     21  C   UNL     1       4.865   4.878  16.602  0.00  0.00    +0.000 C 
ATOM     22  O   UNL     1       4.849   5.873  15.883  0.00  0.00    +0.000 OA
ATOM     23  N   UNL     1       5.474   3.708  16.191  0.00  0.00    +0.000 N 
ATOM     24  H   UNL     1       5.597   2.964  16.861  0.00  0.00    +0.000 HD
BRANCH  23  25
ATOM     25  C   UNL     1       6.365   3.710  15.044  0.00  0.00    +0.000 C 
ATOM     26  C   UNL     1       5.579   3.721  13.741  0.00  0.00    +0.000 C 
ATOM     27  C   UNL     1       6.595   4.158  12.702  0.00  0.00    +0.000 C 
ATOM     28  C   UNL     1       7.568   5.077  13.437  0.00  0.00    +0.000 C 
ATOM     29  C   UNL     1       7.234   4.962  14.922  0.00  0.00    +0.000 C 
ENDBRANCH  23  25
ENDBRANCH   4  21
TORSDOF 4
ENDMDL
MODEL 5
REMARK VINA RESULT:      -7.1      3.579      6.749
REMARK  Name = 
REMARK  5 active torsions:
REMARK  status: ('A' for Active; 'I' for Inactive)
REMARK    1  A    between atoms: C_1  and  O_2
REMARK    2  A    between atoms: O_2  and  C_3
REMARK    3  A    between atoms: C_8  and  N_9
REMARK    4  A    between atoms: C_12  and  C_13
REMARK    5  A    between atoms: N_15  and  C_16
REMARK                            x       y       z     vdW  Elec       q    Type
REMARK                         _______ _______ _______ _____ _____    ______ ____
ROOT
ATOM      1  N   UNL     1       2.304   8.540  19.176  0.00  0.00    +0.000 N 
ATOM      2  C   UNL     1       2.503   7.130  19.394  0.00  0.00    +0.000 A 
ATOM      3  C   UNL     1       3.759   6.644  19.075  0.00  0.00    +0.000 A 
ATOM      4  C   UNL     1       3.918   5.273  18.891  0.00  0.00    +0.000 A 
ATOM      5  C   UNL     1       3.122   4.422  19.638  0.00  0.00    +0.000 A 
ATOM      6  C   UNL     1       3.492   3.077  19.880  0.00  0.00    +0.000 A 
ATOM      7  C   UNL     1       2.654   2.231  20.582  0.00  0.00    +0.000 A 
ATOM      8  C   UNL     1       1.438   2.729  21.031  0.00  0.00    +0.000 A 
ATOM      9  C   UNL     1       1.084   4.075  20.795  0.00  0.00    +0.000 A 
ATOM     10  C   UNL     1       1.923   4.964  20.117  0.00  0.00    +0.000 A 
ATOM     11  N   UNL     1       1.584   6.276  19.901  0.00  0.00    +0.000 NA
ATOM     12  H   UNL     1       2.872   8.863  18.398  0.00  0.00    +0.000 HD
ENDROOT
BRANCH   1  18
ATOM     13  C   UNL     1       0.526   9.813  20.341  0.00  0.00    +0.000 A 
ATOM     14  C   UNL     1      -0.606  10.640  20.288  0.00  0.00    +0.000 A 
ATOM     15  C   UNL     1      -1.268  10.833  19.074  0.00  0.00    +0.000 A 
ATOM     16  C   UNL     1      -0.805  10.214  17.928  0.00  0.00    +0.000 A 
ATOM     17  C   UNL     1       0.372   9.468  17.949  0.00  0.00    +0.000 A 
ATOM     18  C   UNL     1       1.090   9.293  19.134  0.00  0.00    +0.000 A 
BRANCH  13  20
ATOM     19  C   UNL     1       0.264   9.386  22.661  0.00  0.00    +0.000 C 
ATOM     20  O   UNL     1       1.147   9.494  21.532  0.00  0.00    +0.000 OA
ENDBRANCH  13  20
ENDBRANCH   1  18
BRANCH   4  21
ATOM     21  C   UNL     1       4.176   4.770  17.480  0.00  0.00    +0.000 C 
ATOM     22  O   UNL     1       3.279   4.257  16.818  0.00  0.00    +0.000 OA
ATOM     23  N   UNL     1       5.415   5.028  16.928  0.00  0.00    +0.000 N 
ATOM     24  H   UNL     1       6.075   5.581  17.454  0.00  0.00    +0.000 HD
BRANCH  23  25
ATOM     25  C   UNL     1       5.598   4.985  15.487  0.00  0.00    +0.000 C 
ATOM     26  C   UNL     1       7.003   5.425  15.102  0.00  0.00    +0.000 C 
ATOM     27  C   UNL     1       7.170   4.918  13.681  0.00  0.00    +0.000 C 
ATOM     28  C   UNL     1       6.322   3.650  13.593  0.00  0.00    +0.000 C 
ATOM     29  C   UNL     1       5.505   3.586  14.881  0.00  0.00    +0.000 C 
ENDBRANCH  23  25
ENDBRANCH   4  21
TORSDOF 4
ENDMDL
MODEL 6
REMARK VINA RESULT:      -7.0      5.729      7.711
REMARK  Name = 
REMARK  5 active torsions:
REMARK  status: ('A' for Active; 'I' for Inactive)
REMARK    1  A    between atoms: C_1  and  O_2
REMARK    2  A    between atoms: O_2  and  C_3
REMARK    3  A    between atoms: C_8  and  N_9
REMARK    4  A    between atoms: C_12  and  C_13
REMARK    5  A    between atoms: N_15  and  C_16
REMARK                            x       y       z     vdW  Elec       q    Type
REMARK                         _______ _______ _______ _____ _____    ______ ____
ROOT
ATOM      1  N   UNL     1       2.652   7.467  17.557  0.00  0.00    +0.000 N 
ATOM      2  C   UNL     1       1.945   8.268  18.524  0.00  0.00    +0.000 A 
ATOM      3  C   UNL     1       1.224   9.332  18.010  0.00  0.00    +0.000 A 
ATOM      4  C   UNL     1       0.839  10.356  18.872  0.00  0.00    +0.000 A 
ATOM      5  C   UNL     1       0.559  10.026  20.187  0.00  0.00    +0.000 A 
ATOM      6  C   UNL     1      -0.255  10.847  21.004  0.00  0.00    +0.000 A 
ATOM      7  C   UNL     1      -0.474  10.524  22.330  0.00  0.00    +0.000 A 
ATOM      8  C   UNL     1       0.132   9.385  22.842  0.00  0.00    +0.000 A 
ATOM      9  C   UNL     1       0.932   8.567  22.015  0.00  0.00    +0.000 A 
ATOM     10  C   UNL     1       1.147   8.848  20.663  0.00  0.00    +0.000 A 
ATOM     11  N   UNL     1       1.912   8.043  19.857  0.00  0.00    +0.000 NA
ATOM     12  H   UNL     1       2.940   8.037  16.766  0.00  0.00    +0.000 HD
ENDROOT
BRANCH   1  18
ATOM     13  C   UNL     1       3.343   5.146  18.081  0.00  0.00    +0.000 A 
ATOM     14  C   UNL     1       4.348   4.172  18.173  0.00  0.00    +0.000 A 
ATOM     15  C   UNL     1       5.690   4.550  18.094  0.00  0.00    +0.000 A 
ATOM     16  C   UNL     1       6.025   5.880  17.922  0.00  0.00    +0.000 A 
ATOM     17  C   UNL     1       5.035   6.844  17.734  0.00  0.00    +0.000 A 
ATOM     18  C   UNL     1       3.682   6.497  17.756  0.00  0.00    +0.000 A 
BRANCH  13  20
ATOM     19  C   UNL     1       1.710   4.192  19.514  0.00  0.00    +0.000 C 
ATOM     20  O   UNL     1       2.009   4.844  18.269  0.00  0.00    +0.000 OA
ENDBRANCH  13  20
ENDBRANCH   1  18
BRANCH   4  21
ATOM     21  C   UNL     1       1.524  11.705  18.725  0.00  0.00    +0.000 C 
ATOM     22  O   UNL     1       2.546  11.826  18.056  0.00  0.00    +0.000 OA
ATOM     23  N   UNL     1       0.886  12.806  19.262  0.00  0.00    +0.000 N 
ATOM     24  H   UNL     1      -0.025  12.683  19.678  0.00  0.00    +0.000 HD
BRANCH  23  25
ATOM     25  C   UNL     1       1.222  14.143  18.804  0.00  0.00    +0.000 C 
ATOM     26  C   UNL     1      -0.016  15.024  18.733  0.00  0.00    +0.000 C 
ATOM     27  C   UNL     1       0.540  16.435  18.678  0.00  0.00    +0.000 C 
ATOM     28  C   UNL     1       1.849  16.394  19.464  0.00  0.00    +0.000 C 
ATOM     29  C   UNL     1       2.136  14.922  19.749  0.00  0.00    +0.000 C 
ENDBRANCH  23  25
ENDBRANCH   4  21
TORSDOF 4
ENDMDL
MODEL 7
REMARK VINA RESULT:      -7.0      3.623      6.228
REMARK  Name = 
REMARK  5 active torsions:
REMARK  status: ('A' for Active; 'I' for Inactive)
REMARK    1  A    between atoms: C_1  and  O_2
REMARK    2  A    between atoms: O_2  and  C_3
REMARK    3  A    between atoms: C_8  and  N_9
REMARK    4  A    between atoms: C_12  and  C_13
REMARK    5  A    between atoms: N_15  and  C_16
REMARK                            x       y       z     vdW  Elec       q    Type
REMARK                         _______ _______ _______ _____ _____    ______ ____
ROOT
ATOM      1  N   UNL     1       2.624   7.790  20.308  0.00  0.00    +0.000 N 
ATOM      2  C   UNL     1       2.740   6.488  19.702  0.00  0.00    +0.000 A 
ATOM      3  C   UNL     1       3.985   6.175  19.186  0.00  0.00    +0.000 A 
ATOM      4  C   UNL     1       4.085   5.132  18.269  0.00  0.00    +0.000 A 
ATOM      5  C   UNL     1       3.208   4.069  18.397  0.00  0.00    +0.000 A 
ATOM      6  C   UNL     1       3.496   2.795  17.850  0.00  0.00    +0.000 A 
ATOM      7  C   UNL     1       2.580   1.765  17.944  0.00  0.00    +0.000 A 
ATOM      8  C   UNL     1       1.368   2.013  18.574  0.00  0.00    +0.000 A 
ATOM      9  C   UNL     1       1.096   3.283  19.127  0.00  0.00    +0.000 A 
ATOM     10  C   UNL     1       2.014   4.336  19.077  0.00  0.00    +0.000 A 
ATOM     11  N   UNL     1       1.753   5.566  19.628  0.00  0.00    +0.000 NA
ATOM     12  H   UNL     1       3.248   8.451  19.854  0.00  0.00    +0.000 HD
ENDROOT
BRANCH   1  18
ATOM     13  C   UNL     1       0.817   9.383  19.726  0.00  0.00    +0.000 A 
ATOM     14  C   UNL     1      -0.389  10.021  20.054  0.00  0.00    +0.000 A 
ATOM     15  C   UNL     1      -0.889   9.934  21.355  0.00  0.00    +0.000 A 
ATOM     16  C   UNL     1      -0.198   9.218  22.315  0.00  0.00    +0.000 A 
ATOM     17  C   UNL     1       0.951   8.503  21.979  0.00  0.00    +0.000 A 
ATOM     18  C   UNL     1       1.453   8.524  20.676  0.00  0.00    +0.000 A 
BRANCH  13  20
ATOM     19  C   UNL     1       1.864  10.867  18.198  0.00  0.00    +0.000 C 
ATOM     20  O   UNL     1       1.414   9.533  18.491  0.00  0.00    +0.000 OA
ENDBRANCH  13  20
ENDBRANCH   1  18
BRANCH   4  21
ATOM     21  C   UNL     1       4.393   5.485  16.823  0.00  0.00    +0.000 C 
ATOM     22  O   UNL     1       4.330   6.645  16.427  0.00  0.00    +0.000 OA
ATOM     23  N   UNL     1       4.868   4.476  16.007  0.00  0.00    +0.000 N 
ATOM     24  H   UNL     1       5.043   3.568  16.411  0.00  0.00    +0.000 HD
BRANCH  23  25
ATOM     25  C   UNL     1       5.584   4.798  14.785  0.00  0.00    +0.000 C 
ATOM     26  C   UNL     1       7.085   4.851  15.030  0.00  0.00    +0.000 C 
ATOM     27  C   UNL     1       7.687   4.755  13.639  0.00  0.00    +0.000 C 
ATOM     28  C   UNL     1       6.707   3.915  12.822  0.00  0.00    +0.000 C 
ATOM     29  C   UNL     1       5.459   3.746  13.684  0.00  0.00    +0.000 C 
ENDBRANCH  23  25
ENDBRANCH   4  21
TORSDOF 4
ENDMDL
MODEL 8
REMARK VINA RESULT:      -7.0      5.317      7.546
REMARK  Name = 
REMARK  5 active torsions:
REMARK  status: ('A' for Active; 'I' for Inactive)
REMARK    1  A    between atoms: C_1  and  O_2
REMARK    2  A    between atoms: O_2  and  C_3
REMARK    3  A    between atoms: C_8  and  N_9
REMARK    4  A    between atoms: C_12  and  C_13
REMARK    5  A    between atoms: N_15  and  C_16
REMARK                            x       y       z     vdW  Elec       q    Type
REMARK                         _______ _______ _______ _____ _____    ______ ____
ROOT
ATOM      1  N   UNL     1       2.201   7.819  17.690  0.00  0.00    +0.000 N 
ATOM      2  C   UNL     1       1.515   8.594  18.693  0.00  0.00    +0.000 A 
ATOM      3  C   UNL     1       0.650   9.563  18.215  0.00  0.00    +0.000 A 
ATOM      4  C   UNL     1       0.252  10.585  19.075  0.00  0.00    +0.000 A 
ATOM      5  C   UNL     1       0.131  10.289  20.421  0.00  0.00    +0.000 A 
ATOM      6  C   UNL     1      -0.676  11.068  21.285  0.00  0.00    +0.000 A 
ATOM      7  C   UNL     1      -0.736  10.786  22.637  0.00  0.00    +0.000 A 
ATOM      8  C   UNL     1       0.022   9.732  23.127  0.00  0.00    +0.000 A 
ATOM      9  C   UNL     1       0.815   8.954  22.255  0.00  0.00    +0.000 A 
ATOM     10  C   UNL     1       0.872   9.193  20.879  0.00  0.00    +0.000 A 
ATOM     11  N   UNL     1       1.631   8.427  20.030  0.00  0.00    +0.000 NA
ATOM     12  H   UNL     1       2.356   8.377  16.855  0.00  0.00    +0.000 HD
ENDROOT
BRANCH   1  18
ATOM     13  C   UNL     1       3.185   5.662  18.408  0.00  0.00    +0.000 A 
ATOM     14  C   UNL     1       4.274   4.777  18.440  0.00  0.00    +0.000 A 
ATOM     15  C   UNL     1       5.537   5.215  18.035  0.00  0.00    +0.000 A 
ATOM     16  C   UNL     1       5.711   6.516  17.601  0.00  0.00    +0.000 A 
ATOM     17  C   UNL     1       4.620   7.375  17.474  0.00  0.00    +0.000 A 
ATOM     18  C   UNL     1       3.333   6.957  17.821  0.00  0.00    +0.000 A 
BRANCH  13  20
ATOM     19  C   UNL     1       1.945   4.890  20.277  0.00  0.00    +0.000 C 
ATOM     20  O   UNL     1       1.945   5.317  18.905  0.00  0.00    +0.000 OA
ENDBRANCH  13  20
ENDBRANCH   1  18
BRANCH   4  21
ATOM     21  C   UNL     1       0.787  11.983  18.812  0.00  0.00    +0.000 C 
ATOM     22  O   UNL     1       0.080  12.847  18.303  0.00  0.00    +0.000 OA
ATOM     23  N   UNL     1       2.052  12.280  19.283  0.00  0.00    +0.000 N 
ATOM     24  H   UNL     1       2.543  11.585  19.825  0.00  0.00    +0.000 HD
BRANCH  23  25
ATOM     25  C   UNL     1       2.457  13.663  19.469  0.00  0.00    +0.000 C 
ATOM     26  C   UNL     1       3.137  13.856  20.817  0.00  0.00    +0.000 C 
ATOM     27  C   UNL     1       3.867  15.180  20.674  0.00  0.00    +0.000 C 
ATOM     28  C   UNL     1       4.242  15.287  19.197  0.00  0.00    +0.000 C 
ATOM     29  C   UNL     1       3.520  14.146  18.484  0.00  0.00    +0.000 C 
ENDBRANCH  23  25
ENDBRANCH   4  21
TORSDOF 4
ENDMDL
MODEL 9
REMARK VINA RESULT:      -7.0      3.680      6.275
REMARK  Name = 
REMARK  5 active torsions:
REMARK  status: ('A' for Active; 'I' for Inactive)
REMARK    1  A    between atoms: C_1  and  O_2
REMARK    2  A    between atoms: O_2  and  C_3
REMARK    3  A    between atoms: C_8  and  N_9
REMARK    4  A    between atoms: C_12  and  C_13
REMARK    5  A    between atoms: N_15  and  C_16
REMARK                            x       y       z     vdW  Elec       q    Type
REMARK                         _______ _______ _______ _____ _____    ______ ____
ROOT
ATOM      1  N   UNL     1       2.575   8.592  18.658  0.00  0.00    +0.000 N 
ATOM      2  C   UNL     1       2.897   7.229  18.317  0.00  0.00    +0.000 A 
ATOM      3  C   UNL     1       4.197   7.008  17.896  0.00  0.00    +0.000 A 
ATOM      4  C   UNL     1       4.483   5.836  17.200  0.00  0.00    +0.000 A 
ATOM      5  C   UNL     1       3.756   4.701  17.514  0.00  0.00    +0.000 A 
ATOM      6  C   UNL     1       4.242   3.402  17.229  0.00  0.00    +0.000 A 
ATOM      7  C   UNL     1       3.473   2.286  17.502  0.00  0.00    +0.000 A 
ATOM      8  C   UNL     1       2.210   2.472  18.048  0.00  0.00    +0.000 A 
ATOM      9  C   UNL     1       1.739   3.770  18.340  0.00  0.00    +0.000 A 
ATOM     10  C   UNL     1       2.505   4.917  18.106  0.00  0.00    +0.000 A 
ATOM     11  N   UNL     1       2.052   6.177  18.403  0.00  0.00    +0.000 NA
ATOM     12  H   UNL     1       3.123   9.238  18.097  0.00  0.00    +0.000 HD
ENDROOT
BRANCH   1  18
ATOM     13  C   UNL     1       0.771   9.358  20.174  0.00  0.00    +0.000 A 
ATOM     14  C   UNL     1      -0.431  10.053  20.373  0.00  0.00    +0.000 A 
ATOM     15  C   UNL     1      -1.186  10.464  19.273  0.00  0.00    +0.000 A 
ATOM     16  C   UNL     1      -0.746  10.189  17.992  0.00  0.00    +0.000 A 
ATOM     17  C   UNL     1       0.492   9.585  17.779  0.00  0.00    +0.000 A 
ATOM     18  C   UNL     1       1.299   9.205  18.854  0.00  0.00    +0.000 A 
BRANCH  13  20
ATOM     19  C   UNL     1       1.025   9.204  22.528  0.00  0.00    +0.000 C 
ATOM     20  O   UNL     1       1.495   8.828  21.223  0.00  0.00    +0.000 OA
ENDBRANCH  13  20
ENDBRANCH   1  18
BRANCH   4  21
ATOM     21  C   UNL     1       4.806   5.951  15.719  0.00  0.00    +0.000 C 
ATOM     22  O   UNL     1       4.969   7.046  15.190  0.00  0.00    +0.000 OA
ATOM     23  N   UNL     1       5.037   4.779  15.024  0.00  0.00    +0.000 N 
ATOM     24  H   UNL     1       5.036   3.907  15.531  0.00  0.00    +0.000 HD
BRANCH  23  25
ATOM     25  C   UNL     1       5.762   4.805  13.765  0.00  0.00    +0.000 C 
ATOM     26  C   UNL     1       7.262   4.902  14.001  0.00  0.00    +0.000 C 
ATOM     27  C   UNL     1       7.870   4.484  12.675  0.00  0.00    +0.000 C 
ATOM     28  C   UNL     1       6.888   3.484  12.067  0.00  0.00    +0.000 C 
ATOM     29  C   UNL     1       5.634   3.528  12.937  0.00  0.00    +0.000 C 
ENDBRANCH  23  25
ENDBRANCH   4  21
TORSDOF 4
ENDMDL
