MODEL 1
REMARK VINA RESULT:      -5.7      0.000      0.000
REMARK  Name = 
REMARK  4 active torsions:
REMARK  status: ('A' for Active; 'I' for Inactive)
REMARK    1  A    between atoms: C_1  and  C_2
REMARK    2  A    between atoms: C_2  and  N_3
REMARK    3  A    between atoms: C_7  and  N_8
REMARK    4  A    between atoms: N_9  and  C_10
REMARK                            x       y       z     vdW  Elec       q    Type
REMARK                         _______ _______ _______ _____ _____    ______ ____
ROOT
ATOM      1  N   UNL     1       4.549   4.307  17.397  0.00  0.00    +0.000 N 
ATOM      2  C   UNL     1       5.245   5.091  18.286  0.00  0.00    +0.000 A 
ATOM      3  O   UNL     1       6.426   5.410  18.174  0.00  0.00    +0.000 OA
ATOM      4  C   UNL     1       4.499   5.564  19.454  0.00  0.00    +0.000 A 
ATOM      5  C   UNL     1       3.251   5.149  19.700  0.00  0.00    +0.000 A 
ATOM      6  N   UNL     1       2.641   4.270  18.807  0.00  0.00    +0.000 N 
ATOM      7  C   UNL     1       3.239   3.881  17.599  0.00  0.00    +0.000 A 
ATOM      8  O   UNL     1       2.661   3.188  16.756  0.00  0.00    +0.000 OA
ENDROOT
BRANCH   5   9
ATOM      9  N   UNL     1       2.604   5.614  20.836  0.00  0.00    +0.000 N 
ATOM     10  H   UNL     1       2.531   4.933  21.585  0.00  0.00    +0.000 HD
ATOM     11  H   UNL     1       1.709   6.047  20.628  0.00  0.00    +0.000 HD
ENDBRANCH   5   9
BRANCH   6  12
ATOM     12  C   UNL     1       1.292   3.825  19.128  0.00  0.00    +0.000 C 
ATOM     13  C   UNL     1       0.709   2.463  18.838  0.00  0.00    +0.000 C 
ATOM     14  C   UNL     1       1.104   2.806  20.237  0.00  0.00    +0.000 C 
ENDBRANCH   6  12
BRANCH   1  16
ATOM     15  C   UNL     1       5.359   4.878  15.144  0.00  0.00    +0.000 C 
ATOM     16  C   UNL     1       5.262   3.809  16.226  0.00  0.00    +0.000 C 
ENDBRANCH   1  16
TORSDOF 3
ENDMDL
MODEL 2
REMARK VINA RESULT:      -5.5      1.811      2.891
REMARK  Name = 
REMARK  4 active torsions:
REMARK  status: ('A' for Active; 'I' for Inactive)
REMARK    1  A    between atoms: C_1  and  C_2
REMARK    2  A    between atoms: C_2  and  N_3
REMARK    3  A    between atoms: C_7  and  N_8
REMARK    4  A    between atoms: N_9  and  C_10
REMARK                            x       y       z     vdW  Elec       q    Type
REMARK                         _______ _______ _______ _____ _____    ______ ____
ROOT
ATOM      1  N   UNL     1       4.791   5.181  17.598  0.00  0.00    +0.000 N 
ATOM      2  C   UNL     1       4.746   4.281  16.558  0.00  0.00    +0.000 A 
ATOM      3  O   UNL     1       5.245   4.456  15.450  0.00  0.00    +0.000 OA
ATOM      4  C   UNL     1       4.034   3.028  16.819  0.00  0.00    +0.000 A 
ATOM      5  C   UNL     1       3.362   2.831  17.959  0.00  0.00    +0.000 A 
ATOM      6  N   UNL     1       3.366   3.831  18.929  0.00  0.00    +0.000 N 
ATOM      7  C   UNL     1       4.135   4.998  18.811  0.00  0.00    +0.000 A 
ATOM      8  O   UNL     1       4.225   5.837  19.713  0.00  0.00    +0.000 OA
ENDROOT
BRANCH   5   9
ATOM      9  N   UNL     1       2.687   1.632  18.137  0.00  0.00    +0.000 N 
ATOM     10  H   UNL     1       3.131   0.994  18.791  0.00  0.00    +0.000 HD
ATOM     11  H   UNL     1       2.461   1.175  17.258  0.00  0.00    +0.000 HD
ENDBRANCH   5   9
BRANCH   6  12
ATOM     12  C   UNL     1       2.601   3.583  20.144  0.00  0.00    +0.000 C 
ATOM     13  C   UNL     1       2.033   4.631  21.069  0.00  0.00    +0.000 C 
ATOM     14  C   UNL     1       1.115   3.897  20.147  0.00  0.00    +0.000 C 
ENDBRANCH   6  12
BRANCH   1  16
ATOM     15  C   UNL     1       6.971   6.322  17.684  0.00  0.00    +0.000 C 
ATOM     16  C   UNL     1       5.485   6.445  17.373  0.00  0.00    +0.000 C 
ENDBRANCH   1  16
TORSDOF 3
ENDMDL
MODEL 3
REMARK VINA RESULT:      -5.5      1.686      1.776
REMARK  Name = 
REMARK  4 active torsions:
REMARK  status: ('A' for Active; 'I' for Inactive)
REMARK    1  A    between atoms: C_1  and  C_2
REMARK    2  A    between atoms: C_2  and  N_3
REMARK    3  A    between atoms: C_7  and  N_8
REMARK    4  A    between atoms: N_9  and  C_10
REMARK                            x       y       z     vdW  Elec       q    Type
REMARK                         _______ _______ _______ _____ _____    ______ ____
ROOT
ATOM      1  N   UNL     1       5.090   4.901  16.685  0.00  0.00    +0.000 N 
ATOM      2  C   UNL     1       5.352   6.251  16.719  0.00  0.00    +0.000 A 
ATOM      3  O   UNL     1       6.368   6.785  16.282  0.00  0.00    +0.000 OA
ATOM      4  C   UNL     1       4.326   7.093  17.338  0.00  0.00    +0.000 A 
ATOM      5  C   UNL     1       3.259   6.562  17.945  0.00  0.00    +0.000 A 
ATOM      6  N   UNL     1       3.109   5.177  17.961  0.00  0.00    +0.000 N 
ATOM      7  C   UNL     1       3.974   4.312  17.273  0.00  0.00    +0.000 A 
ATOM      8  O   UNL     1       3.786   3.095  17.197  0.00  0.00    +0.000 OA
ENDROOT
BRANCH   5   9
ATOM      9  N   UNL     1       2.334   7.412  18.533  0.00  0.00    +0.000 N 
ATOM     10  H   UNL     1       2.696   8.334  18.757  0.00  0.00    +0.000 HD
ATOM     11  H   UNL     1       1.860   6.989  19.325  0.00  0.00    +0.000 HD
ENDBRANCH   5   9
BRANCH   6  12
ATOM     12  C   UNL     1       1.945   4.641  18.654  0.00  0.00    +0.000 C 
ATOM     13  C   UNL     1       1.824   3.265  19.262  0.00  0.00    +0.000 C 
ATOM     14  C   UNL     1       2.018   4.444  20.158  0.00  0.00    +0.000 C 
ENDBRANCH   6  12
BRANCH   1  16
ATOM     15  C   UNL     1       5.940   3.974  14.569  0.00  0.00    +0.000 C 
ATOM     16  C   UNL     1       6.093   4.029  16.084  0.00  0.00    +0.000 C 
ENDBRANCH   1  16
TORSDOF 3
ENDMDL
MODEL 4
REMARK VINA RESULT:      -5.5      1.967      4.681
REMARK  Name = 
REMARK  4 active torsions:
REMARK  status: ('A' for Active; 'I' for Inactive)
REMARK    1  A    between atoms: C_1  and  C_2
REMARK    2  A    between atoms: C_2  and  N_3
REMARK    3  A    between atoms: C_7  and  N_8
REMARK    4  A    between atoms: N_9  and  C_10
REMARK                            x       y       z     vdW  Elec       q    Type
REMARK                         _______ _______ _______ _____ _____    ______ ____
ROOT
ATOM      1  N   UNL     1       3.297   3.735  19.235  0.00  0.00    +0.000 N 
ATOM      2  C   UNL     1       2.244   4.426  18.682  0.00  0.00    +0.000 A 
ATOM      3  O   UNL     1       1.069   4.073  18.721  0.00  0.00    +0.000 OA
ATOM      4  C   UNL     1       2.580   5.674  17.993  0.00  0.00    +0.000 A 
ATOM      5  C   UNL     1       3.851   6.049  17.807  0.00  0.00    +0.000 A 
ATOM      6  N   UNL     1       4.874   5.245  18.305  0.00  0.00    +0.000 N 
ATOM      7  C   UNL     1       4.630   4.110  19.093  0.00  0.00    +0.000 A 
ATOM      8  O   UNL     1       5.532   3.455  19.625  0.00  0.00    +0.000 OA
ENDROOT
BRANCH   5   9
ATOM      9  N   UNL     1       4.105   7.231  17.126  0.00  0.00    +0.000 N 
ATOM     10  H   UNL     1       3.834   8.071  17.629  0.00  0.00    +0.000 HD
ATOM     11  H   UNL     1       3.741   7.223  16.178  0.00  0.00    +0.000 HD
ENDBRANCH   5   9
BRANCH   6  12
ATOM     12  C   UNL     1       6.242   5.679  18.058  0.00  0.00    +0.000 C 
ATOM     13  C   UNL     1       7.440   4.782  17.863  0.00  0.00    +0.000 C 
ATOM     14  C   UNL     1       6.837   5.462  16.677  0.00  0.00    +0.000 C 
ENDBRANCH   6  12
BRANCH   1  16
ATOM     15  C   UNL     1       2.562   2.731  21.359  0.00  0.00    +0.000 C 
ATOM     16  C   UNL     1       3.003   2.482  19.921  0.00  0.00    +0.000 C 
ENDBRANCH   1  16
TORSDOF 3
ENDMDL
MODEL 5
REMARK VINA RESULT:      -5.4      2.118      2.495
REMARK  Name = 
REMARK  4 active torsions:
REMARK  status: ('A' for Active; 'I' for Inactive)
REMARK    1  A    between atoms: C_1  and  C_2
REMARK    2  A    between atoms: C_2  and  N_3
REMARK    3  A    between atoms: C_7  and  N_8
REMARK    4  A    between atoms: N_9  and  C_10
REMARK                            x       y       z     vdW  Elec       q    Type
REMARK                         _______ _______ _______ _____ _____    ______ ____
ROOT
ATOM      1  N   UNL     1       5.404   5.107  18.567  0.00  0.00    +0.000 N 
ATOM      2  C   UNL     1       4.805   6.034  17.746  0.00  0.00    +0.000 A 
ATOM      3  O   UNL     1       5.366   7.008  17.251  0.00  0.00    +0.000 OA
ATOM      4  C   UNL     1       3.383   5.824  17.464  0.00  0.00    +0.000 A 
ATOM      5  C   UNL     1       2.686   4.858  18.072  0.00  0.00    +0.000 A 
ATOM      6  N   UNL     1       3.336   4.017  18.973  0.00  0.00    +0.000 N 
ATOM      7  C   UNL     1       4.722   4.068  19.192  0.00  0.00    +0.000 A 
ATOM      8  O   UNL     1       5.318   3.258  19.908  0.00  0.00    +0.000 OA
ENDROOT
BRANCH   5   9
ATOM      9  N   UNL     1       1.336   4.724  17.780  0.00  0.00    +0.000 N 
ATOM     10  H   UNL     1       0.934   3.833  18.055  0.00  0.00    +0.000 HD
ATOM     11  H   UNL     1       1.119   4.955  16.815  0.00  0.00    +0.000 HD
ENDBRANCH   5   9
BRANCH   6  12
ATOM     12  C   UNL     1       2.532   2.996  19.630  0.00  0.00    +0.000 C 
ATOM     13  C   UNL     1       2.601   2.609  21.088  0.00  0.00    +0.000 C 
ATOM     14  C   UNL     1       1.453   3.433  20.605  0.00  0.00    +0.000 C 
ENDBRANCH   6  12
BRANCH   1  16
ATOM     15  C   UNL     1       7.704   4.649  17.817  0.00  0.00    +0.000 C 
ATOM     16  C   UNL     1       6.818   5.289  18.879  0.00  0.00    +0.000 C 
ENDBRANCH   1  16
TORSDOF 3
ENDMDL
MODEL 6
REMARK VINA RESULT:      -5.4      2.139      3.029
REMARK  Name = 
REMARK  4 active torsions:
REMARK  status: ('A' for Active; 'I' for Inactive)
REMARK    1  A    between atoms: C_1  and  C_2
REMARK    2  A    between atoms: C_2  and  N_3
REMARK    3  A    between atoms: C_7  and  N_8
REMARK    4  A    between atoms: N_9  and  C_10
REMARK                            x       y       z     vdW  Elec       q    Type
REMARK                         _______ _______ _______ _____ _____    ______ ____
ROOT
ATOM      1  N   UNL     1       3.726   6.072  18.054  0.00  0.00    +0.000 N 
ATOM      2  C   UNL     1       4.398   5.488  17.005  0.00  0.00    +0.000 A 
ATOM      3  O   UNL     1       4.928   6.097  16.079  0.00  0.00    +0.000 OA
ATOM      4  C   UNL     1       4.464   4.025  17.013  0.00  0.00    +0.000 A 
ATOM      5  C   UNL     1       3.801   3.302  17.922  0.00  0.00    +0.000 A 
ATOM      6  N   UNL     1       3.054   3.958  18.897  0.00  0.00    +0.000 N 
ATOM      7  C   UNL     1       3.052   5.355  19.038  0.00  0.00    +0.000 A 
ATOM      8  O   UNL     1       2.478   5.935  19.964  0.00  0.00    +0.000 OA
ENDROOT
BRANCH   5   9
ATOM      9  N   UNL     1       3.885   1.918  17.863  0.00  0.00    +0.000 N 
ATOM     10  H   UNL     1       4.312   1.489  18.678  0.00  0.00    +0.000 HD
ATOM     11  H   UNL     1       4.302   1.587  16.998  0.00  0.00    +0.000 HD
ENDBRANCH   5   9
BRANCH   6  12
ATOM     12  C   UNL     1       2.328   3.130  19.850  0.00  0.00    +0.000 C 
ATOM     13  C   UNL     1       1.159   3.565  20.701  0.00  0.00    +0.000 C 
ATOM     14  C   UNL     1       0.913   2.697  19.511  0.00  0.00    +0.000 C 
ENDBRANCH   6  12
BRANCH   1  16
ATOM     15  C   UNL     1       2.261   7.998  17.601  0.00  0.00    +0.000 C 
ATOM     16  C   UNL     1       3.631   7.527  18.075  0.00  0.00    +0.000 C 
ENDBRANCH   1  16
TORSDOF 3
ENDMDL
MODEL 7
REMARK VINA RESULT:      -5.4      1.862      2.594
REMARK  Name = 
REMARK  4 active torsions:
REMARK  status: ('A' for Active; 'I' for Inactive)
REMARK    1  A    between atoms: C_1  and  C_2
REMARK    2  A    between atoms: C_2  and  N_3
REMARK    3  A    between atoms: C_7  and  N_8
REMARK    4  A    between atoms: N_9  and  C_10
REMARK                            x       y       z     vdW  Elec       q    Type
REMARK                         _______ _______ _______ _____ _____    ______ ____
ROOT
ATOM      1  N   UNL     1       4.248   5.194  17.108  0.00  0.00    +0.000 N 
ATOM      2  C   UNL     1       4.717   3.978  16.668  0.00  0.00    +0.000 A 
ATOM      3  O   UNL     1       5.610   3.823  15.839  0.00  0.00    +0.000 OA
ATOM      4  C   UNL     1       4.079   2.792  17.243  0.00  0.00    +0.000 A 
ATOM      5  C   UNL     1       3.019   2.893  18.052  0.00  0.00    +0.000 A 
ATOM      6  N   UNL     1       2.531   4.157  18.376  0.00  0.00    +0.000 N 
ATOM      7  C   UNL     1       3.171   5.341  17.976  0.00  0.00    +0.000 A 
ATOM      8  O   UNL     1       2.804   6.460  18.347  0.00  0.00    +0.000 OA
ENDROOT
BRANCH   5   9
ATOM      9  N   UNL     1       2.444   1.731  18.546  0.00  0.00    +0.000 N 
ATOM     10  H   UNL     1       2.419   1.674  19.560  0.00  0.00    +0.000 HD
ATOM     11  H   UNL     1       2.836   0.892  18.130  0.00  0.00    +0.000 HD
ENDBRANCH   5   9
BRANCH   6  12
ATOM     12  C   UNL     1       1.361   4.218  19.240  0.00  0.00    +0.000 C 
ATOM     13  C   UNL     1       1.100   3.354  20.450  0.00  0.00    +0.000 C 
ATOM     14  C   UNL     1       1.520   4.774  20.645  0.00  0.00    +0.000 C 
ENDBRANCH   6  12
BRANCH   1  16
ATOM     15  C   UNL     1       6.121   6.779  17.307  0.00  0.00    +0.000 C 
ATOM     16  C   UNL     1       4.854   6.398  16.551  0.00  0.00    +0.000 C 
ENDBRANCH   1  16
TORSDOF 3
ENDMDL
MODEL 8
REMARK VINA RESULT:      -5.4      1.365      1.545
REMARK  Name = 
REMARK  4 active torsions:
REMARK  status: ('A' for Active; 'I' for Inactive)
REMARK    1  A    between atoms: C_1  and  C_2
REMARK    2  A    between atoms: C_2  and  N_3
REMARK    3  A    between atoms: C_7  and  N_8
REMARK    4  A    between atoms: N_9  and  C_10
REMARK                            x       y       z     vdW  Elec       q    Type
REMARK                         _______ _______ _______ _____ _____    ______ ____
ROOT
ATOM      1  N   UNL     1       4.220   4.736  17.302  0.00  0.00    +0.000 N 
ATOM      2  C   UNL     1       4.060   6.079  17.548  0.00  0.00    +0.000 A 
ATOM      3  O   UNL     1       4.514   6.985  16.854  0.00  0.00    +0.000 OA
ATOM      4  C   UNL     1       3.290   6.430  18.744  0.00  0.00    +0.000 A 
ATOM      5  C   UNL     1       2.878   5.495  19.608  0.00  0.00    +0.000 A 
ATOM      6  N   UNL     1       3.166   4.157  19.347  0.00  0.00    +0.000 N 
ATOM      7  C   UNL     1       3.777   3.732  18.157  0.00  0.00    +0.000 A 
ATOM      8  O   UNL     1       3.938   2.541  17.875  0.00  0.00    +0.000 OA
ENDROOT
BRANCH   5   9
ATOM      9  N   UNL     1       2.173   5.893  20.735  0.00  0.00    +0.000 N 
ATOM     10  H   UNL     1       1.688   5.140  21.213  0.00  0.00    +0.000 HD
ATOM     11  H   UNL     1       1.562   6.684  20.556  0.00  0.00    +0.000 HD
ENDBRANCH   5   9
BRANCH   6  12
ATOM     12  C   UNL     1       2.720   3.177  20.327  0.00  0.00    +0.000 C 
ATOM     13  C   UNL     1       1.471   3.265  21.171  0.00  0.00    +0.000 C 
ATOM     14  C   UNL     1       1.502   2.328  20.007  0.00  0.00    +0.000 C 
ENDBRANCH   6  12
BRANCH   1  16
ATOM     15  C   UNL     1       6.484   4.342  16.419  0.00  0.00    +0.000 C 
ATOM     16  C   UNL     1       4.989   4.347  16.124  0.00  0.00    +0.000 C 
ENDBRANCH   1  16
TORSDOF 3
ENDMDL
MODEL 9
REMARK VINA RESULT:      -5.3      2.232      3.965
REMARK  Name = 
REMARK  4 active torsions:
REMARK  status: ('A' for Active; 'I' for Inactive)
REMARK    1  A    between atoms: C_1  and  C_2
REMARK    2  A    between atoms: C_2  and  N_3
REMARK    3  A    between atoms: C_7  and  N_8
REMARK    4  A    between atoms: N_9  and  C_10
REMARK                            x       y       z     vdW  Elec       q    Type
REMARK                         _______ _______ _______ _____ _____    ______ ____
ROOT
ATOM      1  N   UNL     1       2.271   3.562  18.703  0.00  0.00    +0.000 N 
ATOM      2  C   UNL     1       1.472   3.468  19.818  0.00  0.00    +0.000 A 
ATOM      3  O   UNL     1       0.853   2.464  20.162  0.00  0.00    +0.000 OA
ATOM      4  C   UNL     1       1.361   4.676  20.637  0.00  0.00    +0.000 A 
ATOM      5  C   UNL     1       1.906   5.835  20.250  0.00  0.00    +0.000 A 
ATOM      6  N   UNL     1       2.618   5.882  19.054  0.00  0.00    +0.000 N 
ATOM      7  C   UNL     1       2.884   4.739  18.284  0.00  0.00    +0.000 A 
ATOM      8  O   UNL     1       3.603   4.757  17.281  0.00  0.00    +0.000 OA
ENDROOT
BRANCH   5   9
ATOM      9  N   UNL     1       1.747   6.951  21.059  0.00  0.00    +0.000 N 
ATOM     10  H   UNL     1       1.881   7.838  20.582  0.00  0.00    +0.000 HD
ATOM     11  H   UNL     1       2.291   6.896  21.915  0.00  0.00    +0.000 HD
ENDBRANCH   5   9
BRANCH   6  12
ATOM     12  C   UNL     1       3.173   7.170  18.660  0.00  0.00    +0.000 C 
ATOM     13  C   UNL     1       3.546   7.589  17.258  0.00  0.00    +0.000 C 
ATOM     14  C   UNL     1       2.298   8.132  17.875  0.00  0.00    +0.000 C 
ENDBRANCH   6  12
BRANCH   1  16
ATOM     15  C   UNL     1       3.539   1.486  18.326  0.00  0.00    +0.000 C 
ATOM     16  C   UNL     1       2.398   2.380  17.856  0.00  0.00    +0.000 C 
ENDBRANCH   1  16
TORSDOF 3
ENDMDL
