MODEL 1
REMARK VINA RESULT:      -8.5      0.000      0.000
REMARK  Name = 
REMARK  8 active torsions:
REMARK  status: ('A' for Active; 'I' for Inactive)
REMARK    1  A    between atoms: C_1  and  N_2
REMARK    2  A    between atoms: N_2  and  C_21
REMARK    3  A    between atoms: C_6  and  C_7
REMARK    4  A    between atoms: C_11  and  C_12
REMARK    5  A    between atoms: C_23  and  C_24
REMARK    6  A    between atoms: C_23  and  C_25
REMARK    7  A    between atoms: C_27  and  C_28
REMARK    8  A    between atoms: C_27  and  C_29
REMARK                            x       y       z     vdW  Elec       q    Type
REMARK                         _______ _______ _______ _____ _____    ______ ____
ROOT
ATOM      1  C   UNL     1       2.151   8.579  17.780  0.00  0.00    +0.000 C 
ATOM      2  N   UNL     1       2.010   7.999  19.111  0.00  0.00    +0.000 N 
ATOM      3  C   UNL     1       1.480   8.722  20.145  0.00  0.00    +0.000 A 
ATOM      4  N   UNL     1       1.701   8.502  21.429  0.00  0.00    +0.000 NA
ATOM      5  N   UNL     1       1.044   9.388  22.264  0.00  0.00    +0.000 NA
ATOM      6  C   UNL     1       0.310  10.256  21.604  0.00  0.00    +0.000 A 
ATOM      7  S   UNL     1       0.372  10.029  19.904  0.00  0.00    +0.000 S 
ENDROOT
BRANCH   2   8
ATOM      8  C   UNL     1       2.604   6.669  19.393  0.00  0.00    +0.000 C 
ATOM      9  C   UNL     1       3.451   6.172  18.220  0.00  0.00    +0.000 C 
ATOM     10  C   UNL     1       3.997   4.746  18.429  0.00  0.00    +0.000 C 
ATOM     11  C   UNL     1       4.471   4.216  17.056  0.00  0.00    +0.000 C 
ATOM     12  C   UNL     1       5.225   4.737  19.356  0.00  0.00    +0.000 C 
ATOM     13  N   UNL     1       2.953   3.813  18.877  0.00  0.00    +0.000 NA
ATOM     14  C   UNL     1       2.036   4.230  19.944  0.00  0.00    +0.000 C 
ATOM     15  C   UNL     1       0.835   3.257  19.877  0.00  0.00    +0.000 C 
ATOM     16  C   UNL     1       2.651   4.077  21.345  0.00  0.00    +0.000 C 
ATOM     17  C   UNL     1       1.500   5.652  19.705  0.00  0.00    +0.000 C 
ATOM     18  H   UNL     1       3.356   2.899  19.085  0.00  0.00    +0.000 HD
ENDBRANCH   2   8
BRANCH   6  19
ATOM     19  C   UNL     1      -0.483  11.357  22.176  0.00  0.00    +0.000 A 
ATOM     20  C   UNL     1      -1.616  11.072  22.966  0.00  0.00    +0.000 A 
ATOM     21  C   UNL     1      -2.427  12.091  23.464  0.00  0.00    +0.000 A 
ATOM     22  F   UNL     1      -3.508  11.739  24.177  0.00  0.00    +0.000 F 
ATOM     23  C   UNL     1      -2.144  13.433  23.207  0.00  0.00    +0.000 A 
ATOM     24  C   UNL     1      -0.999  13.730  22.457  0.00  0.00    +0.000 A 
ATOM     25  C   UNL     1      -0.179  12.709  21.945  0.00  0.00    +0.000 A 
ATOM     26 CL   UNL     1       1.164  13.225  20.983  0.00  0.00    +0.000 Cl
BRANCH  23  27
ATOM     27  C   UNL     1      -3.016  14.490  23.688  0.00  0.00    +0.000 A 
ATOM     28  C   UNL     1      -3.911  15.340  22.998  0.00  0.00    +0.000 A 
ATOM     29  N   UNL     1      -4.521  16.212  23.815  0.00  0.00    +0.000 NA
ATOM     30  N   UNL     1      -4.003  15.933  25.015  0.00  0.00    +0.000 N 
ATOM     31  C   UNL     1      -3.093  14.914  24.995  0.00  0.00    +0.000 A 
ATOM     32  H   UNL     1      -4.307  16.485  25.811  0.00  0.00    +0.000 HD
ENDBRANCH  23  27
ENDBRANCH   6  19
TORSDOF 3
ENDMDL
MODEL 2
REMARK VINA RESULT:      -8.5      3.600      4.560
REMARK  Name = 
REMARK  8 active torsions:
REMARK  status: ('A' for Active; 'I' for Inactive)
REMARK    1  A    between atoms: C_1  and  N_2
REMARK    2  A    between atoms: N_2  and  C_21
REMARK    3  A    between atoms: C_6  and  C_7
REMARK    4  A    between atoms: C_11  and  C_12
REMARK    5  A    between atoms: C_23  and  C_24
REMARK    6  A    between atoms: C_23  and  C_25
REMARK    7  A    between atoms: C_27  and  C_28
REMARK    8  A    between atoms: C_27  and  C_29
REMARK                            x       y       z     vdW  Elec       q    Type
REMARK                         _______ _______ _______ _____ _____    ______ ____
ROOT
ATOM      1  C   UNL     1       1.561   5.839  20.825  0.00  0.00    +0.000 C 
ATOM      2  N   UNL     1       2.312   6.302  19.664  0.00  0.00    +0.000 N 
ATOM      3  C   UNL     1       2.079   7.535  19.117  0.00  0.00    +0.000 A 
ATOM      4  N   UNL     1       2.338   7.884  17.869  0.00  0.00    +0.000 NA
ATOM      5  N   UNL     1       1.997   9.192  17.577  0.00  0.00    +0.000 NA
ATOM      6  C   UNL     1       1.505   9.831  18.615  0.00  0.00    +0.000 A 
ATOM      7  S   UNL     1       1.442   8.860  20.029  0.00  0.00    +0.000 S 
ENDROOT
BRANCH   2   8
ATOM      8  C   UNL     1       3.220   5.364  18.961  0.00  0.00    +0.000 C 
ATOM      9  C   UNL     1       3.234   3.988  19.631  0.00  0.00    +0.000 C 
ATOM     10  C   UNL     1       4.247   3.016  18.995  0.00  0.00    +0.000 C 
ATOM     11  C   UNL     1       4.458   1.843  19.981  0.00  0.00    +0.000 C 
ATOM     12  C   UNL     1       3.709   2.406  17.690  0.00  0.00    +0.000 C 
ATOM     13  N   UNL     1       5.570   3.631  18.820  0.00  0.00    +0.000 NA
ATOM     14  C   UNL     1       5.658   4.984  18.260  0.00  0.00    +0.000 C 
ATOM     15  C   UNL     1       7.075   5.498  18.605  0.00  0.00    +0.000 C 
ATOM     16  C   UNL     1       5.544   4.998  16.726  0.00  0.00    +0.000 C 
ATOM     17  C   UNL     1       4.642   5.935  18.917  0.00  0.00    +0.000 C 
ATOM     18  H   UNL     1       6.197   2.996  18.325  0.00  0.00    +0.000 HD
ENDBRANCH   2   8
BRANCH   6  19
ATOM     19  C   UNL     1       1.007  11.216  18.645  0.00  0.00    +0.000 A 
ATOM     20  C   UNL     1       1.914  12.287  18.778  0.00  0.00    +0.000 A 
ATOM     21  C   UNL     1       1.469  13.605  18.879  0.00  0.00    +0.000 A 
ATOM     22  F   UNL     1       2.392  14.567  19.040  0.00  0.00    +0.000 F 
ATOM     23  C   UNL     1       0.110  13.915  18.843  0.00  0.00    +0.000 A 
ATOM     24  C   UNL     1      -0.799  12.864  18.670  0.00  0.00    +0.000 A 
ATOM     25  C   UNL     1      -0.361  11.531  18.575  0.00  0.00    +0.000 A 
ATOM     26 CL   UNL     1      -1.600  10.333  18.430  0.00  0.00    +0.000 Cl
BRANCH  23  27
ATOM     27  C   UNL     1      -0.353  15.284  18.994  0.00  0.00    +0.000 A 
ATOM     28  C   UNL     1      -0.129  16.432  18.200  0.00  0.00    +0.000 A 
ATOM     29  N   UNL     1      -0.724  17.525  18.702  0.00  0.00    +0.000 NA
ATOM     30  N   UNL     1      -1.305  17.081  19.820  0.00  0.00    +0.000 N 
ATOM     31  C   UNL     1      -1.110  15.747  20.046  0.00  0.00    +0.000 A 
ATOM     32  H   UNL     1      -1.814  17.745  20.394  0.00  0.00    +0.000 HD
ENDBRANCH  23  27
ENDBRANCH   6  19
TORSDOF 3
ENDMDL
MODEL 3
REMARK VINA RESULT:      -8.3      2.467      3.773
REMARK  Name = 
REMARK  8 active torsions:
REMARK  status: ('A' for Active; 'I' for Inactive)
REMARK    1  A    between atoms: C_1  and  N_2
REMARK    2  A    between atoms: N_2  and  C_21
REMARK    3  A    between atoms: C_6  and  C_7
REMARK    4  A    between atoms: C_11  and  C_12
REMARK    5  A    between atoms: C_23  and  C_24
REMARK    6  A    between atoms: C_23  and  C_25
REMARK    7  A    between atoms: C_27  and  C_28
REMARK    8  A    between atoms: C_27  and  C_29
REMARK                            x       y       z     vdW  Elec       q    Type
REMARK                         _______ _______ _______ _____ _____    ______ ____
ROOT
ATOM      1  C   UNL     1       2.749   5.233  19.721  0.00  0.00    +0.000 C 
ATOM      2  N   UNL     1       3.235   6.363  18.938  0.00  0.00    +0.000 N 
ATOM      3  C   UNL     1       2.525   7.533  18.869  0.00  0.00    +0.000 A 
ATOM      4  N   UNL     1       2.601   8.421  17.894  0.00  0.00    +0.000 NA
ATOM      5  N   UNL     1       1.769   9.511  18.072  0.00  0.00    +0.000 NA
ATOM      6  C   UNL     1       1.088   9.450  19.194  0.00  0.00    +0.000 A 
ATOM      7  S   UNL     1       1.439   8.045  20.115  0.00  0.00    +0.000 S 
ENDROOT
BRANCH   2   8
ATOM      8  C   UNL     1       4.423   6.191  18.067  0.00  0.00    +0.000 C 
ATOM      9  C   UNL     1       4.284   4.963  17.165  0.00  0.00    +0.000 C 
ATOM     10  C   UNL     1       5.544   4.687  16.321  0.00  0.00    +0.000 C 
ATOM     11  C   UNL     1       5.443   3.241  15.781  0.00  0.00    +0.000 C 
ATOM     12  C   UNL     1       5.623   5.613  15.096  0.00  0.00    +0.000 C 
ATOM     13  N   UNL     1       6.771   4.724  17.130  0.00  0.00    +0.000 NA
ATOM     14  C   UNL     1       6.960   5.821  18.086  0.00  0.00    +0.000 C 
ATOM     15  C   UNL     1       8.074   5.356  19.053  0.00  0.00    +0.000 C 
ATOM     16  C   UNL     1       7.467   7.109  17.415  0.00  0.00    +0.000 C 
ATOM     17  C   UNL     1       5.691   6.069  18.920  0.00  0.00    +0.000 C 
ATOM     18  H   UNL     1       7.594   4.619  16.536  0.00  0.00    +0.000 HD
ENDBRANCH   2   8
BRANCH   6  19
ATOM     19  C   UNL     1       0.088  10.418  19.674  0.00  0.00    +0.000 A 
ATOM     20  C   UNL     1       0.264  11.054  20.920  0.00  0.00    +0.000 A 
ATOM     21  C   UNL     1      -0.698  11.923  21.433  0.00  0.00    +0.000 A 
ATOM     22  F   UNL     1      -0.476  12.461  22.643  0.00  0.00    +0.000 F 
ATOM     23  C   UNL     1      -1.869  12.204  20.729  0.00  0.00    +0.000 A 
ATOM     24  C   UNL     1      -2.038  11.610  19.472  0.00  0.00    +0.000 A 
ATOM     25  C   UNL     1      -1.076  10.727  18.949  0.00  0.00    +0.000 A 
ATOM     26 CL   UNL     1      -1.449  10.020  17.415  0.00  0.00    +0.000 Cl
BRANCH  23  27
ATOM     27  C   UNL     1      -2.891  13.073  21.286  0.00  0.00    +0.000 A 
ATOM     28  C   UNL     1      -4.099  12.773  21.956  0.00  0.00    +0.000 A 
ATOM     29  N   UNL     1      -4.783  13.876  22.297  0.00  0.00    +0.000 NA
ATOM     30  N   UNL     1      -4.025  14.872  21.829  0.00  0.00    +0.000 N 
ATOM     31  C   UNL     1      -2.884  14.447  21.210  0.00  0.00    +0.000 A 
ATOM     32  H   UNL     1      -4.350  15.825  21.956  0.00  0.00    +0.000 HD
ENDBRANCH  23  27
ENDBRANCH   6  19
TORSDOF 3
ENDMDL
MODEL 4
REMARK VINA RESULT:      -7.9      2.652     10.473
REMARK  Name = 
REMARK  8 active torsions:
REMARK  status: ('A' for Active; 'I' for Inactive)
REMARK    1  A    between atoms: C_1  and  N_2
REMARK    2  A    between atoms: N_2  and  C_21
REMARK    3  A    between atoms: C_6  and  C_7
REMARK    4  A    between atoms: C_11  and  C_12
REMARK    5  A    between atoms: C_23  and  C_24
REMARK    6  A    between atoms: C_23  and  C_25
REMARK    7  A    between atoms: C_27  and  C_28
REMARK    8  A    between atoms: C_27  and  C_29
REMARK                            x       y       z     vdW  Elec       q    Type
REMARK                         _______ _______ _______ _____ _____    ______ ____
ROOT
ATOM      1  C   UNL     1      -2.951  12.382  20.417  0.00  0.00    +0.000 C 
ATOM      2  N   UNL     1      -1.660  12.577  21.067  0.00  0.00    +0.000 N 
ATOM      3  C   UNL     1      -0.705  11.596  21.050  0.00  0.00    +0.000 A 
ATOM      4  N   UNL     1       0.270  11.458  21.931  0.00  0.00    +0.000 NA
ATOM      5  N   UNL     1       1.093  10.376  21.681  0.00  0.00    +0.000 NA
ATOM      6  C   UNL     1       0.748   9.716  20.597  0.00  0.00    +0.000 A 
ATOM      7  S   UNL     1      -0.613  10.399  19.805  0.00  0.00    +0.000 S 
ENDROOT
BRANCH   2   8
ATOM      8  C   UNL     1      -1.439  13.782  21.903  0.00  0.00    +0.000 C 
ATOM      9  C   UNL     1      -2.574  13.983  22.908  0.00  0.00    +0.000 C 
ATOM     10  C   UNL     1      -2.437  15.285  23.723  0.00  0.00    +0.000 C 
ATOM     11  C   UNL     1      -3.804  15.575  24.385  0.00  0.00    +0.000 C 
ATOM     12  C   UNL     1      -1.415  15.138  24.863  0.00  0.00    +0.000 C 
ATOM     13  N   UNL     1      -2.155  16.447  22.868  0.00  0.00    +0.000 NA
ATOM     14  C   UNL     1      -1.138  16.327  21.817  0.00  0.00    +0.000 C 
ATOM     15  C   UNL     1      -1.383  17.509  20.850  0.00  0.00    +0.000 C 
ATOM     16  C   UNL     1       0.293  16.489  22.358  0.00  0.00    +0.000 C 
ATOM     17  C   UNL     1      -1.304  15.025  21.015  0.00  0.00    +0.000 C 
ATOM     18  H   UNL     1      -1.989  17.278  23.436  0.00  0.00    +0.000 HD
ENDBRANCH   2   8
BRANCH   6  19
ATOM     19  C   UNL     1       1.380   8.498  20.066  0.00  0.00    +0.000 A 
ATOM     20  C   UNL     1       1.397   7.319  20.840  0.00  0.00    +0.000 A 
ATOM     21  C   UNL     1       2.047   6.168  20.394  0.00  0.00    +0.000 A 
ATOM     22  F   UNL     1       2.050   5.097  21.202  0.00  0.00    +0.000 F 
ATOM     23  C   UNL     1       2.700   6.138  19.161  0.00  0.00    +0.000 A 
ATOM     24  C   UNL     1       2.657   7.289  18.366  0.00  0.00    +0.000 A 
ATOM     25  C   UNL     1       2.009   8.456  18.810  0.00  0.00    +0.000 A 
ATOM     26 CL   UNL     1       2.092   9.821  17.750  0.00  0.00    +0.000 Cl
BRANCH  23  27
ATOM     27  C   UNL     1       3.416   4.953  18.719  0.00  0.00    +0.000 A 
ATOM     28  C   UNL     1       3.032   3.909  17.847  0.00  0.00    +0.000 A 
ATOM     29  N   UNL     1       3.987   2.975  17.716  0.00  0.00    +0.000 NA
ATOM     30  N   UNL     1       4.965   3.411  18.515  0.00  0.00    +0.000 N 
ATOM     31  C   UNL     1       4.673   4.589  19.144  0.00  0.00    +0.000 A 
ATOM     32  H   UNL     1       5.807   2.851  18.595  0.00  0.00    +0.000 HD
ENDBRANCH  23  27
ENDBRANCH   6  19
TORSDOF 3
ENDMDL
MODEL 5
REMARK VINA RESULT:      -7.9      2.317      3.675
REMARK  Name = 
REMARK  8 active torsions:
REMARK  status: ('A' for Active; 'I' for Inactive)
REMARK    1  A    between atoms: C_1  and  N_2
REMARK    2  A    between atoms: N_2  and  C_21
REMARK    3  A    between atoms: C_6  and  C_7
REMARK    4  A    between atoms: C_11  and  C_12
REMARK    5  A    between atoms: C_23  and  C_24
REMARK    6  A    between atoms: C_23  and  C_25
REMARK    7  A    between atoms: C_27  and  C_28
REMARK    8  A    between atoms: C_27  and  C_29
REMARK                            x       y       z     vdW  Elec       q    Type
REMARK                         _______ _______ _______ _____ _____    ______ ____
ROOT
ATOM      1  C   UNL     1       2.686   4.881  19.533  0.00  0.00    +0.000 C 
ATOM      2  N   UNL     1       3.201   6.113  18.948  0.00  0.00    +0.000 N 
ATOM      3  C   UNL     1       2.516   7.292  19.065  0.00  0.00    +0.000 A 
ATOM      4  N   UNL     1       2.619   8.325  18.248  0.00  0.00    +0.000 NA
ATOM      5  N   UNL     1       1.807   9.389  18.596  0.00  0.00    +0.000 NA
ATOM      6  C   UNL     1       1.113   9.161  19.689  0.00  0.00    +0.000 A 
ATOM      7  S   UNL     1       1.427   7.618  20.370  0.00  0.00    +0.000 S 
ENDROOT
BRANCH   2   8
ATOM      8  C   UNL     1       4.395   6.059  18.069  0.00  0.00    +0.000 C 
ATOM      9  C   UNL     1       4.329   4.871  17.107  0.00  0.00    +0.000 C 
ATOM     10  C   UNL     1       5.602   4.717  16.249  0.00  0.00    +0.000 C 
ATOM     11  C   UNL     1       5.590   3.297  15.638  0.00  0.00    +0.000 C 
ATOM     12  C   UNL     1       5.618   5.707  15.072  0.00  0.00    +0.000 C 
ATOM     13  N   UNL     1       6.827   4.791  17.058  0.00  0.00    +0.000 NA
ATOM     14  C   UNL     1       6.951   5.848  18.068  0.00  0.00    +0.000 C 
ATOM     15  C   UNL     1       8.095   5.407  19.010  0.00  0.00    +0.000 C 
ATOM     16  C   UNL     1       7.373   7.198  17.463  0.00  0.00    +0.000 C 
ATOM     17  C   UNL     1       5.671   5.975  18.914  0.00  0.00    +0.000 C 
ATOM     18  H   UNL     1       7.653   4.768  16.459  0.00  0.00    +0.000 HD
ENDBRANCH   2   8
BRANCH   6  19
ATOM     19  C   UNL     1       0.127  10.059  20.312  0.00  0.00    +0.000 A 
ATOM     20  C   UNL     1      -0.752  10.810  19.505  0.00  0.00    +0.000 A 
ATOM     21  C   UNL     1      -1.649  11.720  20.062  0.00  0.00    +0.000 A 
ATOM     22  F   UNL     1      -2.428  12.424  19.225  0.00  0.00    +0.000 F 
ATOM     23  C   UNL     1      -1.718  11.917  21.441  0.00  0.00    +0.000 A 
ATOM     24  C   UNL     1      -0.879  11.148  22.257  0.00  0.00    +0.000 A 
ATOM     25  C   UNL     1       0.034  10.233  21.704  0.00  0.00    +0.000 A 
ATOM     26 CL   UNL     1       1.052   9.402  22.829  0.00  0.00    +0.000 Cl
BRANCH  23  27
ATOM     27  C   UNL     1      -2.621  12.899  22.016  0.00  0.00    +0.000 A 
ATOM     28  C   UNL     1      -3.900  12.752  22.602  0.00  0.00    +0.000 A 
ATOM     29  N   UNL     1      -4.419  13.925  22.996  0.00  0.00    +0.000 NA
ATOM     30  N   UNL     1      -3.487  14.816  22.645  0.00  0.00    +0.000 N 
ATOM     31  C   UNL     1      -2.392  14.256  22.049  0.00  0.00    +0.000 A 
ATOM     32  H   UNL     1      -3.665  15.797  22.831  0.00  0.00    +0.000 HD
ENDBRANCH  23  27
ENDBRANCH   6  19
TORSDOF 3
ENDMDL
MODEL 6
REMARK VINA RESULT:      -7.7      2.732      4.025
REMARK  Name = 
REMARK  8 active torsions:
REMARK  status: ('A' for Active; 'I' for Inactive)
REMARK    1  A    between atoms: C_1  and  N_2
REMARK    2  A    between atoms: N_2  and  C_21
REMARK    3  A    between atoms: C_6  and  C_7
REMARK    4  A    between atoms: C_11  and  C_12
REMARK    5  A    between atoms: C_23  and  C_24
REMARK    6  A    between atoms: C_23  and  C_25
REMARK    7  A    between atoms: C_27  and  C_28
REMARK    8  A    between atoms: C_27  and  C_29
REMARK                            x       y       z     vdW  Elec       q    Type
REMARK                         _______ _______ _______ _____ _____    ______ ____
ROOT
ATOM      1  C   UNL     1       2.868   5.145  19.629  0.00  0.00    +0.000 C 
ATOM      2  N   UNL     1       3.313   6.285  18.837  0.00  0.00    +0.000 N 
ATOM      3  C   UNL     1       2.548   7.417  18.734  0.00  0.00    +0.000 A 
ATOM      4  N   UNL     1       2.600   8.292  17.745  0.00  0.00    +0.000 NA
ATOM      5  N   UNL     1       1.712   9.342  17.888  0.00  0.00    +0.000 NA
ATOM      6  C   UNL     1       1.011   9.266  18.998  0.00  0.00    +0.000 A 
ATOM      7  S   UNL     1       1.413   7.894  19.949  0.00  0.00    +0.000 S 
ENDROOT
BRANCH   2   8
ATOM      8  C   UNL     1       4.526   6.158  17.993  0.00  0.00    +0.000 C 
ATOM      9  C   UNL     1       4.431   4.954  17.054  0.00  0.00    +0.000 C 
ATOM     10  C   UNL     1       5.718   4.723  16.236  0.00  0.00    +0.000 C 
ATOM     11  C   UNL     1       5.657   3.291  15.654  0.00  0.00    +0.000 C 
ATOM     12  C   UNL     1       5.812   5.684  15.039  0.00  0.00    +0.000 C 
ATOM     13  N   UNL     1       6.923   4.758  17.077  0.00  0.00    +0.000 NA
ATOM     14  C   UNL     1       7.068   5.831  18.068  0.00  0.00    +0.000 C 
ATOM     15  C   UNL     1       8.165   5.359  19.049  0.00  0.00    +0.000 C 
ATOM     16  C   UNL     1       7.568   7.146  17.446  0.00  0.00    +0.000 C 
ATOM     17  C   UNL     1       5.774   6.034  18.875  0.00  0.00    +0.000 C 
ATOM     18  H   UNL     1       7.763   4.684  16.502  0.00  0.00    +0.000 HD
ENDBRANCH   2   8
BRANCH   6  19
ATOM     19  C   UNL     1      -0.045  10.191  19.441  0.00  0.00    +0.000 A 
ATOM     20  C   UNL     1      -1.008  10.652  18.520  0.00  0.00    +0.000 A 
ATOM     21  C   UNL     1      -1.979  11.581  18.892  0.00  0.00    +0.000 A 
ATOM     22  F   UNL     1      -2.840  11.999  17.951  0.00  0.00    +0.000 F 
ATOM     23  C   UNL     1      -2.040  12.084  20.192  0.00  0.00    +0.000 A 
ATOM     24  C   UNL     1      -1.114  11.604  21.126  0.00  0.00    +0.000 A 
ATOM     25  C   UNL     1      -0.127  10.672  20.759  0.00  0.00    +0.000 A 
ATOM     26 CL   UNL     1       0.989  10.218  22.001  0.00  0.00    +0.000 Cl
BRANCH  23  27
ATOM     27  C   UNL     1      -3.023  13.086  20.565  0.00  0.00    +0.000 A 
ATOM     28  C   UNL     1      -2.876  14.455  20.886  0.00  0.00    +0.000 A 
ATOM     29  N   UNL     1      -4.045  15.035  21.202  0.00  0.00    +0.000 NA
ATOM     30  N   UNL     1      -4.927  14.037  21.103  0.00  0.00    +0.000 N 
ATOM     31  C   UNL     1      -4.368  12.847  20.730  0.00  0.00    +0.000 A 
ATOM     32  H   UNL     1      -5.900  14.232  21.315  0.00  0.00    +0.000 HD
ENDBRANCH  23  27
ENDBRANCH   6  19
TORSDOF 3
ENDMDL
MODEL 7
REMARK VINA RESULT:      -7.6      1.700      1.960
REMARK  Name = 
REMARK  8 active torsions:
REMARK  status: ('A' for Active; 'I' for Inactive)
REMARK    1  A    between atoms: C_1  and  N_2
REMARK    2  A    between atoms: N_2  and  C_21
REMARK    3  A    between atoms: C_6  and  C_7
REMARK    4  A    between atoms: C_11  and  C_12
REMARK    5  A    between atoms: C_23  and  C_24
REMARK    6  A    between atoms: C_23  and  C_25
REMARK    7  A    between atoms: C_27  and  C_28
REMARK    8  A    between atoms: C_27  and  C_29
REMARK                            x       y       z     vdW  Elec       q    Type
REMARK                         _______ _______ _______ _____ _____    ______ ____
ROOT
ATOM      1  C   UNL     1       3.041   8.392  17.142  0.00  0.00    +0.000 C 
ATOM      2  N   UNL     1       2.663   7.614  18.316  0.00  0.00    +0.000 N 
ATOM      3  C   UNL     1       1.917   8.169  19.322  0.00  0.00    +0.000 A 
ATOM      4  N   UNL     1       1.891   7.757  20.576  0.00  0.00    +0.000 NA
ATOM      5  N   UNL     1       1.055   8.502  21.387  0.00  0.00    +0.000 NA
ATOM      6  C   UNL     1       0.436   9.459  20.734  0.00  0.00    +0.000 A 
ATOM      7  S   UNL     1       0.835   9.495  19.064  0.00  0.00    +0.000 S 
ENDROOT
BRANCH   2   8
ATOM      8  C   UNL     1       3.233   6.259  18.508  0.00  0.00    +0.000 C 
ATOM      9  C   UNL     1       4.242   5.914  17.410  0.00  0.00    +0.000 C 
ATOM     10  C   UNL     1       4.777   4.472  17.512  0.00  0.00    +0.000 C 
ATOM     11  C   UNL     1       5.444   4.120  16.162  0.00  0.00    +0.000 C 
ATOM     12  C   UNL     1       5.866   4.344  18.591  0.00  0.00    +0.000 C 
ATOM     13  N   UNL     1       3.697   3.491  17.689  0.00  0.00    +0.000 NA
ATOM     14  C   UNL     1       2.635   3.770  18.663  0.00  0.00    +0.000 C 
ATOM     15  C   UNL     1       1.471   2.815  18.309  0.00  0.00    +0.000 C 
ATOM     16  C   UNL     1       3.054   3.440  20.106  0.00  0.00    +0.000 C 
ATOM     17  C   UNL     1       2.113   5.212  18.533  0.00  0.00    +0.000 C 
ATOM     18  H   UNL     1       4.082   2.558  17.835  0.00  0.00    +0.000 HD
ENDBRANCH   2   8
BRANCH   6  19
ATOM     19  C   UNL     1      -0.489  10.457  21.295  0.00  0.00    +0.000 A 
ATOM     20  C   UNL     1      -1.112  11.395  20.447  0.00  0.00    +0.000 A 
ATOM     21  C   UNL     1      -1.939  12.396  20.956  0.00  0.00    +0.000 A 
ATOM     22  F   UNL     1      -2.467  13.274  20.089  0.00  0.00    +0.000 F 
ATOM     23  C   UNL     1      -2.189  12.502  22.325  0.00  0.00    +0.000 A 
ATOM     24  C   UNL     1      -1.609  11.551  23.173  0.00  0.00    +0.000 A 
ATOM     25  C   UNL     1      -0.768  10.543  22.670  0.00  0.00    +0.000 A 
ATOM     26 CL   UNL     1      -0.070   9.480  23.843  0.00  0.00    +0.000 Cl
BRANCH  23  27
ATOM     27  C   UNL     1      -3.014  13.572  22.857  0.00  0.00    +0.000 A 
ATOM     28  C   UNL     1      -2.670  14.859  23.332  0.00  0.00    +0.000 A 
ATOM     29  N   UNL     1      -3.738  15.546  23.766  0.00  0.00    +0.000 NA
ATOM     30  N   UNL     1      -4.753  14.695  23.589  0.00  0.00    +0.000 N 
ATOM     31  C   UNL     1      -4.374  13.496  23.053  0.00  0.00    +0.000 A 
ATOM     32  H   UNL     1      -5.683  14.990  23.866  0.00  0.00    +0.000 HD
ENDBRANCH  23  27
ENDBRANCH   6  19
TORSDOF 3
ENDMDL
MODEL 8
REMARK VINA RESULT:      -7.5      2.550     10.390
REMARK  Name = 
REMARK  8 active torsions:
REMARK  status: ('A' for Active; 'I' for Inactive)
REMARK    1  A    between atoms: C_1  and  N_2
REMARK    2  A    between atoms: N_2  and  C_21
REMARK    3  A    between atoms: C_6  and  C_7
REMARK    4  A    between atoms: C_11  and  C_12
REMARK    5  A    between atoms: C_23  and  C_24
REMARK    6  A    between atoms: C_23  and  C_25
REMARK    7  A    between atoms: C_27  and  C_28
REMARK    8  A    between atoms: C_27  and  C_29
REMARK                            x       y       z     vdW  Elec       q    Type
REMARK                         _______ _______ _______ _____ _____    ______ ____
ROOT
ATOM      1  C   UNL     1       0.858  14.078  21.606  0.00  0.00    +0.000 C 
ATOM      2  N   UNL     1      -0.253  13.137  21.683  0.00  0.00    +0.000 N 
ATOM      3  C   UNL     1      -0.142  11.869  21.178  0.00  0.00    +0.000 A 
ATOM      4  N   UNL     1      -1.148  11.108  20.785  0.00  0.00    +0.000 NA
ATOM      5  N   UNL     1      -0.754   9.871  20.309  0.00  0.00    +0.000 NA
ATOM      6  C   UNL     1       0.548   9.697  20.368  0.00  0.00    +0.000 A 
ATOM      7  S   UNL     1       1.374  11.049  21.030  0.00  0.00    +0.000 S 
ENDROOT
BRANCH   2   8
ATOM      8  C   UNL     1      -1.577  13.608  22.158  0.00  0.00    +0.000 C 
ATOM      9  C   UNL     1      -2.067  14.811  21.350  0.00  0.00    +0.000 C 
ATOM     10  C   UNL     1      -3.389  15.399  21.882  0.00  0.00    +0.000 C 
ATOM     11  C   UNL     1      -3.562  16.807  21.267  0.00  0.00    +0.000 C 
ATOM     12  C   UNL     1      -4.603  14.567  21.435  0.00  0.00    +0.000 C 
ATOM     13  N   UNL     1      -3.359  15.603  23.338  0.00  0.00    +0.000 NA
ATOM     14  C   UNL     1      -2.828  14.537  24.195  0.00  0.00    +0.000 C 
ATOM     15  C   UNL     1      -2.527  15.197  25.560  0.00  0.00    +0.000 C 
ATOM     16  C   UNL     1      -3.857  13.424  24.460  0.00  0.00    +0.000 C 
ATOM     17  C   UNL     1      -1.505  13.975  23.645  0.00  0.00    +0.000 C 
ATOM     18  H   UNL     1      -4.270  15.915  23.675  0.00  0.00    +0.000 HD
ENDBRANCH   2   8
BRANCH   6  19
ATOM     19  C   UNL     1       1.303   8.520  19.909  0.00  0.00    +0.000 A 
ATOM     20  C   UNL     1       1.369   7.367  20.718  0.00  0.00    +0.000 A 
ATOM     21  C   UNL     1       2.133   6.261  20.343  0.00  0.00    +0.000 A 
ATOM     22  F   UNL     1       2.175   5.215  21.183  0.00  0.00    +0.000 F 
ATOM     23  C   UNL     1       2.854   6.251  19.149  0.00  0.00    +0.000 A 
ATOM     24  C   UNL     1       2.765   7.374  18.318  0.00  0.00    +0.000 A 
ATOM     25  C   UNL     1       2.003   8.496  18.690  0.00  0.00    +0.000 A 
ATOM     26 CL   UNL     1       2.038   9.835  17.595  0.00  0.00    +0.000 Cl
BRANCH  23  27
ATOM     27  C   UNL     1       3.686   5.117  18.784  0.00  0.00    +0.000 A 
ATOM     28  C   UNL     1       3.444   4.036  17.906  0.00  0.00    +0.000 A 
ATOM     29  N   UNL     1       4.472   3.174  17.862  0.00  0.00    +0.000 NA
ATOM     30  N   UNL     1       5.354   3.692  18.722  0.00  0.00    +0.000 N 
ATOM     31  C   UNL     1       4.931   4.852  19.306  0.00  0.00    +0.000 A 
ATOM     32  H   UNL     1       6.226   3.196  18.875  0.00  0.00    +0.000 HD
ENDBRANCH  23  27
ENDBRANCH   6  19
TORSDOF 3
ENDMDL
MODEL 9
REMARK VINA RESULT:      -7.5      2.582     10.303
REMARK  Name = 
REMARK  8 active torsions:
REMARK  status: ('A' for Active; 'I' for Inactive)
REMARK    1  A    between atoms: C_1  and  N_2
REMARK    2  A    between atoms: N_2  and  C_21
REMARK    3  A    between atoms: C_6  and  C_7
REMARK    4  A    between atoms: C_11  and  C_12
REMARK    5  A    between atoms: C_23  and  C_24
REMARK    6  A    between atoms: C_23  and  C_25
REMARK    7  A    between atoms: C_27  and  C_28
REMARK    8  A    between atoms: C_27  and  C_29
REMARK                            x       y       z     vdW  Elec       q    Type
REMARK                         _______ _______ _______ _____ _____    ______ ____
ROOT
ATOM      1  C   UNL     1       0.715  14.080  21.664  0.00  0.00    +0.000 C 
ATOM      2  N   UNL     1      -0.424  13.181  21.513  0.00  0.00    +0.000 N 
ATOM      3  C   UNL     1      -0.269  11.926  20.988  0.00  0.00    +0.000 A 
ATOM      4  N   UNL     1      -1.215  11.217  20.399  0.00  0.00    +0.000 NA
ATOM      5  N   UNL     1      -0.785   9.982  19.952  0.00  0.00    +0.000 NA
ATOM      6  C   UNL     1       0.480   9.755  20.228  0.00  0.00    +0.000 A 
ATOM      7  S   UNL     1       1.222  11.052  21.073  0.00  0.00    +0.000 S 
ENDROOT
BRANCH   2   8
ATOM      8  C   UNL     1      -1.793  13.688  21.770  0.00  0.00    +0.000 C 
ATOM      9  C   UNL     1      -1.778  15.165  22.172  0.00  0.00    +0.000 C 
ATOM     10  C   UNL     1      -3.172  15.702  22.553  0.00  0.00    +0.000 C 
ATOM     11  C   UNL     1      -2.973  17.036  23.309  0.00  0.00    +0.000 C 
ATOM     12  C   UNL     1      -4.020  16.020  21.309  0.00  0.00    +0.000 C 
ATOM     13  N   UNL     1      -3.871  14.813  23.493  0.00  0.00    +0.000 NA
ATOM     14  C   UNL     1      -3.872  13.368  23.238  0.00  0.00    +0.000 C 
ATOM     15  C   UNL     1      -4.279  12.701  24.572  0.00  0.00    +0.000 C 
ATOM     16  C   UNL     1      -4.925  12.952  22.197  0.00  0.00    +0.000 C 
ATOM     17  C   UNL     1      -2.468  12.858  22.868  0.00  0.00    +0.000 C 
ATOM     18  H   UNL     1      -4.819  15.149  23.665  0.00  0.00    +0.000 HD
ENDBRANCH   2   8
BRANCH   6  19
ATOM     19  C   UNL     1       1.264   8.564  19.863  0.00  0.00    +0.000 A 
ATOM     20  C   UNL     1       1.301   7.452  20.729  0.00  0.00    +0.000 A 
ATOM     21  C   UNL     1       2.089   6.337  20.445  0.00  0.00    +0.000 A 
ATOM     22  F   UNL     1       2.099   5.333  21.336  0.00  0.00    +0.000 F 
ATOM     23  C   UNL     1       2.865   6.276  19.288  0.00  0.00    +0.000 A 
ATOM     24  C   UNL     1       2.807   7.357  18.399  0.00  0.00    +0.000 A 
ATOM     25  C   UNL     1       2.021   8.488  18.681  0.00  0.00    +0.000 A 
ATOM     26 CL   UNL     1       2.097   9.773  17.525  0.00  0.00    +0.000 Cl
BRANCH  23  27
ATOM     27  C   UNL     1       3.721   5.134  19.016  0.00  0.00    +0.000 A 
ATOM     28  C   UNL     1       3.413   3.834  18.552  0.00  0.00    +0.000 A 
ATOM     29  N   UNL     1       4.502   3.055  18.454  0.00  0.00    +0.000 NA
ATOM     30  N   UNL     1       5.493   3.846  18.873  0.00  0.00    +0.000 N 
ATOM     31  C   UNL     1       5.080   5.100  19.228  0.00  0.00    +0.000 A 
ATOM     32  H   UNL     1       6.433   3.465  18.904  0.00  0.00    +0.000 HD
ENDBRANCH  23  27
ENDBRANCH   6  19
TORSDOF 3
ENDMDL
