MODEL 1
REMARK VINA RESULT:      -7.5      0.000      0.000
REMARK  Name = 
REMARK  5 active torsions:
REMARK  status: ('A' for Active; 'I' for Inactive)
REMARK    1  A    between atoms: C_1  and  C_2
REMARK    2  A    between atoms: C_4  and  C_5
REMARK    3  A    between atoms: C_14  and  N_15
REMARK    4  A    between atoms: C_16  and  C_18
REMARK    5  A    between atoms: C_18  and  C_19
REMARK                            x       y       z     vdW  Elec       q    Type
REMARK                         _______ _______ _______ _____ _____    ______ ____
ROOT
ATOM      1  C   UNL     1       5.160   6.419  15.863  0.00  0.00    +0.000 C 
ATOM      2  C   UNL     1       6.437   6.358  16.686  0.00  0.00    +0.000 C 
ATOM      3  O   UNL     1       6.778   7.689  17.094  0.00  0.00    +0.000 OA
ATOM      4  C   UNL     1       8.038   7.702  17.764  0.00  0.00    +0.000 C 
ATOM      5  O   UNL     1       8.011   6.905  18.945  0.00  0.00    +0.000 OA
ATOM      6  C   UNL     1       7.717   5.540  18.640  0.00  0.00    +0.000 C 
ATOM      7  C   UNL     1       6.366   5.432  17.921  0.00  0.00    +0.000 C 
ENDROOT
BRANCH   4   8
ATOM      8  C   UNL     1       8.388   9.112  18.193  0.00  0.00    +0.000 A 
ATOM      9  C   UNL     1       9.159   9.360  19.341  0.00  0.00    +0.000 A 
ATOM     10  C   UNL     1       9.526  10.663  19.683  0.00  0.00    +0.000 A 
ATOM     11  C   UNL     1       9.131  11.728  18.878  0.00  0.00    +0.000 A 
ATOM     12 CL   UNL     1       9.605  13.331  19.287  0.00  0.00    +0.000 Cl
ATOM     13  C   UNL     1       8.364  11.503  17.737  0.00  0.00    +0.000 A 
ATOM     14  C   UNL     1       7.997  10.201  17.395  0.00  0.00    +0.000 A 
ENDBRANCH   4   8
BRANCH   7  15
ATOM     15  N   UNL     1       5.280   5.792  18.842  0.00  0.00    +0.000 N 
ATOM     16  C   UNL     1       4.123   5.051  18.914  0.00  0.00    +0.000 C 
ATOM     17  O   UNL     1       3.948   4.038  18.235  0.00  0.00    +0.000 OA
ATOM     18  H   UNL     1       5.334   6.702  19.286  0.00  0.00    +0.000 HD
BRANCH  16  19
ATOM     19  C   UNL     1       3.079   5.552  19.895  0.00  0.00    +0.000 C 
BRANCH  19  20
ATOM     20  C   UNL     1       2.443   6.859  19.484  0.00  0.00    +0.000 A 
ATOM     21  C   UNL     1       1.839   7.684  20.444  0.00  0.00    +0.000 A 
ATOM     22  C   UNL     1       1.279   8.910  20.078  0.00  0.00    +0.000 A 
ATOM     23  C   UNL     1       1.327   9.333  18.751  0.00  0.00    +0.000 A 
ATOM     24  C   UNL     1       1.931   8.529  17.788  0.00  0.00    +0.000 A 
ATOM     25  C   UNL     1       2.484   7.297  18.152  0.00  0.00    +0.000 A 
ENDBRANCH  19  20
ENDBRANCH  16  19
ENDBRANCH   7  15
TORSDOF 4
ENDMDL
MODEL 2
REMARK VINA RESULT:      -7.3      0.127      1.399
REMARK  Name = 
REMARK  5 active torsions:
REMARK  status: ('A' for Active; 'I' for Inactive)
REMARK    1  A    between atoms: C_1  and  C_2
REMARK    2  A    between atoms: C_4  and  C_5
REMARK    3  A    between atoms: C_14  and  N_15
REMARK    4  A    between atoms: C_16  and  C_18
REMARK    5  A    between atoms: C_18  and  C_19
REMARK                            x       y       z     vdW  Elec       q    Type
REMARK                         _______ _______ _______ _____ _____    ______ ____
ROOT
ATOM      1  C   UNL     1       5.141   6.327  15.854  0.00  0.00    +0.000 C 
ATOM      2  C   UNL     1       6.415   6.273  16.682  0.00  0.00    +0.000 C 
ATOM      3  O   UNL     1       6.772   7.611  17.053  0.00  0.00    +0.000 OA
ATOM      4  C   UNL     1       8.030   7.628  17.726  0.00  0.00    +0.000 C 
ATOM      5  O   UNL     1       7.991   6.863  18.929  0.00  0.00    +0.000 OA
ATOM      6  C   UNL     1       7.682   5.495  18.660  0.00  0.00    +0.000 C 
ATOM      7  C   UNL     1       6.331   5.383  17.941  0.00  0.00    +0.000 C 
ENDROOT
BRANCH   4   8
ATOM      8  C   UNL     1       8.396   9.044  18.117  0.00  0.00    +0.000 A 
ATOM      9  C   UNL     1       7.974  10.147  17.356  0.00  0.00    +0.000 A 
ATOM     10  C   UNL     1       8.266  11.450  17.769  0.00  0.00    +0.000 A 
ATOM     11  C   UNL     1       8.977  11.660  18.948  0.00  0.00    +0.000 A 
ATOM     12 CL   UNL     1       9.314  13.264  19.469  0.00  0.00    +0.000 Cl
ATOM     13  C   UNL     1       9.407  10.578  19.714  0.00  0.00    +0.000 A 
ATOM     14  C   UNL     1       9.115   9.277  19.302  0.00  0.00    +0.000 A 
ENDBRANCH   4   8
BRANCH   7  15
ATOM     15  N   UNL     1       5.248   5.781  18.849  0.00  0.00    +0.000 N 
ATOM     16  C   UNL     1       4.058   5.091  18.895  0.00  0.00    +0.000 C 
ATOM     17  O   UNL     1       3.849   4.093  18.203  0.00  0.00    +0.000 OA
ATOM     18  H   UNL     1       5.334   6.683  19.304  0.00  0.00    +0.000 HD
BRANCH  16  19
ATOM     19  C   UNL     1       3.022   5.627  19.865  0.00  0.00    +0.000 C 
BRANCH  19  20
ATOM     20  C   UNL     1       2.454   6.968  19.462  0.00  0.00    +0.000 A 
ATOM     21  C   UNL     1       2.563   7.412  18.136  0.00  0.00    +0.000 A 
ATOM     22  C   UNL     1       2.011   8.635  17.748  0.00  0.00    +0.000 A 
ATOM     23  C   UNL     1       1.333   9.423  18.676  0.00  0.00    +0.000 A 
ATOM     24  C   UNL     1       1.210   8.991  19.994  0.00  0.00    +0.000 A 
ATOM     25  C   UNL     1       1.769   7.772  20.386  0.00  0.00    +0.000 A 
ENDBRANCH  19  20
ENDBRANCH  16  19
ENDBRANCH   7  15
TORSDOF 4
ENDMDL
MODEL 3
REMARK VINA RESULT:      -7.2      5.646      8.502
REMARK  Name = 
REMARK  5 active torsions:
REMARK  status: ('A' for Active; 'I' for Inactive)
REMARK    1  A    between atoms: C_1  and  C_2
REMARK    2  A    between atoms: C_4  and  C_5
REMARK    3  A    between atoms: C_14  and  N_15
REMARK    4  A    between atoms: C_16  and  C_18
REMARK    5  A    between atoms: C_18  and  C_19
REMARK                            x       y       z     vdW  Elec       q    Type
REMARK                         _______ _______ _______ _____ _____    ______ ____
ROOT
ATOM      1  C   UNL     1       0.017  10.288  21.526  0.00  0.00    +0.000 C 
ATOM      2  C   UNL     1       0.993   9.873  20.437  0.00  0.00    +0.000 C 
ATOM      3  O   UNL     1       1.046   8.441  20.396  0.00  0.00    +0.000 OA
ATOM      4  C   UNL     1       2.043   8.001  19.474  0.00  0.00    +0.000 C 
ATOM      5  O   UNL     1       1.760   8.440  18.148  0.00  0.00    +0.000 OA
ATOM      6  C   UNL     1       1.726   9.866  18.073  0.00  0.00    +0.000 C 
ATOM      7  C   UNL     1       0.668  10.427  19.032  0.00  0.00    +0.000 C 
ENDROOT
BRANCH   4   8
ATOM      8  C   UNL     1       2.089   6.488  19.436  0.00  0.00    +0.000 A 
ATOM      9  C   UNL     1       1.780   5.716  20.568  0.00  0.00    +0.000 A 
ATOM     10  C   UNL     1       1.763   4.321  20.496  0.00  0.00    +0.000 A 
ATOM     11  C   UNL     1       2.051   3.686  19.290  0.00  0.00    +0.000 A 
ATOM     12 CL   UNL     1       2.007   1.969  19.195  0.00  0.00    +0.000 Cl
ATOM     13  C   UNL     1       2.363   4.435  18.157  0.00  0.00    +0.000 A 
ATOM     14  C   UNL     1       2.379   5.829  18.229  0.00  0.00    +0.000 A 
ENDBRANCH   4   8
BRANCH   7  15
ATOM     15  N   UNL     1      -0.675  10.053  18.568  0.00  0.00    +0.000 N 
ATOM     16  C   UNL     1      -1.547  10.987  18.059  0.00  0.00    +0.000 C 
ATOM     17  O   UNL     1      -1.241  12.175  17.939  0.00  0.00    +0.000 OA
ATOM     18  H   UNL     1      -1.002   9.122  18.805  0.00  0.00    +0.000 HD
BRANCH  16  19
ATOM     19  C   UNL     1      -2.906  10.461  17.639  0.00  0.00    +0.000 C 
BRANCH  19  20
ATOM     20  C   UNL     1      -4.039  11.419  17.927  0.00  0.00    +0.000 A 
ATOM     21  C   UNL     1      -4.948  11.763  16.915  0.00  0.00    +0.000 A 
ATOM     22  C   UNL     1      -6.018  12.621  17.182  0.00  0.00    +0.000 A 
ATOM     23  C   UNL     1      -6.200  13.133  18.465  0.00  0.00    +0.000 A 
ATOM     24  C   UNL     1      -5.312  12.792  19.481  0.00  0.00    +0.000 A 
ATOM     25  C   UNL     1      -4.235  11.942  19.214  0.00  0.00    +0.000 A 
ENDBRANCH  19  20
ENDBRANCH  16  19
ENDBRANCH   7  15
TORSDOF 4
ENDMDL
MODEL 4
REMARK VINA RESULT:      -7.1      3.908      7.193
REMARK  Name = 
REMARK  5 active torsions:
REMARK  status: ('A' for Active; 'I' for Inactive)
REMARK    1  A    between atoms: C_1  and  C_2
REMARK    2  A    between atoms: C_4  and  C_5
REMARK    3  A    between atoms: C_14  and  N_15
REMARK    4  A    between atoms: C_16  and  C_18
REMARK    5  A    between atoms: C_18  and  C_19
REMARK                            x       y       z     vdW  Elec       q    Type
REMARK                         _______ _______ _______ _____ _____    ______ ____
ROOT
ATOM      1  C   UNL     1       6.419   5.291  18.901  0.00  0.00    +0.000 C 
ATOM      2  C   UNL     1       4.916   5.067  18.967  0.00  0.00    +0.000 C 
ATOM      3  O   UNL     1       4.269   6.345  19.017  0.00  0.00    +0.000 OA
ATOM      4  C   UNL     1       2.863   6.189  19.207  0.00  0.00    +0.000 C 
ATOM      5  O   UNL     1       2.266   5.468  18.132  0.00  0.00    +0.000 OA
ATOM      6  C   UNL     1       2.818   4.154  18.024  0.00  0.00    +0.000 C 
ATOM      7  C   UNL     1       4.335   4.228  17.807  0.00  0.00    +0.000 C 
ENDROOT
BRANCH   4   8
ATOM      8  C   UNL     1       2.188   7.544  19.255  0.00  0.00    +0.000 A 
ATOM      9  C   UNL     1       2.054   8.338  18.105  0.00  0.00    +0.000 A 
ATOM     10  C   UNL     1       1.370   9.556  18.156  0.00  0.00    +0.000 A 
ATOM     11  C   UNL     1       0.811   9.986  19.356  0.00  0.00    +0.000 A 
ATOM     12 CL   UNL     1      -0.051  11.473  19.413  0.00  0.00    +0.000 Cl
ATOM     13  C   UNL     1       0.937   9.214  20.509  0.00  0.00    +0.000 A 
ATOM     14  C   UNL     1       1.619   7.997  20.458  0.00  0.00    +0.000 A 
ENDBRANCH   4   8
BRANCH   7  15
ATOM     15  N   UNL     1       4.624   4.804  16.488  0.00  0.00    +0.000 N 
ATOM     16  C   UNL     1       5.497   4.199  15.614  0.00  0.00    +0.000 C 
ATOM     17  O   UNL     1       6.058   3.134  15.877  0.00  0.00    +0.000 OA
ATOM     18  H   UNL     1       4.303   5.751  16.317  0.00  0.00    +0.000 HD
BRANCH  16  19
ATOM     19  C   UNL     1       5.715   4.916  14.294  0.00  0.00    +0.000 C 
BRANCH  19  20
ATOM     20  C   UNL     1       5.839   3.982  13.113  0.00  0.00    +0.000 A 
ATOM     21  C   UNL     1       7.105   3.613  12.635  0.00  0.00    +0.000 A 
ATOM     22  C   UNL     1       7.229   2.723  11.565  0.00  0.00    +0.000 A 
ATOM     23  C   UNL     1       6.091   2.182  10.970  0.00  0.00    +0.000 A 
ATOM     24  C   UNL     1       4.829   2.532  11.440  0.00  0.00    +0.000 A 
ATOM     25  C   UNL     1       4.703   3.429  12.505  0.00  0.00    +0.000 A 
ENDBRANCH  19  20
ENDBRANCH  16  19
ENDBRANCH   7  15
TORSDOF 4
ENDMDL
MODEL 5
REMARK VINA RESULT:      -7.1      3.698      6.805
REMARK  Name = 
REMARK  5 active torsions:
REMARK  status: ('A' for Active; 'I' for Inactive)
REMARK    1  A    between atoms: C_1  and  C_2
REMARK    2  A    between atoms: C_4  and  C_5
REMARK    3  A    between atoms: C_14  and  N_15
REMARK    4  A    between atoms: C_16  and  C_18
REMARK    5  A    between atoms: C_18  and  C_19
REMARK                            x       y       z     vdW  Elec       q    Type
REMARK                         _______ _______ _______ _____ _____    ______ ____
ROOT
ATOM      1  C   UNL     1       7.054   5.554  19.550  0.00  0.00    +0.000 C 
ATOM      2  C   UNL     1       5.615   5.091  19.392  0.00  0.00    +0.000 C 
ATOM      3  O   UNL     1       4.769   6.248  19.343  0.00  0.00    +0.000 OA
ATOM      4  C   UNL     1       3.394   5.865  19.322  0.00  0.00    +0.000 C 
ATOM      5  O   UNL     1       3.087   5.082  18.171  0.00  0.00    +0.000 OA
ATOM      6  C   UNL     1       3.853   3.877  18.148  0.00  0.00    +0.000 C 
ATOM      7  C   UNL     1       5.354   4.197  18.160  0.00  0.00    +0.000 C 
ENDROOT
BRANCH   4   8
ATOM      8  C   UNL     1       2.510   7.093  19.267  0.00  0.00    +0.000 A 
ATOM      9  C   UNL     1       1.862   7.583  20.412  0.00  0.00    +0.000 A 
ATOM     10  C   UNL     1       1.104   8.755  20.356  0.00  0.00    +0.000 A 
ATOM     11  C   UNL     1       0.992   9.450  19.154  0.00  0.00    +0.000 A 
ATOM     12 CL   UNL     1       0.078  10.906  19.090  0.00  0.00    +0.000 Cl
ATOM     13  C   UNL     1       1.625   8.978  18.006  0.00  0.00    +0.000 A 
ATOM     14  C   UNL     1       2.383   7.808  18.063  0.00  0.00    +0.000 A 
ENDBRANCH   4   8
BRANCH   7  15
ATOM     15  N   UNL     1       5.737   4.841  16.897  0.00  0.00    +0.000 N 
ATOM     16  C   UNL     1       7.013   4.736  16.393  0.00  0.00    +0.000 C 
ATOM     17  O   UNL     1       7.889   4.076  16.955  0.00  0.00    +0.000 OA
ATOM     18  H   UNL     1       5.086   5.514  16.505  0.00  0.00    +0.000 HD
BRANCH  16  19
ATOM     19  C   UNL     1       7.271   5.470  15.091  0.00  0.00    +0.000 C 
BRANCH  19  20
ATOM     20  C   UNL     1       6.853   4.690  13.866  0.00  0.00    +0.000 A 
ATOM     21  C   UNL     1       5.657   3.958  13.868  0.00  0.00    +0.000 A 
ATOM     22  C   UNL     1       5.246   3.263  12.728  0.00  0.00    +0.000 A 
ATOM     23  C   UNL     1       6.019   3.301  11.569  0.00  0.00    +0.000 A 
ATOM     24  C   UNL     1       7.204   4.030  11.549  0.00  0.00    +0.000 A 
ATOM     25  C   UNL     1       7.621   4.719  12.692  0.00  0.00    +0.000 A 
ENDBRANCH  19  20
ENDBRANCH  16  19
ENDBRANCH   7  15
TORSDOF 4
ENDMDL
MODEL 6
REMARK VINA RESULT:      -7.0      4.003      7.143
REMARK  Name = 
REMARK  5 active torsions:
REMARK  status: ('A' for Active; 'I' for Inactive)
REMARK    1  A    between atoms: C_1  and  C_2
REMARK    2  A    between atoms: C_4  and  C_5
REMARK    3  A    between atoms: C_14  and  N_15
REMARK    4  A    between atoms: C_16  and  C_18
REMARK    5  A    between atoms: C_18  and  C_19
REMARK                            x       y       z     vdW  Elec       q    Type
REMARK                         _______ _______ _______ _____ _____    ______ ____
ROOT
ATOM      1  C   UNL     1       6.191   5.180  19.053  0.00  0.00    +0.000 C 
ATOM      2  C   UNL     1       4.677   5.042  19.045  0.00  0.00    +0.000 C 
ATOM      3  O   UNL     1       4.102   6.354  19.080  0.00  0.00    +0.000 OA
ATOM      4  C   UNL     1       2.682   6.278  19.200  0.00  0.00    +0.000 C 
ATOM      5  O   UNL     1       2.098   5.602  18.089  0.00  0.00    +0.000 OA
ATOM      6  C   UNL     1       2.579   4.261  17.991  0.00  0.00    +0.000 C 
ATOM      7  C   UNL     1       4.106   4.249  17.848  0.00  0.00    +0.000 C 
ENDROOT
BRANCH   4   8
ATOM      8  C   UNL     1       2.084   7.669  19.233  0.00  0.00    +0.000 A 
ATOM      9  C   UNL     1       2.015   8.465  18.078  0.00  0.00    +0.000 A 
ATOM     10  C   UNL     1       1.400   9.719  18.114  0.00  0.00    +0.000 A 
ATOM     11  C   UNL     1       0.845  10.185  19.303  0.00  0.00    +0.000 A 
ATOM     12 CL   UNL     1       0.067  11.719  19.341  0.00  0.00    +0.000 Cl
ATOM     13  C   UNL     1       0.907   9.412  20.461  0.00  0.00    +0.000 A 
ATOM     14  C   UNL     1       1.521   8.158  20.424  0.00  0.00    +0.000 A 
ENDBRANCH   4   8
BRANCH   7  15
ATOM     15  N   UNL     1       4.491   4.821  16.551  0.00  0.00    +0.000 N 
ATOM     16  C   UNL     1       5.418   4.207  15.741  0.00  0.00    +0.000 C 
ATOM     17  O   UNL     1       5.951   3.138  16.044  0.00  0.00    +0.000 OA
ATOM     18  H   UNL     1       4.190   5.770  16.356  0.00  0.00    +0.000 HD
BRANCH  16  19
ATOM     19  C   UNL     1       5.732   4.920  14.439  0.00  0.00    +0.000 C 
BRANCH  19  20
ATOM     20  C   UNL     1       5.844   3.990  13.253  0.00  0.00    +0.000 A 
ATOM     21  C   UNL     1       4.689   3.502  12.627  0.00  0.00    +0.000 A 
ATOM     22  C   UNL     1       4.783   2.669  11.509  0.00  0.00    +0.000 A 
ATOM     23  C   UNL     1       6.033   2.326  10.996  0.00  0.00    +0.000 A 
ATOM     24  C   UNL     1       7.188   2.811  11.602  0.00  0.00    +0.000 A 
ATOM     25  C   UNL     1       7.095   3.637  12.726  0.00  0.00    +0.000 A 
ENDBRANCH  19  20
ENDBRANCH  16  19
ENDBRANCH   7  15
TORSDOF 4
ENDMDL
MODEL 7
REMARK VINA RESULT:      -7.0      5.611      8.457
REMARK  Name = 
REMARK  5 active torsions:
REMARK  status: ('A' for Active; 'I' for Inactive)
REMARK    1  A    between atoms: C_1  and  C_2
REMARK    2  A    between atoms: C_4  and  C_5
REMARK    3  A    between atoms: C_14  and  N_15
REMARK    4  A    between atoms: C_16  and  C_18
REMARK    5  A    between atoms: C_18  and  C_19
REMARK                            x       y       z     vdW  Elec       q    Type
REMARK                         _______ _______ _______ _____ _____    ______ ____
ROOT
ATOM      1  C   UNL     1      -0.129  10.186  21.690  0.00  0.00    +0.000 C 
ATOM      2  C   UNL     1       0.868   9.873  20.586  0.00  0.00    +0.000 C 
ATOM      3  O   UNL     1       0.978   8.449  20.463  0.00  0.00    +0.000 OA
ATOM      4  C   UNL     1       1.996   8.102  19.526  0.00  0.00    +0.000 C 
ATOM      5  O   UNL     1       1.703   8.605  18.224  0.00  0.00    +0.000 OA
ATOM      6  C   UNL     1       1.614  10.031  18.231  0.00  0.00    +0.000 C 
ATOM      7  C   UNL     1       0.529  10.494  19.212  0.00  0.00    +0.000 C 
ENDROOT
BRANCH   4   8
ATOM      8  C   UNL     1       2.102   6.596  19.402  0.00  0.00    +0.000 A 
ATOM      9  C   UNL     1       2.468   5.983  18.192  0.00  0.00    +0.000 A 
ATOM     10  C   UNL     1       2.624   4.597  18.115  0.00  0.00    +0.000 A 
ATOM     11  C   UNL     1       2.421   3.814  19.248  0.00  0.00    +0.000 A 
ATOM     12 CL   UNL     1       2.637   2.109  19.159  0.00  0.00    +0.000 Cl
ATOM     13  C   UNL     1       2.054   4.402  20.456  0.00  0.00    +0.000 A 
ATOM     14  C   UNL     1       1.899   5.787  20.533  0.00  0.00    +0.000 A 
ENDBRANCH   4   8
BRANCH   7  15
ATOM     15  N   UNL     1      -0.795  10.095  18.718  0.00  0.00    +0.000 N 
ATOM     16  C   UNL     1      -1.623  10.987  18.077  0.00  0.00    +0.000 C 
ATOM     17  O   UNL     1      -1.290  12.154  17.860  0.00  0.00    +0.000 OA
ATOM     18  H   UNL     1      -1.152   9.196  19.026  0.00  0.00    +0.000 HD
BRANCH  16  19
ATOM     19  C   UNL     1      -2.969  10.442  17.639  0.00  0.00    +0.000 C 
BRANCH  19  20
ATOM     20  C   UNL     1      -4.122  11.375  17.928  0.00  0.00    +0.000 A 
ATOM     21  C   UNL     1      -4.277  11.932  19.206  0.00  0.00    +0.000 A 
ATOM     22  C   UNL     1      -5.320  12.823  19.472  0.00  0.00    +0.000 A 
ATOM     23  C   UNL     1      -6.211  13.178  18.461  0.00  0.00    +0.000 A 
ATOM     24  C   UNL     1      -6.064  12.641  17.186  0.00  0.00    +0.000 A 
ATOM     25  C   UNL     1      -5.026  11.742  16.920  0.00  0.00    +0.000 A 
ENDBRANCH  19  20
ENDBRANCH  16  19
ENDBRANCH   7  15
TORSDOF 4
ENDMDL
MODEL 8
REMARK VINA RESULT:      -7.0      4.227      5.445
REMARK  Name = 
REMARK  5 active torsions:
REMARK  status: ('A' for Active; 'I' for Inactive)
REMARK    1  A    between atoms: C_1  and  C_2
REMARK    2  A    between atoms: C_4  and  C_5
REMARK    3  A    between atoms: C_14  and  N_15
REMARK    4  A    between atoms: C_16  and  C_18
REMARK    5  A    between atoms: C_18  and  C_19
REMARK                            x       y       z     vdW  Elec       q    Type
REMARK                         _______ _______ _______ _____ _____    ______ ____
ROOT
ATOM      1  C   UNL     1       1.232   4.010  17.782  0.00  0.00    +0.000 C 
ATOM      2  C   UNL     1       2.688   3.756  18.137  0.00  0.00    +0.000 C 
ATOM      3  O   UNL     1       3.497   4.091  17.002  0.00  0.00    +0.000 OA
ATOM      4  C   UNL     1       4.863   3.751  17.239  0.00  0.00    +0.000 C 
ATOM      5  O   UNL     1       5.395   4.469  18.350  0.00  0.00    +0.000 OA
ATOM      6  C   UNL     1       4.679   4.169  19.549  0.00  0.00    +0.000 C 
ATOM      7  C   UNL     1       3.193   4.515  19.384  0.00  0.00    +0.000 C 
ENDROOT
BRANCH   4   8
ATOM      8  C   UNL     1       5.708   4.112  16.036  0.00  0.00    +0.000 A 
ATOM      9  C   UNL     1       5.422   3.603  14.758  0.00  0.00    +0.000 A 
ATOM     10  C   UNL     1       6.173   4.000  13.649  0.00  0.00    +0.000 A 
ATOM     11  C   UNL     1       7.214   4.911  13.808  0.00  0.00    +0.000 A 
ATOM     12 CL   UNL     1       8.123   5.418  12.438  0.00  0.00    +0.000 Cl
ATOM     13  C   UNL     1       7.516   5.424  15.067  0.00  0.00    +0.000 A 
ATOM     14  C   UNL     1       6.764   5.029  16.175  0.00  0.00    +0.000 A 
ENDBRANCH   4   8
BRANCH   7  15
ATOM     15  N   UNL     1       3.028   5.970  19.271  0.00  0.00    +0.000 N 
ATOM     16  C   UNL     1       2.061   6.642  19.981  0.00  0.00    +0.000 C 
ATOM     17  O   UNL     1       1.304   6.069  20.766  0.00  0.00    +0.000 OA
ATOM     18  H   UNL     1       3.526   6.434  18.518  0.00  0.00    +0.000 HD
BRANCH  16  19
ATOM     19  C   UNL     1       1.993   8.141  19.750  0.00  0.00    +0.000 C 
BRANCH  19  20
ATOM     20  C   UNL     1       1.094   8.862  20.726  0.00  0.00    +0.000 A 
ATOM     21  C   UNL     1       1.347   8.793  22.104  0.00  0.00    +0.000 A 
ATOM     22  C   UNL     1       0.541   9.485  23.011  0.00  0.00    +0.000 A 
ATOM     23  C   UNL     1      -0.519  10.264  22.552  0.00  0.00    +0.000 A 
ATOM     24  C   UNL     1      -0.778  10.348  21.187  0.00  0.00    +0.000 A 
ATOM     25  C   UNL     1       0.023   9.650  20.278  0.00  0.00    +0.000 A 
ENDBRANCH  19  20
ENDBRANCH  16  19
ENDBRANCH   7  15
TORSDOF 4
ENDMDL
MODEL 9
REMARK VINA RESULT:      -7.0      3.792      7.102
REMARK  Name = 
REMARK  5 active torsions:
REMARK  status: ('A' for Active; 'I' for Inactive)
REMARK    1  A    between atoms: C_1  and  C_2
REMARK    2  A    between atoms: C_4  and  C_5
REMARK    3  A    between atoms: C_14  and  N_15
REMARK    4  A    between atoms: C_16  and  C_18
REMARK    5  A    between atoms: C_18  and  C_19
REMARK                            x       y       z     vdW  Elec       q    Type
REMARK                         _______ _______ _______ _____ _____    ______ ____
ROOT
ATOM      1  C   UNL     1       6.589   5.508  19.183  0.00  0.00    +0.000 C 
ATOM      2  C   UNL     1       5.107   5.174  19.144  0.00  0.00    +0.000 C 
ATOM      3  O   UNL     1       4.365   6.401  19.129  0.00  0.00    +0.000 OA
ATOM      4  C   UNL     1       2.965   6.143  19.219  0.00  0.00    +0.000 C 
ATOM      5  O   UNL     1       2.502   5.369  18.115  0.00  0.00    +0.000 OA
ATOM      6  C   UNL     1       3.156   4.100  18.066  0.00  0.00    +0.000 C 
ATOM      7  C   UNL     1       4.675   4.283  17.958  0.00  0.00    +0.000 C 
ENDROOT
BRANCH   4   8
ATOM      8  C   UNL     1       2.191   7.445  19.198  0.00  0.00    +0.000 A 
ATOM      9  C   UNL     1       1.628   7.982  20.367  0.00  0.00    +0.000 A 
ATOM     10  C   UNL     1       0.975   9.217  20.340  0.00  0.00    +0.000 A 
ATOM     11  C   UNL     1       0.884   9.926  19.146  0.00  0.00    +0.000 A 
ATOM     12 CL   UNL     1       0.101  11.458  19.118  0.00  0.00    +0.000 Cl
ATOM     13  C   UNL     1       1.433   9.408  17.975  0.00  0.00    +0.000 A 
ATOM     14  C   UNL     1       2.086   8.175  18.002  0.00  0.00    +0.000 A 
ENDBRANCH   4   8
BRANCH   7  15
ATOM     15  N   UNL     1       5.016   4.867  16.654  0.00  0.00    +0.000 N 
ATOM     16  C   UNL     1       5.586   4.112  15.655  0.00  0.00    +0.000 C 
ATOM     17  O   UNL     1       5.813   2.908  15.789  0.00  0.00    +0.000 OA
ATOM     18  H   UNL     1       4.988   5.878  16.579  0.00  0.00    +0.000 HD
BRANCH  16  19
ATOM     19  C   UNL     1       5.903   4.851  14.368  0.00  0.00    +0.000 C 
BRANCH  19  20
ATOM     20  C   UNL     1       5.921   3.959  13.149  0.00  0.00    +0.000 A 
ATOM     21  C   UNL     1       7.141   3.542  12.596  0.00  0.00    +0.000 A 
ATOM     22  C   UNL     1       7.166   2.690  11.490  0.00  0.00    +0.000 A 
ATOM     23  C   UNL     1       5.974   2.233  10.931  0.00  0.00    +0.000 A 
ATOM     24  C   UNL     1       4.756   2.632  11.475  0.00  0.00    +0.000 A 
ATOM     25  C   UNL     1       4.729   3.492  12.576  0.00  0.00    +0.000 A 
ENDBRANCH  19  20
ENDBRANCH  16  19
ENDBRANCH   7  15
TORSDOF 4
ENDMDL
