MODEL 1
REMARK VINA RESULT:      -7.6      0.000      0.000
REMARK  Name = 
REMARK  5 active torsions:
REMARK  status: ('A' for Active; 'I' for Inactive)
REMARK    1  A    between atoms: C_2  and  C_5
REMARK    2  A    between atoms: N_3  and  O_4
REMARK    3  A    between atoms: C_8  and  N_9
REMARK    4  A    between atoms: C_10  and  C_12
REMARK    5  A    between atoms: C_12  and  C_13
REMARK                            x       y       z     vdW  Elec       q    Type
REMARK                         _______ _______ _______ _____ _____    ______ ____
ROOT
ATOM      1  N   UNL     1       3.248   6.316  18.631  0.00  0.00    +0.000 N 
ATOM      2  C   UNL     1       2.739   5.116  18.185  0.00  0.00    +0.000 C 
ATOM      3  O   UNL     1       1.621   4.926  17.716  0.00  0.00    +0.000 OA
ATOM      4  H   UNL     1       4.245   6.363  18.792  0.00  0.00    +0.000 HD
ENDROOT
BRANCH   1   8
ATOM      5  C   UNL     1       0.901   9.785  19.092  0.00  0.00    +0.000 A 
ATOM      6  C   UNL     1       1.075   8.928  20.178  0.00  0.00    +0.000 A 
ATOM      7  C   UNL     1       1.856   7.780  20.037  0.00  0.00    +0.000 A 
ATOM      8  C   UNL     1       2.483   7.485  18.819  0.00  0.00    +0.000 A 
ATOM      9  C   UNL     1       2.369   8.385  17.763  0.00  0.00    +0.000 A 
ATOM     10  C   UNL     1       1.562   9.523  17.885  0.00  0.00    +0.000 A 
BRANCH   5  12
ATOM     11  O   UNL     1      -0.303  11.378  20.368  0.00  0.00    +0.000 OA
ATOM     12  C   UNL     1       0.025  10.967  19.261  0.00  0.00    +0.000 C 
ATOM     13  N   UNL     1      -0.434  11.545  18.096  0.00  0.00    +0.000 N 
ATOM     14  H   UNL     1      -0.509  11.010  17.235  0.00  0.00    +0.000 HD
BRANCH  13  15
ATOM     15  O   UNL     1      -1.408  12.558  18.277  0.00  0.00    +0.000 OA
ATOM     16  H   UNL     1      -2.086  12.316  17.608  0.00  0.00    +0.000 HD
ENDBRANCH  13  15
ENDBRANCH   5  12
ENDBRANCH   1   8
BRANCH   2  17
ATOM     17  C   UNL     1       3.664   3.935  18.323  0.00  0.00    +0.000 C 
ATOM     18  C   UNL     1       3.756   3.360  19.735  0.00  0.00    +0.000 C 
ATOM     19  C   UNL     1       3.119   2.553  18.649  0.00  0.00    +0.000 C 
BRANCH  17  20
ATOM     20  C   UNL     1       4.925   4.071  17.471  0.00  0.00    +0.000 A 
ATOM     21  C   UNL     1       6.135   4.476  18.065  0.00  0.00    +0.000 A 
ATOM     22  C   UNL     1       7.214   4.912  17.295  0.00  0.00    +0.000 A 
ATOM     23  C   UNL     1       7.119   4.916  15.908  0.00  0.00    +0.000 A 
ATOM     24  C   UNL     1       5.968   4.433  15.292  0.00  0.00    +0.000 A 
ATOM     25  C   UNL     1       4.885   4.009  16.067  0.00  0.00    +0.000 A 
ENDBRANCH  17  20
ENDBRANCH   2  17
TORSDOF 5
ENDMDL
MODEL 2
REMARK VINA RESULT:      -7.6      0.317      1.073
REMARK  Name = 
REMARK  5 active torsions:
REMARK  status: ('A' for Active; 'I' for Inactive)
REMARK    1  A    between atoms: C_2  and  C_5
REMARK    2  A    between atoms: N_3  and  O_4
REMARK    3  A    between atoms: C_8  and  N_9
REMARK    4  A    between atoms: C_10  and  C_12
REMARK    5  A    between atoms: C_12  and  C_13
REMARK                            x       y       z     vdW  Elec       q    Type
REMARK                         _______ _______ _______ _____ _____    ______ ____
ROOT
ATOM      1  N   UNL     1       3.148   6.508  18.571  0.00  0.00    +0.000 N 
ATOM      2  C   UNL     1       2.675   5.276  18.175  0.00  0.00    +0.000 C 
ATOM      3  O   UNL     1       1.537   5.018  17.795  0.00  0.00    +0.000 OA
ATOM      4  H   UNL     1       4.150   6.612  18.655  0.00  0.00    +0.000 HD
ENDROOT
BRANCH   1   8
ATOM      5  C   UNL     1       0.651   9.847  19.180  0.00  0.00    +0.000 A 
ATOM      6  C   UNL     1       0.964   9.021  20.259  0.00  0.00    +0.000 A 
ATOM      7  C   UNL     1       1.795   7.917  20.069  0.00  0.00    +0.000 A 
ATOM      8  C   UNL     1       2.335   7.635  18.806  0.00  0.00    +0.000 A 
ATOM      9  C   UNL     1       2.082   8.507  17.751  0.00  0.00    +0.000 A 
ATOM     10  C   UNL     1       1.223   9.600  17.924  0.00  0.00    +0.000 A 
BRANCH   5  12
ATOM     11  O   UNL     1      -0.868  11.133  20.467  0.00  0.00    +0.000 OA
ATOM     12  C   UNL     1      -0.275  10.981  19.404  0.00  0.00    +0.000 C 
ATOM     13  N   UNL     1      -0.462  11.824  18.330  0.00  0.00    +0.000 N 
ATOM     14  H   UNL     1      -0.317  11.506  17.376  0.00  0.00    +0.000 HD
BRANCH  13  15
ATOM     15  O   UNL     1      -1.482  12.794  18.505  0.00  0.00    +0.000 OA
ATOM     16  H   UNL     1      -0.963  13.608  18.690  0.00  0.00    +0.000 HD
ENDBRANCH  13  15
ENDBRANCH   5  12
ENDBRANCH   1   8
BRANCH   2  17
ATOM     17  C   UNL     1       3.672   4.149  18.254  0.00  0.00    +0.000 C 
ATOM     18  C   UNL     1       3.765   3.474  19.620  0.00  0.00    +0.000 C 
ATOM     19  C   UNL     1       3.213   2.714  18.457  0.00  0.00    +0.000 C 
BRANCH  17  20
ATOM     20  C   UNL     1       4.943   4.432  17.454  0.00  0.00    +0.000 A 
ATOM     21  C   UNL     1       4.948   4.260  16.057  0.00  0.00    +0.000 A 
ATOM     22  C   UNL     1       6.141   4.199  15.335  0.00  0.00    +0.000 A 
ATOM     23  C   UNL     1       7.357   4.348  15.991  0.00  0.00    +0.000 A 
ATOM     24  C   UNL     1       7.377   4.613  17.359  0.00  0.00    +0.000 A 
ATOM     25  C   UNL     1       6.182   4.661  18.080  0.00  0.00    +0.000 A 
ENDBRANCH  17  20
ENDBRANCH   2  17
TORSDOF 5
ENDMDL
MODEL 3
REMARK VINA RESULT:      -7.6      0.923      1.729
REMARK  Name = 
REMARK  5 active torsions:
REMARK  status: ('A' for Active; 'I' for Inactive)
REMARK    1  A    between atoms: C_2  and  C_5
REMARK    2  A    between atoms: N_3  and  O_4
REMARK    3  A    between atoms: C_8  and  N_9
REMARK    4  A    between atoms: C_10  and  C_12
REMARK    5  A    between atoms: C_12  and  C_13
REMARK                            x       y       z     vdW  Elec       q    Type
REMARK                         _______ _______ _______ _____ _____    ______ ____
ROOT
ATOM      1  N   UNL     1       3.195   6.119  18.405  0.00  0.00    +0.000 N 
ATOM      2  C   UNL     1       2.668   4.886  18.090  0.00  0.00    +0.000 C 
ATOM      3  O   UNL     1       1.478   4.597  18.017  0.00  0.00    +0.000 OA
ATOM      4  H   UNL     1       4.179   6.262  18.221  0.00  0.00    +0.000 HD
ENDROOT
BRANCH   1   8
ATOM      5  C   UNL     1       1.026   9.363  19.996  0.00  0.00    +0.000 A 
ATOM      6  C   UNL     1       1.360   9.362  18.642  0.00  0.00    +0.000 A 
ATOM      7  C   UNL     1       2.072   8.289  18.105  0.00  0.00    +0.000 A 
ATOM      8  C   UNL     1       2.444   7.202  18.907  0.00  0.00    +0.000 A 
ATOM      9  C   UNL     1       2.040   7.173  20.239  0.00  0.00    +0.000 A 
ATOM     10  C   UNL     1       1.352   8.259  20.795  0.00  0.00    +0.000 A 
BRANCH   5  12
ATOM     11  O   UNL     1       0.703  11.120  21.553  0.00  0.00    +0.000 OA
ATOM     12  C   UNL     1       0.315  10.540  20.545  0.00  0.00    +0.000 C 
ATOM     13  N   UNL     1      -0.834  10.911  19.879  0.00  0.00    +0.000 N 
ATOM     14  H   UNL     1      -1.366  10.243  19.330  0.00  0.00    +0.000 HD
BRANCH  13  15
ATOM     15  O   UNL     1      -1.594  11.922  20.520  0.00  0.00    +0.000 OA
ATOM     16  H   UNL     1      -2.516  11.630  20.346  0.00  0.00    +0.000 HD
ENDBRANCH  13  15
ENDBRANCH   5  12
ENDBRANCH   1   8
BRANCH   2  17
ATOM     17  C   UNL     1       3.681   3.800  17.840  0.00  0.00    +0.000 C 
ATOM     18  C   UNL     1       3.857   2.815  18.993  0.00  0.00    +0.000 C 
ATOM     19  C   UNL     1       3.251   2.347  17.709  0.00  0.00    +0.000 C 
BRANCH  17  20
ATOM     20  C   UNL     1       4.903   4.300  17.070  0.00  0.00    +0.000 A 
ATOM     21  C   UNL     1       4.868   4.369  15.664  0.00  0.00    +0.000 A 
ATOM     22  C   UNL     1       6.036   4.513  14.913  0.00  0.00    +0.000 A 
ATOM     23  C   UNL     1       7.263   4.631  15.555  0.00  0.00    +0.000 A 
ATOM     24  C   UNL     1       7.316   4.659  16.947  0.00  0.00    +0.000 A 
ATOM     25  C   UNL     1       6.146   4.502  17.695  0.00  0.00    +0.000 A 
ENDBRANCH  17  20
ENDBRANCH   2  17
TORSDOF 5
ENDMDL
MODEL 4
REMARK VINA RESULT:      -7.5      0.210      1.050
REMARK  Name = 
REMARK  5 active torsions:
REMARK  status: ('A' for Active; 'I' for Inactive)
REMARK    1  A    between atoms: C_2  and  C_5
REMARK    2  A    between atoms: N_3  and  O_4
REMARK    3  A    between atoms: C_8  and  N_9
REMARK    4  A    between atoms: C_10  and  C_12
REMARK    5  A    between atoms: C_12  and  C_13
REMARK                            x       y       z     vdW  Elec       q    Type
REMARK                         _______ _______ _______ _____ _____    ______ ____
ROOT
ATOM      1  N   UNL     1       3.172   6.340  18.668  0.00  0.00    +0.000 N 
ATOM      2  C   UNL     1       2.673   5.137  18.219  0.00  0.00    +0.000 C 
ATOM      3  O   UNL     1       1.578   4.949  17.698  0.00  0.00    +0.000 OA
ATOM      4  H   UNL     1       4.161   6.380  18.878  0.00  0.00    +0.000 HD
ENDROOT
BRANCH   1   8
ATOM      5  C   UNL     1       0.962   9.896  19.143  0.00  0.00    +0.000 A 
ATOM      6  C   UNL     1       1.494   9.583  17.893  0.00  0.00    +0.000 A 
ATOM      7  C   UNL     1       2.222   8.404  17.724  0.00  0.00    +0.000 A 
ATOM      8  C   UNL     1       2.412   7.520  18.795  0.00  0.00    +0.000 A 
ATOM      9  C   UNL     1       1.813   7.800  20.020  0.00  0.00    +0.000 A 
ATOM     10  C   UNL     1       1.107   8.995  20.207  0.00  0.00    +0.000 A 
BRANCH   5  12
ATOM     11  O   UNL     1       0.147  11.742  20.386  0.00  0.00    +0.000 OA
ATOM     12  C   UNL     1       0.239  11.178  19.301  0.00  0.00    +0.000 C 
ATOM     13  N   UNL     1      -0.362  11.672  18.163  0.00  0.00    +0.000 N 
ATOM     14  H   UNL     1      -0.635  11.058  17.400  0.00  0.00    +0.000 HD
BRANCH  13  15
ATOM     15  O   UNL     1      -1.195  12.800  18.370  0.00  0.00    +0.000 OA
ATOM     16  H   UNL     1      -0.722  13.277  19.088  0.00  0.00    +0.000 HD
ENDBRANCH  13  15
ENDBRANCH   5  12
ENDBRANCH   1   8
BRANCH   2  17
ATOM     17  C   UNL     1       3.576   3.949  18.427  0.00  0.00    +0.000 C 
ATOM     18  C   UNL     1       3.607   3.414  19.856  0.00  0.00    +0.000 C 
ATOM     19  C   UNL     1       3.002   2.583  18.770  0.00  0.00    +0.000 C 
BRANCH  17  20
ATOM     20  C   UNL     1       4.870   4.045  17.620  0.00  0.00    +0.000 A 
ATOM     21  C   UNL     1       6.060   4.465  18.246  0.00  0.00    +0.000 A 
ATOM     22  C   UNL     1       7.171   4.866  17.503  0.00  0.00    +0.000 A 
ATOM     23  C   UNL     1       7.131   4.818  16.114  0.00  0.00    +0.000 A 
ATOM     24  C   UNL     1       6.000   4.319  15.472  0.00  0.00    +0.000 A 
ATOM     25  C   UNL     1       4.885   3.930  16.219  0.00  0.00    +0.000 A 
ENDBRANCH  17  20
ENDBRANCH   2  17
TORSDOF 5
ENDMDL
MODEL 5
REMARK VINA RESULT:      -7.5      3.206      7.380
REMARK  Name = 
REMARK  5 active torsions:
REMARK  status: ('A' for Active; 'I' for Inactive)
REMARK    1  A    between atoms: C_2  and  C_5
REMARK    2  A    between atoms: N_3  and  O_4
REMARK    3  A    between atoms: C_8  and  N_9
REMARK    4  A    between atoms: C_10  and  C_12
REMARK    5  A    between atoms: C_12  and  C_13
REMARK                            x       y       z     vdW  Elec       q    Type
REMARK                         _______ _______ _______ _____ _____    ______ ____
ROOT
ATOM      1  N   UNL     1       4.044   5.257  18.500  0.00  0.00    +0.000 N 
ATOM      2  C   UNL     1       2.680   5.094  18.601  0.00  0.00    +0.000 C 
ATOM      3  O   UNL     1       1.934   4.628  17.746  0.00  0.00    +0.000 OA
ATOM      4  H   UNL     1       4.550   5.455  19.352  0.00  0.00    +0.000 HD
ENDROOT
BRANCH   1   8
ATOM      5  C   UNL     1       6.167   4.719  14.899  0.00  0.00    +0.000 A 
ATOM      6  C   UNL     1       5.704   5.990  15.237  0.00  0.00    +0.000 A 
ATOM      7  C   UNL     1       5.006   6.180  16.430  0.00  0.00    +0.000 A 
ATOM      8  C   UNL     1       4.777   5.109  17.304  0.00  0.00    +0.000 A 
ATOM      9  C   UNL     1       5.309   3.859  16.999  0.00  0.00    +0.000 A 
ATOM     10  C   UNL     1       5.984   3.652  15.789  0.00  0.00    +0.000 A 
BRANCH   5  12
ATOM     11  O   UNL     1       7.667   5.363  13.182  0.00  0.00    +0.000 OA
ATOM     12  C   UNL     1       6.859   4.542  13.602  0.00  0.00    +0.000 C 
ATOM     13  N   UNL     1       6.502   3.424  12.879  0.00  0.00    +0.000 N 
ATOM     14  H   UNL     1       5.596   2.981  13.004  0.00  0.00    +0.000 HD
BRANCH  13  15
ATOM     15  O   UNL     1       7.039   3.365  11.569  0.00  0.00    +0.000 OA
ATOM     16  H   UNL     1       8.007   3.359  11.742  0.00  0.00    +0.000 HD
ENDBRANCH  13  15
ENDBRANCH   5  12
ENDBRANCH   1   8
BRANCH   2  17
ATOM     17  C   UNL     1       2.071   5.570  19.894  0.00  0.00    +0.000 C 
ATOM     18  C   UNL     1       1.004   4.646  20.475  0.00  0.00    +0.000 C 
ATOM     19  C   UNL     1       2.305   4.812  21.191  0.00  0.00    +0.000 C 
BRANCH  17  20
ATOM     20  C   UNL     1       1.870   7.085  19.928  0.00  0.00    +0.000 A 
ATOM     21  C   UNL     1       1.329   7.697  21.075  0.00  0.00    +0.000 A 
ATOM     22  C   UNL     1       0.840   9.004  21.040  0.00  0.00    +0.000 A 
ATOM     23  C   UNL     1       0.919   9.743  19.866  0.00  0.00    +0.000 A 
ATOM     24  C   UNL     1       1.533   9.194  18.743  0.00  0.00    +0.000 A 
ATOM     25  C   UNL     1       2.010   7.881  18.777  0.00  0.00    +0.000 A 
ENDBRANCH  17  20
ENDBRANCH   2  17
TORSDOF 5
ENDMDL
MODEL 6
REMARK VINA RESULT:      -7.5      1.132      1.721
REMARK  Name = 
REMARK  5 active torsions:
REMARK  status: ('A' for Active; 'I' for Inactive)
REMARK    1  A    between atoms: C_2  and  C_5
REMARK    2  A    between atoms: N_3  and  O_4
REMARK    3  A    between atoms: C_8  and  N_9
REMARK    4  A    between atoms: C_10  and  C_12
REMARK    5  A    between atoms: C_12  and  C_13
REMARK                            x       y       z     vdW  Elec       q    Type
REMARK                         _______ _______ _______ _____ _____    ______ ____
ROOT
ATOM      1  N   UNL     1       3.171   6.050  18.397  0.00  0.00    +0.000 N 
ATOM      2  C   UNL     1       2.616   4.815  18.140  0.00  0.00    +0.000 C 
ATOM      3  O   UNL     1       1.423   4.531  18.161  0.00  0.00    +0.000 OA
ATOM      4  H   UNL     1       4.139   6.184  18.138  0.00  0.00    +0.000 HD
ENDROOT
BRANCH   1   8
ATOM      5  C   UNL     1       0.980   9.310  19.922  0.00  0.00    +0.000 A 
ATOM      6  C   UNL     1       1.345   8.271  20.777  0.00  0.00    +0.000 A 
ATOM      7  C   UNL     1       2.076   7.190  20.283  0.00  0.00    +0.000 A 
ATOM      8  C   UNL     1       2.464   7.143  18.937  0.00  0.00    +0.000 A 
ATOM      9  C   UNL     1       2.164   8.219  18.107  0.00  0.00    +0.000 A 
ATOM     10  C   UNL     1       1.403   9.294  18.586  0.00  0.00    +0.000 A 
BRANCH   5  12
ATOM     11  O   UNL     1      -0.598  11.070  19.759  0.00  0.00    +0.000 OA
ATOM     12  C   UNL     1       0.161  10.417  20.466  0.00  0.00    +0.000 C 
ATOM     13  N   UNL     1       0.341  10.694  21.805  0.00  0.00    +0.000 N 
ATOM     14  H   UNL     1       1.206  10.459  22.282  0.00  0.00    +0.000 HD
BRANCH  13  15
ATOM     15  O   UNL     1      -0.315  11.864  22.264  0.00  0.00    +0.000 OA
ATOM     16  H   UNL     1       0.436  12.405  22.595  0.00  0.00    +0.000 HD
ENDBRANCH  13  15
ENDBRANCH   5  12
ENDBRANCH   1   8
BRANCH   2  17
ATOM     17  C   UNL     1       3.603   3.719  17.831  0.00  0.00    +0.000 C 
ATOM     18  C   UNL     1       3.741   2.659  18.921  0.00  0.00    +0.000 C 
ATOM     19  C   UNL     1       3.136   2.290  17.604  0.00  0.00    +0.000 C 
BRANCH  17  20
ATOM     20  C   UNL     1       4.846   4.234  17.105  0.00  0.00    +0.000 A 
ATOM     21  C   UNL     1       4.871   4.277  15.698  0.00  0.00    +0.000 A 
ATOM     22  C   UNL     1       6.067   4.435  14.996  0.00  0.00    +0.000 A 
ATOM     23  C   UNL     1       7.262   4.593  15.689  0.00  0.00    +0.000 A 
ATOM     24  C   UNL     1       7.253   4.647  17.080  0.00  0.00    +0.000 A 
ATOM     25  C   UNL     1       6.055   4.476  17.780  0.00  0.00    +0.000 A 
ENDBRANCH  17  20
ENDBRANCH   2  17
TORSDOF 5
ENDMDL
MODEL 7
REMARK VINA RESULT:      -7.5      3.212      7.317
REMARK  Name = 
REMARK  5 active torsions:
REMARK  status: ('A' for Active; 'I' for Inactive)
REMARK    1  A    between atoms: C_2  and  C_5
REMARK    2  A    between atoms: N_3  and  O_4
REMARK    3  A    between atoms: C_8  and  N_9
REMARK    4  A    between atoms: C_10  and  C_12
REMARK    5  A    between atoms: C_12  and  C_13
REMARK                            x       y       z     vdW  Elec       q    Type
REMARK                         _______ _______ _______ _____ _____    ______ ____
ROOT
ATOM      1  N   UNL     1       3.986   5.217  18.511  0.00  0.00    +0.000 N 
ATOM      2  C   UNL     1       2.622   5.063  18.634  0.00  0.00    +0.000 C 
ATOM      3  O   UNL     1       1.858   4.607  17.789  0.00  0.00    +0.000 OA
ATOM      4  H   UNL     1       4.507   5.405  19.356  0.00  0.00    +0.000 HD
ENDROOT
BRANCH   1   8
ATOM      5  C   UNL     1       6.182   4.867  14.932  0.00  0.00    +0.000 A 
ATOM      6  C   UNL     1       5.916   3.724  15.685  0.00  0.00    +0.000 A 
ATOM      7  C   UNL     1       5.183   3.829  16.868  0.00  0.00    +0.000 A 
ATOM      8  C   UNL     1       4.697   5.069  17.302  0.00  0.00    +0.000 A 
ATOM      9  C   UNL     1       4.900   6.193  16.506  0.00  0.00    +0.000 A 
ATOM     10  C   UNL     1       5.660   6.104  15.333  0.00  0.00    +0.000 A 
BRANCH   5  12
ATOM     11  O   UNL     1       7.941   5.484  13.468  0.00  0.00    +0.000 OA
ATOM     12  C   UNL     1       7.006   4.728  13.709  0.00  0.00    +0.000 C 
ATOM     13  N   UNL     1       6.624   3.729  12.839  0.00  0.00    +0.000 N 
ATOM     14  H   UNL     1       5.669   3.385  12.815  0.00  0.00    +0.000 HD
BRANCH  13  15
ATOM     15  O   UNL     1       7.309   3.727  11.597  0.00  0.00    +0.000 OA
ATOM     16  H   UNL     1       7.945   4.467  11.711  0.00  0.00    +0.000 HD
ENDBRANCH  13  15
ENDBRANCH   5  12
ENDBRANCH   1   8
BRANCH   2  17
ATOM     17  C   UNL     1       2.039   5.536  19.940  0.00  0.00    +0.000 C 
ATOM     18  C   UNL     1       0.972   4.618  20.532  0.00  0.00    +0.000 C 
ATOM     19  C   UNL     1       2.286   4.766  21.228  0.00  0.00    +0.000 C 
BRANCH  17  20
ATOM     20  C   UNL     1       1.853   7.052  19.988  0.00  0.00    +0.000 A 
ATOM     21  C   UNL     1       1.279   7.655  21.123  0.00  0.00    +0.000 A 
ATOM     22  C   UNL     1       0.807   8.968  21.090  0.00  0.00    +0.000 A 
ATOM     23  C   UNL     1       0.934   9.721  19.929  0.00  0.00    +0.000 A 
ATOM     24  C   UNL     1       1.582   9.180  18.820  0.00  0.00    +0.000 A 
ATOM     25  C   UNL     1       2.042   7.861  18.854  0.00  0.00    +0.000 A 
ENDBRANCH  17  20
ENDBRANCH   2  17
TORSDOF 5
ENDMDL
MODEL 8
REMARK VINA RESULT:      -7.2      1.307      1.875
REMARK  Name = 
REMARK  5 active torsions:
REMARK  status: ('A' for Active; 'I' for Inactive)
REMARK    1  A    between atoms: C_2  and  C_5
REMARK    2  A    between atoms: N_3  and  O_4
REMARK    3  A    between atoms: C_8  and  N_9
REMARK    4  A    between atoms: C_10  and  C_12
REMARK    5  A    between atoms: C_12  and  C_13
REMARK                            x       y       z     vdW  Elec       q    Type
REMARK                         _______ _______ _______ _____ _____    ______ ____
ROOT
ATOM      1  N   UNL     1       3.119   5.811  18.504  0.00  0.00    +0.000 N 
ATOM      2  C   UNL     1       2.567   4.564  18.306  0.00  0.00    +0.000 C 
ATOM      3  O   UNL     1       1.378   4.271  18.377  0.00  0.00    +0.000 OA
ATOM      4  H   UNL     1       4.076   5.944  18.208  0.00  0.00    +0.000 HD
ENDROOT
BRANCH   1   8
ATOM      5  C   UNL     1       1.107   9.112  20.180  0.00  0.00    +0.000 A 
ATOM      6  C   UNL     1       1.480   9.148  18.837  0.00  0.00    +0.000 A 
ATOM      7  C   UNL     1       2.140   8.057  18.271  0.00  0.00    +0.000 A 
ATOM      8  C   UNL     1       2.421   6.915  19.034  0.00  0.00    +0.000 A 
ATOM      9  C   UNL     1       1.977   6.854  20.352  0.00  0.00    +0.000 A 
ATOM     10  C   UNL     1       1.341   7.957  20.938  0.00  0.00    +0.000 A 
BRANCH   5  12
ATOM     11  O   UNL     1       0.216  11.307  20.094  0.00  0.00    +0.000 OA
ATOM     12  C   UNL     1       0.453  10.307  20.763  0.00  0.00    +0.000 C 
ATOM     13  N   UNL     1       0.173  10.239  22.111  0.00  0.00    +0.000 N 
ATOM     14  H   UNL     1       0.699   9.631  22.731  0.00  0.00    +0.000 HD
BRANCH  13  15
ATOM     15  O   UNL     1      -0.287  11.451  22.685  0.00  0.00    +0.000 OA
ATOM     16  H   UNL     1      -0.169  11.283  23.646  0.00  0.00    +0.000 HD
ENDBRANCH  13  15
ENDBRANCH   5  12
ENDBRANCH   1   8
BRANCH   2  17
ATOM     17  C   UNL     1       3.553   3.467  17.998  0.00  0.00    +0.000 C 
ATOM     18  C   UNL     1       3.651   2.380  19.066  0.00  0.00    +0.000 C 
ATOM     19  C   UNL     1       3.080   2.048  17.724  0.00  0.00    +0.000 C 
BRANCH  17  20
ATOM     20  C   UNL     1       4.819   3.988  17.320  0.00  0.00    +0.000 A 
ATOM     21  C   UNL     1       5.912   4.412  18.100  0.00  0.00    +0.000 A 
ATOM     22  C   UNL     1       6.945   5.173  17.553  0.00  0.00    +0.000 A 
ATOM     23  C   UNL     1       6.928   5.496  16.201  0.00  0.00    +0.000 A 
ATOM     24  C   UNL     1       5.907   5.011  15.387  0.00  0.00    +0.000 A 
ATOM     25  C   UNL     1       4.868   4.259  15.941  0.00  0.00    +0.000 A 
ENDBRANCH  17  20
ENDBRANCH   2  17
TORSDOF 5
ENDMDL
MODEL 9
REMARK VINA RESULT:      -7.1      1.248      3.368
REMARK  Name = 
REMARK  5 active torsions:
REMARK  status: ('A' for Active; 'I' for Inactive)
REMARK    1  A    between atoms: C_2  and  C_5
REMARK    2  A    between atoms: N_3  and  O_4
REMARK    3  A    between atoms: C_8  and  N_9
REMARK    4  A    between atoms: C_10  and  C_12
REMARK    5  A    between atoms: C_12  and  C_13
REMARK                            x       y       z     vdW  Elec       q    Type
REMARK                         _______ _______ _______ _____ _____    ______ ____
ROOT
ATOM      1  N   UNL     1       2.958   6.539  19.064  0.00  0.00    +0.000 N 
ATOM      2  C   UNL     1       3.830   6.169  18.063  0.00  0.00    +0.000 C 
ATOM      3  O   UNL     1       4.211   6.868  17.130  0.00  0.00    +0.000 OA
ATOM      4  H   UNL     1       2.902   5.936  19.874  0.00  0.00    +0.000 HD
ENDROOT
BRANCH   1   8
ATOM      5  C   UNL     1       0.737  10.119  19.132  0.00  0.00    +0.000 A 
ATOM      6  C   UNL     1       1.257   9.659  17.923  0.00  0.00    +0.000 A 
ATOM      7  C   UNL     1       1.988   8.472  17.889  0.00  0.00    +0.000 A 
ATOM      8  C   UNL     1       2.194   7.723  19.056  0.00  0.00    +0.000 A 
ATOM      9  C   UNL     1       1.606   8.146  20.245  0.00  0.00    +0.000 A 
ATOM     10  C   UNL     1       0.897   9.353  20.295  0.00  0.00    +0.000 A 
BRANCH   5  12
ATOM     11  O   UNL     1      -0.158  12.051  20.173  0.00  0.00    +0.000 OA
ATOM     12  C   UNL     1       0.009  11.408  19.142  0.00  0.00    +0.000 C 
ATOM     13  N   UNL     1      -0.507  11.815  17.930  0.00  0.00    +0.000 N 
ATOM     14  H   UNL     1      -0.727  11.147  17.198  0.00  0.00    +0.000 HD
BRANCH  13  15
ATOM     15  O   UNL     1      -1.347  12.955  17.994  0.00  0.00    +0.000 OA
ATOM     16  H   UNL     1      -1.619  12.960  18.938  0.00  0.00    +0.000 HD
ENDBRANCH  13  15
ENDBRANCH   5  12
ENDBRANCH   1   8
BRANCH   2  17
ATOM     17  C   UNL     1       4.326   4.748  18.138  0.00  0.00    +0.000 C 
ATOM     18  C   UNL     1       5.196   4.314  16.960  0.00  0.00    +0.000 C 
ATOM     19  C   UNL     1       5.806   4.448  18.318  0.00  0.00    +0.000 C 
BRANCH  17  20
ATOM     20  C   UNL     1       3.284   3.789  18.711  0.00  0.00    +0.000 A 
ATOM     21  C   UNL     1       2.102   3.523  17.993  0.00  0.00    +0.000 A 
ATOM     22  C   UNL     1       1.001   2.919  18.601  0.00  0.00    +0.000 A 
ATOM     23  C   UNL     1       1.072   2.531  19.934  0.00  0.00    +0.000 A 
ATOM     24  C   UNL     1       2.260   2.697  20.641  0.00  0.00    +0.000 A 
ATOM     25  C   UNL     1       3.356   3.314  20.033  0.00  0.00    +0.000 A 
ENDBRANCH  17  20
ENDBRANCH   2  17
TORSDOF 5
ENDMDL
