MODEL 1
REMARK VINA RESULT:      -8.3      0.000      0.000
REMARK  Name = 
REMARK  4 active torsions:
REMARK  status: ('A' for Active; 'I' for Inactive)
REMARK    1  A    between atoms: C_2  and  C_11
REMARK    2  A    between atoms: N_3  and  C_4
REMARK    3  A    between atoms: C_4  and  C_5
REMARK    4  A    between atoms: C_13  and  C_14
REMARK                            x       y       z     vdW  Elec       q    Type
REMARK                         _______ _______ _______ _____ _____    ______ ____
ROOT
ATOM      1  C   UNL     1       6.189   4.875  17.705  0.00  0.00    +0.000 A 
ATOM      2  C   UNL     1       6.119   4.281  16.459  0.00  0.00    +0.000 A 
ATOM      3  C   UNL     1       6.838   5.034  15.468  0.00  0.00    +0.000 A 
ATOM      4  N   UNL     1       7.474   6.108  15.948  0.00  0.00    +0.000 NA
ATOM      5  S   UNL     1       7.169   6.258  17.565  0.00  0.00    +0.000 S 
ENDROOT
BRANCH   3   6
ATOM      6  C   UNL     1       6.904   4.711  14.037  0.00  0.00    +0.000 A 
ATOM      7  C   UNL     1       7.766   5.422  13.183  0.00  0.00    +0.000 A 
ATOM      8  C   UNL     1       7.841   5.112  11.823  0.00  0.00    +0.000 A 
ATOM      9  C   UNL     1       7.052   4.088  11.303  0.00  0.00    +0.000 A 
ATOM     10  C   UNL     1       6.202   3.383  12.146  0.00  0.00    +0.000 A 
ATOM     11  F   UNL     1       5.447   2.398  11.641  0.00  0.00    +0.000 F 
ATOM     12  C   UNL     1       6.121   3.680  13.502  0.00  0.00    +0.000 A 
ENDBRANCH   3   6
BRANCH   1  14
ATOM     13  O   UNL     1       5.340   5.204  19.862  0.00  0.00    +0.000 OA
ATOM     14  C   UNL     1       5.571   4.429  18.936  0.00  0.00    +0.000 C 
ATOM     15  N   UNL     1       5.264   3.088  19.021  0.00  0.00    +0.000 N 
ATOM     16  H   UNL     1       5.575   2.465  18.290  0.00  0.00    +0.000 HD
BRANCH  15  17
ATOM     17  C   UNL     1       4.711   2.508  20.223  0.00  0.00    +0.000 C 
BRANCH  17  18
ATOM     18  C   UNL     1       3.211   2.627  20.261  0.00  0.00    +0.000 A 
ATOM     19  C   UNL     1       2.465   2.562  19.074  0.00  0.00    +0.000 A 
ATOM     20  C   UNL     1       1.073   2.669  19.100  0.00  0.00    +0.000 A 
ATOM     21  C   UNL     1       0.412   2.850  20.313  0.00  0.00    +0.000 A 
ATOM     22  C   UNL     1       1.142   2.928  21.498  0.00  0.00    +0.000 A 
ATOM     23  C   UNL     1       2.534   2.823  21.473  0.00  0.00    +0.000 A 
ENDBRANCH  17  18
ENDBRANCH  15  17
ENDBRANCH   1  14
TORSDOF 4
ENDMDL
MODEL 2
REMARK VINA RESULT:      -8.3      1.403      1.836
REMARK  Name = 
REMARK  4 active torsions:
REMARK  status: ('A' for Active; 'I' for Inactive)
REMARK    1  A    between atoms: C_2  and  C_11
REMARK    2  A    between atoms: N_3  and  C_4
REMARK    3  A    between atoms: C_4  and  C_5
REMARK    4  A    between atoms: C_13  and  C_14
REMARK                            x       y       z     vdW  Elec       q    Type
REMARK                         _______ _______ _______ _____ _____    ______ ____
ROOT
ATOM      1  C   UNL     1       5.730   5.722  17.573  0.00  0.00    +0.000 A 
ATOM      2  C   UNL     1       5.546   5.059  16.374  0.00  0.00    +0.000 A 
ATOM      3  C   UNL     1       6.637   5.288  15.466  0.00  0.00    +0.000 A 
ATOM      4  N   UNL     1       7.626   6.032  15.971  0.00  0.00    +0.000 NA
ATOM      5  S   UNL     1       7.236   6.510  17.504  0.00  0.00    +0.000 S 
ENDROOT
BRANCH   3   6
ATOM      6  C   UNL     1       6.716   4.784  14.089  0.00  0.00    +0.000 A 
ATOM      7  C   UNL     1       7.645   5.325  13.182  0.00  0.00    +0.000 A 
ATOM      8  C   UNL     1       7.733   4.841  11.875  0.00  0.00    +0.000 A 
ATOM      9  C   UNL     1       6.891   3.813  11.460  0.00  0.00    +0.000 A 
ATOM     10  C   UNL     1       5.974   3.275  12.355  0.00  0.00    +0.000 A 
ATOM     11  F   UNL     1       5.167   2.285  11.952  0.00  0.00    +0.000 F 
ATOM     12  C   UNL     1       5.879   3.745  13.661  0.00  0.00    +0.000 A 
ENDBRANCH   3   6
BRANCH   1  14
ATOM     13  O   UNL     1       5.188   5.345  19.819  0.00  0.00    +0.000 OA
ATOM     14  C   UNL     1       4.839   5.755  18.713  0.00  0.00    +0.000 C 
ATOM     15  N   UNL     1       3.575   6.258  18.494  0.00  0.00    +0.000 N 
ATOM     16  H   UNL     1       3.288   6.473  17.550  0.00  0.00    +0.000 HD
BRANCH  15  17
ATOM     17  C   UNL     1       2.572   6.276  19.534  0.00  0.00    +0.000 C 
BRANCH  17  18
ATOM     18  C   UNL     1       2.030   4.899  19.810  0.00  0.00    +0.000 A 
ATOM     19  C   UNL     1       2.076   4.366  21.107  0.00  0.00    +0.000 A 
ATOM     20  C   UNL     1       1.574   3.090  21.371  0.00  0.00    +0.000 A 
ATOM     21  C   UNL     1       1.026   2.331  20.341  0.00  0.00    +0.000 A 
ATOM     22  C   UNL     1       0.983   2.844  19.045  0.00  0.00    +0.000 A 
ATOM     23  C   UNL     1       1.488   4.119  18.779  0.00  0.00    +0.000 A 
ENDBRANCH  17  18
ENDBRANCH  15  17
ENDBRANCH   1  14
TORSDOF 4
ENDMDL
MODEL 3
REMARK VINA RESULT:      -8.3      1.392      1.522
REMARK  Name = 
REMARK  4 active torsions:
REMARK  status: ('A' for Active; 'I' for Inactive)
REMARK    1  A    between atoms: C_2  and  C_11
REMARK    2  A    between atoms: N_3  and  C_4
REMARK    3  A    between atoms: C_4  and  C_5
REMARK    4  A    between atoms: C_13  and  C_14
REMARK                            x       y       z     vdW  Elec       q    Type
REMARK                         _______ _______ _______ _____ _____    ______ ____
ROOT
ATOM      1  C   UNL     1       5.735   5.726  17.522  0.00  0.00    +0.000 A 
ATOM      2  C   UNL     1       5.559   5.044  16.334  0.00  0.00    +0.000 A 
ATOM      3  C   UNL     1       6.635   5.292  15.413  0.00  0.00    +0.000 A 
ATOM      4  N   UNL     1       7.608   6.070  15.900  0.00  0.00    +0.000 NA
ATOM      5  S   UNL     1       7.218   6.555  17.431  0.00  0.00    +0.000 S 
ENDROOT
BRANCH   3   6
ATOM      6  C   UNL     1       6.717   4.774  14.041  0.00  0.00    +0.000 A 
ATOM      7  C   UNL     1       7.681   5.270  13.146  0.00  0.00    +0.000 A 
ATOM      8  C   UNL     1       7.771   4.773  11.844  0.00  0.00    +0.000 A 
ATOM      9  C   UNL     1       6.896   3.774  11.423  0.00  0.00    +0.000 A 
ATOM     10  C   UNL     1       5.945   3.281  12.308  0.00  0.00    +0.000 A 
ATOM     11  F   UNL     1       5.106   2.319  11.899  0.00  0.00    +0.000 F 
ATOM     12  C   UNL     1       5.848   3.765  13.607  0.00  0.00    +0.000 A 
ENDBRANCH   3   6
BRANCH   1  14
ATOM     13  O   UNL     1       5.220   5.352  19.776  0.00  0.00    +0.000 OA
ATOM     14  C   UNL     1       4.853   5.748  18.670  0.00  0.00    +0.000 C 
ATOM     15  N   UNL     1       3.578   6.225  18.459  0.00  0.00    +0.000 N 
ATOM     16  H   UNL     1       3.279   6.430  17.516  0.00  0.00    +0.000 HD
BRANCH  15  17
ATOM     17  C   UNL     1       2.584   6.230  19.508  0.00  0.00    +0.000 C 
BRANCH  17  18
ATOM     18  C   UNL     1       1.998   4.861  19.726  0.00  0.00    +0.000 A 
ATOM     19  C   UNL     1       1.545   4.101  18.636  0.00  0.00    +0.000 A 
ATOM     20  C   UNL     1       1.002   2.830  18.831  0.00  0.00    +0.000 A 
ATOM     21  C   UNL     1       0.900   2.306  20.117  0.00  0.00    +0.000 A 
ATOM     22  C   UNL     1       1.336   3.054  21.209  0.00  0.00    +0.000 A 
ATOM     23  C   UNL     1       1.877   4.327  21.017  0.00  0.00    +0.000 A 
ENDBRANCH  17  18
ENDBRANCH  15  17
ENDBRANCH   1  14
TORSDOF 4
ENDMDL
MODEL 4
REMARK VINA RESULT:      -8.3      0.142      1.037
REMARK  Name = 
REMARK  4 active torsions:
REMARK  status: ('A' for Active; 'I' for Inactive)
REMARK    1  A    between atoms: C_2  and  C_11
REMARK    2  A    between atoms: N_3  and  C_4
REMARK    3  A    between atoms: C_4  and  C_5
REMARK    4  A    between atoms: C_13  and  C_14
REMARK                            x       y       z     vdW  Elec       q    Type
REMARK                         _______ _______ _______ _____ _____    ______ ____
ROOT
ATOM      1  C   UNL     1       6.092   4.907  17.777  0.00  0.00    +0.000 A 
ATOM      2  C   UNL     1       6.033   4.332  16.521  0.00  0.00    +0.000 A 
ATOM      3  C   UNL     1       6.818   5.062  15.563  0.00  0.00    +0.000 A 
ATOM      4  N   UNL     1       7.489   6.099  16.078  0.00  0.00    +0.000 NA
ATOM      5  S   UNL     1       7.140   6.243  17.687  0.00  0.00    +0.000 S 
ENDROOT
BRANCH   3   6
ATOM      6  C   UNL     1       6.914   4.754  14.131  0.00  0.00    +0.000 A 
ATOM      7  C   UNL     1       7.773   5.491  13.297  0.00  0.00    +0.000 A 
ATOM      8  C   UNL     1       7.877   5.196  11.937  0.00  0.00    +0.000 A 
ATOM      9  C   UNL     1       7.119   4.160  11.394  0.00  0.00    +0.000 A 
ATOM     10  C   UNL     1       6.272   3.429  12.217  0.00  0.00    +0.000 A 
ATOM     11  F   UNL     1       5.547   2.432  11.691  0.00  0.00    +0.000 F 
ATOM     12  C   UNL     1       6.163   3.711  13.574  0.00  0.00    +0.000 A 
ENDBRANCH   3   6
BRANCH   1  14
ATOM     13  O   UNL     1       4.992   5.280  19.810  0.00  0.00    +0.000 OA
ATOM     14  C   UNL     1       5.414   4.475  18.981  0.00  0.00    +0.000 C 
ATOM     15  N   UNL     1       5.277   3.115  19.159  0.00  0.00    +0.000 N 
ATOM     16  H   UNL     1       5.740   2.487  18.518  0.00  0.00    +0.000 HD
BRANCH  15  17
ATOM     17  C   UNL     1       4.685   2.560  20.353  0.00  0.00    +0.000 C 
BRANCH  17  18
ATOM     18  C   UNL     1       3.182   2.643  20.321  0.00  0.00    +0.000 A 
ATOM     19  C   UNL     1       2.460   2.904  21.496  0.00  0.00    +0.000 A 
ATOM     20  C   UNL     1       1.067   2.984  21.473  0.00  0.00    +0.000 A 
ATOM     21  C   UNL     1       0.379   2.799  20.277  0.00  0.00    +0.000 A 
ATOM     22  C   UNL     1       1.082   2.529  19.104  0.00  0.00    +0.000 A 
ATOM     23  C   UNL     1       2.476   2.445  19.125  0.00  0.00    +0.000 A 
ENDBRANCH  17  18
ENDBRANCH  15  17
ENDBRANCH   1  14
TORSDOF 4
ENDMDL
MODEL 5
REMARK VINA RESULT:      -8.0      3.369      3.515
REMARK  Name = 
REMARK  4 active torsions:
REMARK  status: ('A' for Active; 'I' for Inactive)
REMARK    1  A    between atoms: C_2  and  C_11
REMARK    2  A    between atoms: N_3  and  C_4
REMARK    3  A    between atoms: C_4  and  C_5
REMARK    4  A    between atoms: C_13  and  C_14
REMARK                            x       y       z     vdW  Elec       q    Type
REMARK                         _______ _______ _______ _____ _____    ______ ____
ROOT
ATOM      1  C   UNL     1       5.563   4.744  17.839  0.00  0.00    +0.000 A 
ATOM      2  C   UNL     1       5.363   4.551  16.486  0.00  0.00    +0.000 A 
ATOM      3  C   UNL     1       6.604   4.517  15.762  0.00  0.00    +0.000 A 
ATOM      4  N   UNL     1       7.693   4.615  16.533  0.00  0.00    +0.000 NA
ATOM      5  S   UNL     1       7.241   4.807  18.111  0.00  0.00    +0.000 S 
ENDROOT
BRANCH   3   6
ATOM      6  C   UNL     1       6.736   4.394  14.304  0.00  0.00    +0.000 A 
ATOM      7  C   UNL     1       7.639   5.209  13.597  0.00  0.00    +0.000 A 
ATOM      8  C   UNL     1       7.776   5.089  12.213  0.00  0.00    +0.000 A 
ATOM      9  C   UNL     1       7.010   4.154  11.520  0.00  0.00    +0.000 A 
ATOM     10  C   UNL     1       6.120   3.347  12.218  0.00  0.00    +0.000 A 
ATOM     11  F   UNL     1       5.388   2.447  11.547  0.00  0.00    +0.000 F 
ATOM     12  C   UNL     1       5.977   3.454  13.596  0.00  0.00    +0.000 A 
ENDBRANCH   3   6
BRANCH   1  14
ATOM     13  O   UNL     1       4.370   3.967  19.698  0.00  0.00    +0.000 OA
ATOM     14  C   UNL     1       4.560   4.862  18.876  0.00  0.00    +0.000 C 
ATOM     15  N   UNL     1       3.820   6.024  18.889  0.00  0.00    +0.000 N 
ATOM     16  H   UNL     1       3.923   6.682  18.129  0.00  0.00    +0.000 HD
BRANCH  15  17
ATOM     17  C   UNL     1       2.741   6.229  19.828  0.00  0.00    +0.000 C 
BRANCH  17  18
ATOM     18  C   UNL     1       2.066   7.558  19.619  0.00  0.00    +0.000 A 
ATOM     19  C   UNL     1       2.118   8.192  18.368  0.00  0.00    +0.000 A 
ATOM     20  C   UNL     1       1.493   9.423  18.167  0.00  0.00    +0.000 A 
ATOM     21  C   UNL     1       0.813  10.038  19.215  0.00  0.00    +0.000 A 
ATOM     22  C   UNL     1       0.762   9.426  20.465  0.00  0.00    +0.000 A 
ATOM     23  C   UNL     1       1.389   8.195  20.670  0.00  0.00    +0.000 A 
ENDBRANCH  17  18
ENDBRANCH  15  17
ENDBRANCH   1  14
TORSDOF 4
ENDMDL
MODEL 6
REMARK VINA RESULT:      -7.9      2.732      7.765
REMARK  Name = 
REMARK  4 active torsions:
REMARK  status: ('A' for Active; 'I' for Inactive)
REMARK    1  A    between atoms: C_2  and  C_11
REMARK    2  A    between atoms: N_3  and  C_4
REMARK    3  A    between atoms: C_4  and  C_5
REMARK    4  A    between atoms: C_13  and  C_14
REMARK                            x       y       z     vdW  Elec       q    Type
REMARK                         _______ _______ _______ _____ _____    ______ ____
ROOT
ATOM      1  C   UNL     1       5.684   5.336  16.423  0.00  0.00    +0.000 A 
ATOM      2  C   UNL     1       4.709   4.527  16.976  0.00  0.00    +0.000 A 
ATOM      3  C   UNL     1       3.936   5.226  17.967  0.00  0.00    +0.000 A 
ATOM      4  N   UNL     1       4.264   6.514  18.112  0.00  0.00    +0.000 NA
ATOM      5  S   UNL     1       5.530   6.882  17.115  0.00  0.00    +0.000 S 
ENDROOT
BRANCH   3   6
ATOM      6  C   UNL     1       2.871   4.635  18.786  0.00  0.00    +0.000 A 
ATOM      7  C   UNL     1       2.658   5.071  20.106  0.00  0.00    +0.000 A 
ATOM      8  C   UNL     1       1.639   4.521  20.886  0.00  0.00    +0.000 A 
ATOM      9  C   UNL     1       0.823   3.524  20.355  0.00  0.00    +0.000 A 
ATOM     10  C   UNL     1       1.030   3.094  19.050  0.00  0.00    +0.000 A 
ATOM     11  F   UNL     1       0.241   2.137  18.543  0.00  0.00    +0.000 F 
ATOM     12  C   UNL     1       2.038   3.637  18.262  0.00  0.00    +0.000 A 
ENDBRANCH   3   6
BRANCH   1  14
ATOM     13  O   UNL     1       7.781   4.556  15.731  0.00  0.00    +0.000 OA
ATOM     14  C   UNL     1       6.668   4.980  15.423  0.00  0.00    +0.000 C 
ATOM     15  N   UNL     1       6.299   5.151  14.106  0.00  0.00    +0.000 N 
ATOM     16  H   UNL     1       5.424   5.611  13.897  0.00  0.00    +0.000 HD
BRANCH  15  17
ATOM     17  C   UNL     1       7.217   4.900  13.019  0.00  0.00    +0.000 C 
BRANCH  17  18
ATOM     18  C   UNL     1       6.849   3.656  12.255  0.00  0.00    +0.000 A 
ATOM     19  C   UNL     1       5.512   3.236  12.187  0.00  0.00    +0.000 A 
ATOM     20  C   UNL     1       5.162   2.085  11.478  0.00  0.00    +0.000 A 
ATOM     21  C   UNL     1       6.146   1.338  10.836  0.00  0.00    +0.000 A 
ATOM     22  C   UNL     1       7.480   1.738  10.904  0.00  0.00    +0.000 A 
ATOM     23  C   UNL     1       7.831   2.888  11.614  0.00  0.00    +0.000 A 
ENDBRANCH  17  18
ENDBRANCH  15  17
ENDBRANCH   1  14
TORSDOF 4
ENDMDL
MODEL 7
REMARK VINA RESULT:      -7.9      2.508      7.544
REMARK  Name = 
REMARK  4 active torsions:
REMARK  status: ('A' for Active; 'I' for Inactive)
REMARK    1  A    between atoms: C_2  and  C_11
REMARK    2  A    between atoms: N_3  and  C_4
REMARK    3  A    between atoms: C_4  and  C_5
REMARK    4  A    between atoms: C_13  and  C_14
REMARK                            x       y       z     vdW  Elec       q    Type
REMARK                         _______ _______ _______ _____ _____    ______ ____
ROOT
ATOM      1  C   UNL     1       6.045   5.100  17.156  0.00  0.00    +0.000 A 
ATOM      2  C   UNL     1       4.777   4.598  17.376  0.00  0.00    +0.000 A 
ATOM      3  C   UNL     1       4.432   4.613  18.772  0.00  0.00    +0.000 A 
ATOM      4  N   UNL     1       5.365   5.157  19.562  0.00  0.00    +0.000 NA
ATOM      5  S   UNL     1       6.675   5.596  18.656  0.00  0.00    +0.000 S 
ENDROOT
BRANCH   3   6
ATOM      6  C   UNL     1       3.187   4.088  19.347  0.00  0.00    +0.000 A 
ATOM      7  C   UNL     1       2.836   4.378  20.677  0.00  0.00    +0.000 A 
ATOM      8  C   UNL     1       1.648   3.891  21.225  0.00  0.00    +0.000 A 
ATOM      9  C   UNL     1       0.798   3.106  20.449  0.00  0.00    +0.000 A 
ATOM     10  C   UNL     1       1.143   2.821  19.133  0.00  0.00    +0.000 A 
ATOM     11  F   UNL     1       0.321   2.068  18.389  0.00  0.00    +0.000 F 
ATOM     12  C   UNL     1       2.321   3.303  18.574  0.00  0.00    +0.000 A 
ENDBRANCH   3   6
BRANCH   1  14
ATOM     13  O   UNL     1       7.607   6.074  15.709  0.00  0.00    +0.000 OA
ATOM     14  C   UNL     1       6.745   5.217  15.894  0.00  0.00    +0.000 C 
ATOM     15  N   UNL     1       6.388   4.325  14.906  0.00  0.00    +0.000 N 
ATOM     16  H   UNL     1       5.597   3.716  15.056  0.00  0.00    +0.000 HD
BRANCH  15  17
ATOM     17  C   UNL     1       6.962   4.387  13.581  0.00  0.00    +0.000 C 
BRANCH  17  18
ATOM     18  C   UNL     1       6.195   3.538  12.602  0.00  0.00    +0.000 A 
ATOM     19  C   UNL     1       6.813   2.444  11.976  0.00  0.00    +0.000 A 
ATOM     20  C   UNL     1       6.109   1.652  11.069  0.00  0.00    +0.000 A 
ATOM     21  C   UNL     1       4.781   1.948  10.770  0.00  0.00    +0.000 A 
ATOM     22  C   UNL     1       4.159   3.038  11.376  0.00  0.00    +0.000 A 
ATOM     23  C   UNL     1       4.863   3.833  12.282  0.00  0.00    +0.000 A 
ENDBRANCH  17  18
ENDBRANCH  15  17
ENDBRANCH   1  14
TORSDOF 4
ENDMDL
MODEL 8
REMARK VINA RESULT:      -7.9      3.466      3.740
REMARK  Name = 
REMARK  4 active torsions:
REMARK  status: ('A' for Active; 'I' for Inactive)
REMARK    1  A    between atoms: C_2  and  C_11
REMARK    2  A    between atoms: N_3  and  C_4
REMARK    3  A    between atoms: C_4  and  C_5
REMARK    4  A    between atoms: C_13  and  C_14
REMARK                            x       y       z     vdW  Elec       q    Type
REMARK                         _______ _______ _______ _____ _____    ______ ____
ROOT
ATOM      1  C   UNL     1       5.386   4.799  17.854  0.00  0.00    +0.000 A 
ATOM      2  C   UNL     1       5.220   4.584  16.499  0.00  0.00    +0.000 A 
ATOM      3  C   UNL     1       6.480   4.556  15.805  0.00  0.00    +0.000 A 
ATOM      4  N   UNL     1       7.548   4.680  16.601  0.00  0.00    +0.000 NA
ATOM      5  S   UNL     1       7.056   4.888  18.165  0.00  0.00    +0.000 S 
ENDROOT
BRANCH   3   6
ATOM      6  C   UNL     1       6.649   4.415  14.354  0.00  0.00    +0.000 A 
ATOM      7  C   UNL     1       7.593   5.197  13.665  0.00  0.00    +0.000 A 
ATOM      8  C   UNL     1       7.765   5.059  12.286  0.00  0.00    +0.000 A 
ATOM      9  C   UNL     1       6.993   4.138  11.581  0.00  0.00    +0.000 A 
ATOM     10  C   UNL     1       6.062   3.363  12.261  0.00  0.00    +0.000 A 
ATOM     11  F   UNL     1       5.323   2.477  11.579  0.00  0.00    +0.000 F 
ATOM     12  C   UNL     1       5.883   3.488  13.634  0.00  0.00    +0.000 A 
ENDBRANCH   3   6
BRANCH   1  14
ATOM     13  O   UNL     1       4.075   3.985  19.615  0.00  0.00    +0.000 OA
ATOM     14  C   UNL     1       4.356   4.918  18.864  0.00  0.00    +0.000 C 
ATOM     15  N   UNL     1       3.698   6.126  18.935  0.00  0.00    +0.000 N 
ATOM     16  H   UNL     1       3.874   6.824  18.227  0.00  0.00    +0.000 HD
BRANCH  15  17
ATOM     17  C   UNL     1       2.603   6.344  19.852  0.00  0.00    +0.000 C 
BRANCH  17  18
ATOM     18  C   UNL     1       1.948   7.682  19.631  0.00  0.00    +0.000 A 
ATOM     19  C   UNL     1       1.278   8.325  20.683  0.00  0.00    +0.000 A 
ATOM     20  C   UNL     1       0.670   9.567  20.486  0.00  0.00    +0.000 A 
ATOM     21  C   UNL     1       0.720  10.175  19.235  0.00  0.00    +0.000 A 
ATOM     22  C   UNL     1       1.373   9.542  18.179  0.00  0.00    +0.000 A 
ATOM     23  C   UNL     1       1.979   8.299  18.373  0.00  0.00    +0.000 A 
ENDBRANCH  17  18
ENDBRANCH  15  17
ENDBRANCH   1  14
TORSDOF 4
ENDMDL
MODEL 9
REMARK VINA RESULT:      -7.8      2.941      7.802
REMARK  Name = 
REMARK  4 active torsions:
REMARK  status: ('A' for Active; 'I' for Inactive)
REMARK    1  A    between atoms: C_2  and  C_11
REMARK    2  A    between atoms: N_3  and  C_4
REMARK    3  A    between atoms: C_4  and  C_5
REMARK    4  A    between atoms: C_13  and  C_14
REMARK                            x       y       z     vdW  Elec       q    Type
REMARK                         _______ _______ _______ _____ _____    ______ ____
ROOT
ATOM      1  C   UNL     1       6.019   5.162  17.147  0.00  0.00    +0.000 A 
ATOM      2  C   UNL     1       4.740   4.657  17.282  0.00  0.00    +0.000 A 
ATOM      3  C   UNL     1       4.345   4.566  18.661  0.00  0.00    +0.000 A 
ATOM      4  N   UNL     1       5.252   5.036  19.525  0.00  0.00    +0.000 NA
ATOM      5  S   UNL     1       6.598   5.531  18.703  0.00  0.00    +0.000 S 
ENDROOT
BRANCH   3   6
ATOM      6  C   UNL     1       3.076   4.010  19.148  0.00  0.00    +0.000 A 
ATOM      7  C   UNL     1       2.036   3.711  18.250  0.00  0.00    +0.000 A 
ATOM      8  C   UNL     1       0.831   3.171  18.706  0.00  0.00    +0.000 A 
ATOM      9  C   UNL     1       0.653   2.928  20.066  0.00  0.00    +0.000 A 
ATOM     10  C   UNL     1       1.681   3.220  20.954  0.00  0.00    +0.000 A 
ATOM     11  F   UNL     1       1.506   2.982  22.261  0.00  0.00    +0.000 F 
ATOM     12  C   UNL     1       2.887   3.754  20.512  0.00  0.00    +0.000 A 
ENDBRANCH   3   6
BRANCH   1  14
ATOM     13  O   UNL     1       7.662   6.209  15.847  0.00  0.00    +0.000 OA
ATOM     14  C   UNL     1       6.765   5.370  15.924  0.00  0.00    +0.000 C 
ATOM     15  N   UNL     1       6.412   4.588  14.845  0.00  0.00    +0.000 N 
ATOM     16  H   UNL     1       5.597   3.997  14.912  0.00  0.00    +0.000 HD
BRANCH  15  17
ATOM     17  C   UNL     1       7.033   4.752  13.551  0.00  0.00    +0.000 C 
BRANCH  17  18
ATOM     18  C   UNL     1       6.608   3.675  12.588  0.00  0.00    +0.000 A 
ATOM     19  C   UNL     1       7.570   2.900  11.922  0.00  0.00    +0.000 A 
ATOM     20  C   UNL     1       7.183   1.899  11.030  0.00  0.00    +0.000 A 
ATOM     21  C   UNL     1       5.832   1.665  10.789  0.00  0.00    +0.000 A 
ATOM     22  C   UNL     1       4.867   2.435  11.436  0.00  0.00    +0.000 A 
ATOM     23  C   UNL     1       5.251   3.439  12.326  0.00  0.00    +0.000 A 
ENDBRANCH  17  18
ENDBRANCH  15  17
ENDBRANCH   1  14
TORSDOF 4
ENDMDL
