MODEL 1
REMARK VINA RESULT:      -7.4      0.000      0.000
REMARK  Name = 
REMARK  9 active torsions:
REMARK  status: ('A' for Active; 'I' for Inactive)
REMARK    1  A    between atoms: C_1  and  C_2
REMARK    2  A    between atoms: C_2  and  C_3
REMARK    3  A    between atoms: C_2  and  C_4
REMARK    4  A    between atoms: C_7  and  N_8
REMARK    5  A    between atoms: N_8  and  C_9
REMARK    6  A    between atoms: C_14  and  C_16
REMARK    7  A    between atoms: C_18  and  C_19
REMARK    8  A    between atoms: C_19  and  C_20
REMARK    9  A    between atoms: C_19  and  C_21
REMARK                            x       y       z     vdW  Elec       q    Type
REMARK                         _______ _______ _______ _____ _____    ______ ____
ROOT
ATOM      1  C   UNL     1       1.262   9.493  21.763  0.00  0.00    +0.000 C 
ATOM      2  C   UNL     1       0.476   9.476  23.082  0.00  0.00    +0.000 C 
ATOM      3  C   UNL     1      -0.906  10.151  23.054  0.00  0.00    +0.000 C 
ATOM      4  C   UNL     1      -1.031  11.383  22.154  0.00  0.00    +0.000 C 
ATOM      5  N   UNL     1      -0.274  11.244  20.912  0.00  0.00    +0.000 N 
ATOM      6  C   UNL     1      -0.670  11.638  19.626  0.00  0.00    +0.000 C 
ATOM      7  O   UNL     1       0.156  11.780  18.726  0.00  0.00    +0.000 OA
ATOM      8  C   UNL     1       1.128  10.882  21.114  0.00  0.00    +0.000 C 
ENDROOT
BRANCH   6   9
ATOM      9  C   UNL     1      -2.096  11.890  19.334  0.00  0.00    +0.000 A 
ATOM     10  C   UNL     1      -2.902  11.124  18.437  0.00  0.00    +0.000 A 
ATOM     11  C   UNL     1      -4.158  11.690  18.474  0.00  0.00    +0.000 A 
ATOM     12  N   UNL     1      -4.063  12.701  19.385  0.00  0.00    +0.000 N 
ATOM     13  N   UNL     1      -2.851  12.825  19.937  0.00  0.00    +0.000 NA
ATOM     14  H   UNL     1      -4.796  13.339  19.688  0.00  0.00    +0.000 HD
BRANCH  11  15
ATOM     15  C   UNL     1      -5.435  11.357  17.769  0.00  0.00    +0.000 C 
ATOM     16  C   UNL     1      -6.411  10.629  18.693  0.00  0.00    +0.000 C 
ATOM     17  C   UNL     1      -6.079  12.624  17.203  0.00  0.00    +0.000 C 
ENDBRANCH  11  15
ENDBRANCH   6   9
BRANCH   1  18
ATOM     18  N   UNL     1       0.815   8.425  20.860  0.00  0.00    +0.000 N 
ATOM     19  H   UNL     1       0.022   7.885  21.193  0.00  0.00    +0.000 HD
BRANCH  18  23
ATOM     20  C   UNL     1       3.469   6.715  18.011  0.00  0.00    +0.000 A 
ATOM     21  C   UNL     1       3.126   5.993  19.157  0.00  0.00    +0.000 A 
ATOM     22  C   UNL     1       2.221   6.535  20.099  0.00  0.00    +0.000 A 
ATOM     23  C   UNL     1       1.617   7.785  19.927  0.00  0.00    +0.000 A 
ATOM     24  C   UNL     1       1.981   8.491  18.765  0.00  0.00    +0.000 A 
ATOM     25  C   UNL     1       2.873   7.957  17.821  0.00  0.00    +0.000 A 
BRANCH  20  27
ATOM     26  C   UNL     1       5.834   6.980  17.140  0.00  0.00    +0.000 C 
ATOM     27  C   UNL     1       4.512   6.207  17.025  0.00  0.00    +0.000 C 
ATOM     28  C   UNL     1       4.729   4.704  17.236  0.00  0.00    +0.000 C 
ENDBRANCH  20  27
ENDBRANCH  18  23
ENDBRANCH   1  18
TORSDOF 5
ENDMDL
MODEL 2
REMARK VINA RESULT:      -7.4      0.992      1.547
REMARK  Name = 
REMARK  9 active torsions:
REMARK  status: ('A' for Active; 'I' for Inactive)
REMARK    1  A    between atoms: C_1  and  C_2
REMARK    2  A    between atoms: C_2  and  C_3
REMARK    3  A    between atoms: C_2  and  C_4
REMARK    4  A    between atoms: C_7  and  N_8
REMARK    5  A    between atoms: N_8  and  C_9
REMARK    6  A    between atoms: C_14  and  C_16
REMARK    7  A    between atoms: C_18  and  C_19
REMARK    8  A    between atoms: C_19  and  C_20
REMARK    9  A    between atoms: C_19  and  C_21
REMARK                            x       y       z     vdW  Elec       q    Type
REMARK                         _______ _______ _______ _____ _____    ______ ____
ROOT
ATOM      1  C   UNL     1       1.371   9.093  22.111  0.00  0.00    +0.000 C 
ATOM      2  C   UNL     1       0.434   9.317  23.306  0.00  0.00    +0.000 C 
ATOM      3  C   UNL     1      -0.863  10.092  23.014  0.00  0.00    +0.000 C 
ATOM      4  C   UNL     1      -0.757  11.200  21.963  0.00  0.00    +0.000 C 
ATOM      5  N   UNL     1       0.127  10.835  20.858  0.00  0.00    +0.000 N 
ATOM      6  C   UNL     1      -0.071  11.085  19.492  0.00  0.00    +0.000 C 
ATOM      7  O   UNL     1       0.867  11.038  18.698  0.00  0.00    +0.000 OA
ATOM      8  C   UNL     1       1.452  10.390  21.285  0.00  0.00    +0.000 C 
ENDROOT
BRANCH   6   9
ATOM      9  C   UNL     1      -1.420  11.411  18.986  0.00  0.00    +0.000 A 
ATOM     10  C   UNL     1      -2.116  10.690  17.968  0.00  0.00    +0.000 A 
ATOM     11  C   UNL     1      -3.331  11.321  17.816  0.00  0.00    +0.000 A 
ATOM     12  N   UNL     1      -3.327  12.324  18.741  0.00  0.00    +0.000 N 
ATOM     13  N   UNL     1      -2.210  12.384  19.475  0.00  0.00    +0.000 NA
ATOM     14  H   UNL     1      -4.064  12.998  18.933  0.00  0.00    +0.000 HD
BRANCH  11  15
ATOM     15  C   UNL     1      -4.500  11.056  16.920  0.00  0.00    +0.000 C 
ATOM     16  C   UNL     1      -5.491  12.220  16.934  0.00  0.00    +0.000 C 
ATOM     17  C   UNL     1      -4.026  10.776  15.493  0.00  0.00    +0.000 C 
ENDBRANCH  11  15
ENDBRANCH   6   9
BRANCH   1  18
ATOM     18  N   UNL     1       0.933   7.955  21.293  0.00  0.00    +0.000 N 
ATOM     19  H   UNL     1       0.182   7.401  21.695  0.00  0.00    +0.000 HD
BRANCH  18  23
ATOM     20  C   UNL     1       3.115   5.720  18.407  0.00  0.00    +0.000 A 
ATOM     21  C   UNL     1       2.892   7.084  18.202  0.00  0.00    +0.000 A 
ATOM     22  C   UNL     1       2.195   7.848  19.166  0.00  0.00    +0.000 A 
ATOM     23  C   UNL     1       1.721   7.296  20.361  0.00  0.00    +0.000 A 
ATOM     24  C   UNL     1       1.957   5.921  20.542  0.00  0.00    +0.000 A 
ATOM     25  C   UNL     1       2.655   5.156  19.593  0.00  0.00    +0.000 A 
BRANCH  20  27
ATOM     26  C   UNL     1       5.012   5.520  16.740  0.00  0.00    +0.000 C 
ATOM     27  C   UNL     1       3.775   4.846  17.349  0.00  0.00    +0.000 C 
ATOM     28  C   UNL     1       4.128   3.484  17.959  0.00  0.00    +0.000 C 
ENDBRANCH  20  27
ENDBRANCH  18  23
ENDBRANCH   1  18
TORSDOF 5
ENDMDL
MODEL 3
REMARK VINA RESULT:      -7.4      4.091      9.088
REMARK  Name = 
REMARK  9 active torsions:
REMARK  status: ('A' for Active; 'I' for Inactive)
REMARK    1  A    between atoms: C_1  and  C_2
REMARK    2  A    between atoms: C_2  and  C_3
REMARK    3  A    between atoms: C_2  and  C_4
REMARK    4  A    between atoms: C_7  and  N_8
REMARK    5  A    between atoms: N_8  and  C_9
REMARK    6  A    between atoms: C_14  and  C_16
REMARK    7  A    between atoms: C_18  and  C_19
REMARK    8  A    between atoms: C_19  and  C_20
REMARK    9  A    between atoms: C_19  and  C_21
REMARK                            x       y       z     vdW  Elec       q    Type
REMARK                         _______ _______ _______ _____ _____    ______ ____
ROOT
ATOM      1  C   UNL     1       1.539   4.223  21.021  0.00  0.00    +0.000 C 
ATOM      2  C   UNL     1       2.305   3.082  21.704  0.00  0.00    +0.000 C 
ATOM      3  C   UNL     1       3.484   2.489  20.913  0.00  0.00    +0.000 C 
ATOM      4  C   UNL     1       3.308   2.432  19.393  0.00  0.00    +0.000 C 
ATOM      5  N   UNL     1       2.608   3.602  18.870  0.00  0.00    +0.000 N 
ATOM      6  C   UNL     1       2.897   4.314  17.696  0.00  0.00    +0.000 C 
ATOM      7  O   UNL     1       2.062   5.057  17.185  0.00  0.00    +0.000 OA
ATOM      8  C   UNL     1       1.334   3.874  19.535  0.00  0.00    +0.000 C 
ENDROOT
BRANCH   6   9
ATOM      9  C   UNL     1       4.221   4.176  17.055  0.00  0.00    +0.000 A 
ATOM     10  C   UNL     1       4.457   4.165  15.646  0.00  0.00    +0.000 A 
ATOM     11  C   UNL     1       5.819   4.029  15.488  0.00  0.00    +0.000 A 
ATOM     12  N   UNL     1       6.321   4.008  16.757  0.00  0.00    +0.000 N 
ATOM     13  N   UNL     1       5.393   4.124  17.712  0.00  0.00    +0.000 NA
ATOM     14  H   UNL     1       7.295   3.930  17.040  0.00  0.00    +0.000 HD
BRANCH  11  15
ATOM     15  C   UNL     1       6.691   3.951  14.275  0.00  0.00    +0.000 C 
ATOM     16  C   UNL     1       5.882   3.602  13.026  0.00  0.00    +0.000 C 
ATOM     17  C   UNL     1       7.445   5.267  14.073  0.00  0.00    +0.000 C 
ENDBRANCH  11  15
ENDBRANCH   6   9
BRANCH   1  18
ATOM     18  N   UNL     1       2.231   5.507  21.187  0.00  0.00    +0.000 N 
ATOM     19  H   UNL     1       2.841   5.565  21.997  0.00  0.00    +0.000 HD
BRANCH  18  23
ATOM     20  C   UNL     1       0.920   9.366  19.975  0.00  0.00    +0.000 A 
ATOM     21  C   UNL     1       1.838   8.669  19.186  0.00  0.00    +0.000 A 
ATOM     22  C   UNL     1       2.261   7.372  19.559  0.00  0.00    +0.000 A 
ATOM     23  C   UNL     1       1.777   6.724  20.700  0.00  0.00    +0.000 A 
ATOM     24  C   UNL     1       0.855   7.449  21.478  0.00  0.00    +0.000 A 
ATOM     25  C   UNL     1       0.423   8.734  21.111  0.00  0.00    +0.000 A 
BRANCH  20  27
ATOM     26  C   UNL     1       1.478  11.461  18.663  0.00  0.00    +0.000 C 
ATOM     27  C   UNL     1       0.515  10.800  19.659  0.00  0.00    +0.000 C 
ATOM     28  C   UNL     1      -0.926  10.822  19.135  0.00  0.00    +0.000 C 
ENDBRANCH  20  27
ENDBRANCH  18  23
ENDBRANCH   1  18
TORSDOF 5
ENDMDL
MODEL 4
REMARK VINA RESULT:      -7.3      1.537      1.916
REMARK  Name = 
REMARK  9 active torsions:
REMARK  status: ('A' for Active; 'I' for Inactive)
REMARK    1  A    between atoms: C_1  and  C_2
REMARK    2  A    between atoms: C_2  and  C_3
REMARK    3  A    between atoms: C_2  and  C_4
REMARK    4  A    between atoms: C_7  and  N_8
REMARK    5  A    between atoms: N_8  and  C_9
REMARK    6  A    between atoms: C_14  and  C_16
REMARK    7  A    between atoms: C_18  and  C_19
REMARK    8  A    between atoms: C_19  and  C_20
REMARK    9  A    between atoms: C_19  and  C_21
REMARK                            x       y       z     vdW  Elec       q    Type
REMARK                         _______ _______ _______ _____ _____    ______ ____
ROOT
ATOM      1  C   UNL     1       1.369   8.776  21.997  0.00  0.00    +0.000 C 
ATOM      2  C   UNL     1       0.368   9.247  23.062  0.00  0.00    +0.000 C 
ATOM      3  C   UNL     1      -0.775  10.149  22.564  0.00  0.00    +0.000 C 
ATOM      4  C   UNL     1      -0.421  11.113  21.429  0.00  0.00    +0.000 C 
ATOM      5  N   UNL     1       0.500  10.519  20.462  0.00  0.00    +0.000 N 
ATOM      6  C   UNL     1       0.463  10.643  19.065  0.00  0.00    +0.000 C 
ATOM      7  O   UNL     1       1.453  10.389  18.381  0.00  0.00    +0.000 OA
ATOM      8  C   UNL     1       1.705   9.954  21.065  0.00  0.00    +0.000 C 
ENDROOT
BRANCH   6   9
ATOM      9  C   UNL     1      -0.776  11.086  18.393  0.00  0.00    +0.000 A 
ATOM     10  C   UNL     1      -1.782  10.219  17.865  0.00  0.00    +0.000 A 
ATOM     11  C   UNL     1      -2.757  11.041  17.343  0.00  0.00    +0.000 A 
ATOM     12  N   UNL     1      -2.330  12.309  17.607  0.00  0.00    +0.000 N 
ATOM     13  N   UNL     1      -1.164  12.367  18.260  0.00  0.00    +0.000 NA
ATOM     14  H   UNL     1      -2.796  13.184  17.380  0.00  0.00    +0.000 HD
BRANCH  11  15
ATOM     15  C   UNL     1      -4.055  10.754  16.655  0.00  0.00    +0.000 C 
ATOM     16  C   UNL     1      -5.066  11.879  16.878  0.00  0.00    +0.000 C 
ATOM     17  C   UNL     1      -3.829  10.528  15.160  0.00  0.00    +0.000 C 
ENDBRANCH  11  15
ENDBRANCH   6   9
BRANCH   1  18
ATOM     18  N   UNL     1       0.852   7.622  21.250  0.00  0.00    +0.000 N 
ATOM     19  H   UNL     1      -0.044   7.268  21.573  0.00  0.00    +0.000 HD
BRANCH  18  23
ATOM     20  C   UNL     1       3.491   5.028  19.155  0.00  0.00    +0.000 A 
ATOM     21  C   UNL     1       2.747   4.537  20.230  0.00  0.00    +0.000 A 
ATOM     22  C   UNL     1       1.842   5.378  20.918  0.00  0.00    +0.000 A 
ATOM     23  C   UNL     1       1.632   6.712  20.553  0.00  0.00    +0.000 A 
ATOM     24  C   UNL     1       2.395   7.182  19.469  0.00  0.00    +0.000 A 
ATOM     25  C   UNL     1       3.290   6.351  18.775  0.00  0.00    +0.000 A 
BRANCH  20  27
ATOM     26  C   UNL     1       4.206   3.960  16.972  0.00  0.00    +0.000 C 
ATOM     27  C   UNL     1       4.544   4.182  18.453  0.00  0.00    +0.000 C 
ATOM     28  C   UNL     1       5.921   4.838  18.616  0.00  0.00    +0.000 C 
ENDBRANCH  20  27
ENDBRANCH  18  23
ENDBRANCH   1  18
TORSDOF 5
ENDMDL
MODEL 5
REMARK VINA RESULT:      -7.3      4.038      9.085
REMARK  Name = 
REMARK  9 active torsions:
REMARK  status: ('A' for Active; 'I' for Inactive)
REMARK    1  A    between atoms: C_1  and  C_2
REMARK    2  A    between atoms: C_2  and  C_3
REMARK    3  A    between atoms: C_2  and  C_4
REMARK    4  A    between atoms: C_7  and  N_8
REMARK    5  A    between atoms: N_8  and  C_9
REMARK    6  A    between atoms: C_14  and  C_16
REMARK    7  A    between atoms: C_18  and  C_19
REMARK    8  A    between atoms: C_19  and  C_20
REMARK    9  A    between atoms: C_19  and  C_21
REMARK                            x       y       z     vdW  Elec       q    Type
REMARK                         _______ _______ _______ _____ _____    ______ ____
ROOT
ATOM      1  C   UNL     1       1.554   4.419  20.963  0.00  0.00    +0.000 C 
ATOM      2  C   UNL     1       2.268   3.246  21.648  0.00  0.00    +0.000 C 
ATOM      3  C   UNL     1       3.414   2.595  20.854  0.00  0.00    +0.000 C 
ATOM      4  C   UNL     1       3.230   2.541  19.335  0.00  0.00    +0.000 C 
ATOM      5  N   UNL     1       2.583   3.742  18.810  0.00  0.00    +0.000 N 
ATOM      6  C   UNL     1       2.902   4.434  17.633  0.00  0.00    +0.000 C 
ATOM      7  O   UNL     1       2.100   5.215  17.122  0.00  0.00    +0.000 OA
ATOM      8  C   UNL     1       1.327   4.075  19.479  0.00  0.00    +0.000 C 
ENDROOT
BRANCH   6   9
ATOM      9  C   UNL     1       4.215   4.232  16.987  0.00  0.00    +0.000 A 
ATOM     10  C   UNL     1       4.452   4.246  15.578  0.00  0.00    +0.000 A 
ATOM     11  C   UNL     1       5.803   4.029  15.416  0.00  0.00    +0.000 A 
ATOM     12  N   UNL     1       6.301   3.941  16.683  0.00  0.00    +0.000 N 
ATOM     13  N   UNL     1       5.381   4.087  17.642  0.00  0.00    +0.000 NA
ATOM     14  H   UNL     1       7.268   3.794  16.964  0.00  0.00    +0.000 HD
BRANCH  11  15
ATOM     15  C   UNL     1       6.670   3.932  14.200  0.00  0.00    +0.000 C 
ATOM     16  C   UNL     1       5.857   3.550  12.963  0.00  0.00    +0.000 C 
ATOM     17  C   UNL     1       7.412   5.248  13.966  0.00  0.00    +0.000 C 
ENDBRANCH  11  15
ENDBRANCH   6   9
BRANCH   1  18
ATOM     18  N   UNL     1       2.306   5.670  21.121  0.00  0.00    +0.000 N 
ATOM     19  H   UNL     1       2.995   5.665  21.868  0.00  0.00    +0.000 HD
BRANCH  18  23
ATOM     20  C   UNL     1       0.825   9.389  19.688  0.00  0.00    +0.000 A 
ATOM     21  C   UNL     1       0.370   8.888  20.910  0.00  0.00    +0.000 A 
ATOM     22  C   UNL     1       0.875   7.668  21.415  0.00  0.00    +0.000 A 
ATOM     23  C   UNL     1       1.852   6.925  20.745  0.00  0.00    +0.000 A 
ATOM     24  C   UNL     1       2.291   7.451  19.516  0.00  0.00    +0.000 A 
ATOM     25  C   UNL     1       1.801   8.666  19.010  0.00  0.00    +0.000 A 
BRANCH  20  27
ATOM     26  C   UNL     1      -0.958  10.330  18.152  0.00  0.00    +0.000 C 
ATOM     27  C   UNL     1       0.235  10.648  19.065  0.00  0.00    +0.000 C 
ATOM     28  C   UNL     1      -0.162  11.630  20.174  0.00  0.00    +0.000 C 
ENDBRANCH  20  27
ENDBRANCH  18  23
ENDBRANCH   1  18
TORSDOF 5
ENDMDL
MODEL 6
REMARK VINA RESULT:      -7.3      3.719      6.636
REMARK  Name = 
REMARK  9 active torsions:
REMARK  status: ('A' for Active; 'I' for Inactive)
REMARK    1  A    between atoms: C_1  and  C_2
REMARK    2  A    between atoms: C_2  and  C_3
REMARK    3  A    between atoms: C_2  and  C_4
REMARK    4  A    between atoms: C_7  and  N_8
REMARK    5  A    between atoms: N_8  and  C_9
REMARK    6  A    between atoms: C_14  and  C_16
REMARK    7  A    between atoms: C_18  and  C_19
REMARK    8  A    between atoms: C_19  and  C_20
REMARK    9  A    between atoms: C_19  and  C_21
REMARK                            x       y       z     vdW  Elec       q    Type
REMARK                         _______ _______ _______ _____ _____    ______ ____
ROOT
ATOM      1  C   UNL     1       3.704   2.618  17.806  0.00  0.00    +0.000 C 
ATOM      2  C   UNL     1       2.246   2.186  17.597  0.00  0.00    +0.000 C 
ATOM      3  C   UNL     1       1.172   3.207  18.011  0.00  0.00    +0.000 C 
ATOM      4  C   UNL     1       1.502   4.066  19.234  0.00  0.00    +0.000 C 
ATOM      5  N   UNL     1       2.912   4.447  19.282  0.00  0.00    +0.000 N 
ATOM      6  C   UNL     1       3.446   5.692  19.647  0.00  0.00    +0.000 C 
ATOM      7  O   UNL     1       4.627   5.803  19.971  0.00  0.00    +0.000 OA
ATOM      8  C   UNL     1       3.832   3.316  19.172  0.00  0.00    +0.000 C 
ENDROOT
BRANCH   6   9
ATOM      9  C   UNL     1       2.587   6.894  19.648  0.00  0.00    +0.000 A 
ATOM     10  C   UNL     1       2.423   7.791  18.548  0.00  0.00    +0.000 A 
ATOM     11  C   UNL     1       1.536   8.756  18.972  0.00  0.00    +0.000 A 
ATOM     12  N   UNL     1       1.190   8.386  20.239  0.00  0.00    +0.000 N 
ATOM     13  N   UNL     1       1.780   7.262  20.659  0.00  0.00    +0.000 NA
ATOM     14  H   UNL     1       0.543   8.853  20.870  0.00  0.00    +0.000 HD
BRANCH  11  15
ATOM     15  C   UNL     1       0.960   9.962  18.299  0.00  0.00    +0.000 C 
ATOM     16  C   UNL     1      -0.297  10.455  19.015  0.00  0.00    +0.000 C 
ATOM     17  C   UNL     1       2.002  11.078  18.220  0.00  0.00    +0.000 C 
ENDBRANCH  11  15
ENDBRANCH   6   9
BRANCH   1  18
ATOM     18  N   UNL     1       4.170   3.478  16.710  0.00  0.00    +0.000 N 
ATOM     19  H   UNL     1       4.044   3.093  15.779  0.00  0.00    +0.000 HD
BRANCH  18  23
ATOM     20  C   UNL     1       7.006   6.601  17.243  0.00  0.00    +0.000 A 
ATOM     21  C   UNL     1       7.368   5.282  17.528  0.00  0.00    +0.000 A 
ATOM     22  C   UNL     1       6.447   4.228  17.327  0.00  0.00    +0.000 A 
ATOM     23  C   UNL     1       5.160   4.443  16.823  0.00  0.00    +0.000 A 
ATOM     24  C   UNL     1       4.820   5.780  16.546  0.00  0.00    +0.000 A 
ATOM     25  C   UNL     1       5.732   6.831  16.734  0.00  0.00    +0.000 A 
BRANCH  20  27
ATOM     26  C   UNL     1       7.222   9.121  17.386  0.00  0.00    +0.000 C 
ATOM     27  C   UNL     1       7.936   7.771  17.537  0.00  0.00    +0.000 C 
ATOM     28  C   UNL     1       8.531   7.611  18.942  0.00  0.00    +0.000 C 
ENDBRANCH  20  27
ENDBRANCH  18  23
ENDBRANCH   1  18
TORSDOF 5
ENDMDL
MODEL 7
REMARK VINA RESULT:      -7.2      3.521      6.626
REMARK  Name = 
REMARK  9 active torsions:
REMARK  status: ('A' for Active; 'I' for Inactive)
REMARK    1  A    between atoms: C_1  and  C_2
REMARK    2  A    between atoms: C_2  and  C_3
REMARK    3  A    between atoms: C_2  and  C_4
REMARK    4  A    between atoms: C_7  and  N_8
REMARK    5  A    between atoms: N_8  and  C_9
REMARK    6  A    between atoms: C_14  and  C_16
REMARK    7  A    between atoms: C_18  and  C_19
REMARK    8  A    between atoms: C_19  and  C_20
REMARK    9  A    between atoms: C_19  and  C_21
REMARK                            x       y       z     vdW  Elec       q    Type
REMARK                         _______ _______ _______ _____ _____    ______ ____
ROOT
ATOM      1  C   UNL     1       3.701   2.606  17.918  0.00  0.00    +0.000 C 
ATOM      2  C   UNL     1       2.242   2.194  17.676  0.00  0.00    +0.000 C 
ATOM      3  C   UNL     1       1.175   3.251  18.014  0.00  0.00    +0.000 C 
ATOM      4  C   UNL     1       1.482   4.151  19.213  0.00  0.00    +0.000 C 
ATOM      5  N   UNL     1       2.897   4.507  19.294  0.00  0.00    +0.000 N 
ATOM      6  C   UNL     1       3.443   5.755  19.627  0.00  0.00    +0.000 C 
ATOM      7  O   UNL     1       4.615   5.857  19.986  0.00  0.00    +0.000 OA
ATOM      8  C   UNL     1       3.798   3.356  19.259  0.00  0.00    +0.000 C 
ENDROOT
BRANCH   6   9
ATOM      9  C   UNL     1       2.609   6.972  19.552  0.00  0.00    +0.000 A 
ATOM     10  C   UNL     1       1.839   7.512  20.628  0.00  0.00    +0.000 A 
ATOM     11  C   UNL     1       1.232   8.645  20.131  0.00  0.00    +0.000 A 
ATOM     12  N   UNL     1       1.680   8.752  18.847  0.00  0.00    +0.000 N 
ATOM     13  N   UNL     1       2.527   7.783  18.482  0.00  0.00    +0.000 NA
ATOM     14  H   UNL     1       1.455   9.474  18.166  0.00  0.00    +0.000 HD
BRANCH  11  15
ATOM     15  C   UNL     1       0.307   9.645  20.748  0.00  0.00    +0.000 C 
ATOM     16  C   UNL     1      -0.773  10.092  19.762  0.00  0.00    +0.000 C 
ATOM     17  C   UNL     1      -0.332   9.074  22.015  0.00  0.00    +0.000 C 
ENDBRANCH  11  15
ENDBRANCH   6   9
BRANCH   1  18
ATOM     18  N   UNL     1       4.220   3.413  16.806  0.00  0.00    +0.000 N 
ATOM     19  H   UNL     1       4.137   2.983  15.889  0.00  0.00    +0.000 HD
BRANCH  18  23
ATOM     20  C   UNL     1       7.032   6.561  17.319  0.00  0.00    +0.000 A 
ATOM     21  C   UNL     1       7.374   5.260  17.696  0.00  0.00    +0.000 A 
ATOM     22  C   UNL     1       6.461   4.197  17.503  0.00  0.00    +0.000 A 
ATOM     23  C   UNL     1       5.205   4.382  16.919  0.00  0.00    +0.000 A 
ATOM     24  C   UNL     1       4.885   5.702  16.550  0.00  0.00    +0.000 A 
ATOM     25  C   UNL     1       5.787   6.763  16.730  0.00  0.00    +0.000 A 
BRANCH  20  27
ATOM     26  C   UNL     1       7.219   9.086  17.425  0.00  0.00    +0.000 C 
ATOM     27  C   UNL     1       7.947   7.745  17.599  0.00  0.00    +0.000 C 
ATOM     28  C   UNL     1       8.539   7.614  19.007  0.00  0.00    +0.000 C 
ENDBRANCH  20  27
ENDBRANCH  18  23
ENDBRANCH   1  18
TORSDOF 5
ENDMDL
MODEL 8
REMARK VINA RESULT:      -7.1      1.553      2.168
REMARK  Name = 
REMARK  9 active torsions:
REMARK  status: ('A' for Active; 'I' for Inactive)
REMARK    1  A    between atoms: C_1  and  C_2
REMARK    2  A    between atoms: C_2  and  C_3
REMARK    3  A    between atoms: C_2  and  C_4
REMARK    4  A    between atoms: C_7  and  N_8
REMARK    5  A    between atoms: N_8  and  C_9
REMARK    6  A    between atoms: C_14  and  C_16
REMARK    7  A    between atoms: C_18  and  C_19
REMARK    8  A    between atoms: C_19  and  C_20
REMARK    9  A    between atoms: C_19  and  C_21
REMARK                            x       y       z     vdW  Elec       q    Type
REMARK                         _______ _______ _______ _____ _____    ______ ____
ROOT
ATOM      1  C   UNL     1       1.433   8.957  21.481  0.00  0.00    +0.000 C 
ATOM      2  C   UNL     1       0.673   9.330  22.762  0.00  0.00    +0.000 C 
ATOM      3  C   UNL     1      -0.710   9.975  22.564  0.00  0.00    +0.000 C 
ATOM      4  C   UNL     1      -0.853  10.892  21.347  0.00  0.00    +0.000 C 
ATOM      5  N   UNL     1      -0.121  10.393  20.185  0.00  0.00    +0.000 N 
ATOM      6  C   UNL     1      -0.542  10.396  18.847  0.00  0.00    +0.000 C 
ATOM      7  O   UNL     1       0.266  10.265  17.929  0.00  0.00    +0.000 OA
ATOM      8  C   UNL     1       1.285  10.097  20.457  0.00  0.00    +0.000 C 
ENDROOT
BRANCH   6   9
ATOM      9  C   UNL     1      -1.974  10.559  18.523  0.00  0.00    +0.000 A 
ATOM     10  C   UNL     1      -2.754  11.725  18.796  0.00  0.00    +0.000 A 
ATOM     11  C   UNL     1      -4.020  11.457  18.324  0.00  0.00    +0.000 A 
ATOM     12  N   UNL     1      -3.935  10.211  17.773  0.00  0.00    +0.000 N 
ATOM     13  N   UNL     1      -2.718   9.662  17.851  0.00  0.00    +0.000 NA
ATOM     14  H   UNL     1      -4.672   9.681  17.314  0.00  0.00    +0.000 HD
BRANCH  11  15
ATOM     15  C   UNL     1      -5.282  12.260  18.308  0.00  0.00    +0.000 C 
ATOM     16  C   UNL     1      -6.502  11.382  18.029  0.00  0.00    +0.000 C 
ATOM     17  C   UNL     1      -5.455  13.009  19.630  0.00  0.00    +0.000 C 
ENDBRANCH  11  15
ENDBRANCH   6   9
BRANCH   1  18
ATOM     18  N   UNL     1       0.968   7.675  20.937  0.00  0.00    +0.000 N 
ATOM     19  H   UNL     1       0.162   7.275  21.409  0.00  0.00    +0.000 HD
BRANCH  18  23
ATOM     20  C   UNL     1       3.142   4.710  18.801  0.00  0.00    +0.000 A 
ATOM     21  C   UNL     1       3.154   6.033  18.353  0.00  0.00    +0.000 A 
ATOM     22  C   UNL     1       2.461   7.037  19.069  0.00  0.00    +0.000 A 
ATOM     23  C   UNL     1       1.761   6.769  20.250  0.00  0.00    +0.000 A 
ATOM     24  C   UNL     1       1.764   5.428  20.678  0.00  0.00    +0.000 A 
ATOM     25  C   UNL     1       2.456   4.427  19.978  0.00  0.00    +0.000 A 
BRANCH  20  27
ATOM     26  C   UNL     1       2.823   2.425  17.755  0.00  0.00    +0.000 C 
ATOM     27  C   UNL     1       3.794   3.587  18.006  0.00  0.00    +0.000 C 
ATOM     28  C   UNL     1       4.344   4.145  16.687  0.00  0.00    +0.000 C 
ENDBRANCH  20  27
ENDBRANCH  18  23
ENDBRANCH   1  18
TORSDOF 5
ENDMDL
MODEL 9
REMARK VINA RESULT:      -7.1      0.886      1.461
REMARK  Name = 
REMARK  9 active torsions:
REMARK  status: ('A' for Active; 'I' for Inactive)
REMARK    1  A    between atoms: C_1  and  C_2
REMARK    2  A    between atoms: C_2  and  C_3
REMARK    3  A    between atoms: C_2  and  C_4
REMARK    4  A    between atoms: C_7  and  N_8
REMARK    5  A    between atoms: N_8  and  C_9
REMARK    6  A    between atoms: C_14  and  C_16
REMARK    7  A    between atoms: C_18  and  C_19
REMARK    8  A    between atoms: C_19  and  C_20
REMARK    9  A    between atoms: C_19  and  C_21
REMARK                            x       y       z     vdW  Elec       q    Type
REMARK                         _______ _______ _______ _____ _____    ______ ____
ROOT
ATOM      1  C   UNL     1       1.375   9.879  21.185  0.00  0.00    +0.000 C 
ATOM      2  C   UNL     1       0.681   9.539  22.511  0.00  0.00    +0.000 C 
ATOM      3  C   UNL     1      -0.774  10.018  22.655  0.00  0.00    +0.000 C 
ATOM      4  C   UNL     1      -1.107  11.355  21.989  0.00  0.00    +0.000 C 
ATOM      5  N   UNL     1      -0.417  11.528  20.713  0.00  0.00    +0.000 N 
ATOM      6  C   UNL     1      -0.938  12.074  19.531  0.00  0.00    +0.000 C 
ATOM      7  O   UNL     1      -0.193  12.473  18.637  0.00  0.00    +0.000 OA
ATOM      8  C   UNL     1       1.029  11.327  20.792  0.00  0.00    +0.000 C 
ENDROOT
BRANCH   6   9
ATOM      9  C   UNL     1      -2.400  12.178  19.344  0.00  0.00    +0.000 A 
ATOM     10  C   UNL     1      -3.157  11.483  18.352  0.00  0.00    +0.000 A 
ATOM     11  C   UNL     1      -4.469  11.858  18.540  0.00  0.00    +0.000 A 
ATOM     12  N   UNL     1      -4.446  12.694  19.618  0.00  0.00    +0.000 N 
ATOM     13  N   UNL     1      -3.228  12.881  20.138  0.00  0.00    +0.000 NA
ATOM     14  H   UNL     1      -5.234  13.163  20.060  0.00  0.00    +0.000 HD
BRANCH  11  15
ATOM     15  C   UNL     1      -5.735  11.487  17.834  0.00  0.00    +0.000 C 
ATOM     16  C   UNL     1      -6.742  10.850  18.791  0.00  0.00    +0.000 C 
ATOM     17  C   UNL     1      -6.346  12.712  17.153  0.00  0.00    +0.000 C 
ENDBRANCH  11  15
ENDBRANCH   6   9
BRANCH   1  18
ATOM     18  N   UNL     1       1.009   8.927  20.129  0.00  0.00    +0.000 N 
ATOM     19  H   UNL     1       0.011   8.831  19.965  0.00  0.00    +0.000 HD
BRANCH  18  23
ATOM     20  C   UNL     1       3.119   5.434  18.935  0.00  0.00    +0.000 A 
ATOM     21  C   UNL     1       3.136   6.565  18.116  0.00  0.00    +0.000 A 
ATOM     22  C   UNL     1       2.465   7.745  18.513  0.00  0.00    +0.000 A 
ATOM     23  C   UNL     1       1.782   7.847  19.729  0.00  0.00    +0.000 A 
ATOM     24  C   UNL     1       1.779   6.693  20.534  0.00  0.00    +0.000 A 
ATOM     25  C   UNL     1       2.450   5.520  20.152  0.00  0.00    +0.000 A 
BRANCH  20  27
ATOM     26  C   UNL     1       3.680   3.927  16.976  0.00  0.00    +0.000 C 
ATOM     27  C   UNL     1       3.746   4.117  18.498  0.00  0.00    +0.000 C 
ATOM     28  C   UNL     1       5.193   4.046  19.003  0.00  0.00    +0.000 C 
ENDBRANCH  20  27
ENDBRANCH  18  23
ENDBRANCH   1  18
TORSDOF 5
ENDMDL
