MODEL 1
REMARK VINA RESULT:      -6.3      0.000      0.000
REMARK  Name = 
REMARK  17 active torsions:
REMARK  status: ('A' for Active; 'I' for Inactive)
REMARK    1  A    between atoms: C_1  and  C_2
REMARK    2  A    between atoms: C_2  and  C_3
REMARK    3  A    between atoms: C_3  and  C_4
REMARK    4  A    between atoms: C_4  and  C_5
REMARK    5  A    between atoms: C_5  and  C_6
REMARK    6  A    between atoms: C_6  and  C_7
REMARK    7  A    between atoms: C_7  and  N_8
REMARK    8  A    between atoms: N_8  and  C_9
REMARK    9  A    between atoms: N_8  and  C_10
REMARK   10  A    between atoms: C_13  and  C_14
REMARK   11  A    between atoms: C_14  and  C_15
REMARK   12  A    between atoms: C_15  and  C_16
REMARK   13  A    between atoms: C_16  and  N_17
REMARK   14  A    between atoms: C_16  and  C_18
REMARK   15  A    between atoms: C_16  and  C_20
REMARK   16  A    between atoms: C_18  and  O_19
REMARK   17  A    between atoms: C_20  and  O_21
REMARK                            x       y       z     vdW  Elec       q    Type
REMARK                         _______ _______ _______ _____ _____    ______ ____
ROOT
ATOM      1  C   UNL     1       1.517   8.455  19.814  0.00  0.00    +0.000 A 
ATOM      2  C   UNL     1       1.982   8.860  18.539  0.00  0.00    +0.000 A 
ATOM      3  C   UNL     1       2.814   8.048  17.781  0.00  0.00    +0.000 A 
ATOM      4  C   UNL     1       3.219   6.804  18.258  0.00  0.00    +0.000 A 
ATOM      5  C   UNL     1       2.767   6.366  19.510  0.00  0.00    +0.000 A 
ATOM      6  C   UNL     1       1.935   7.182  20.284  0.00  0.00    +0.000 A 
ENDROOT
BRANCH   1   7
ATOM      7  N   UNL     1       0.651   9.296  20.614  0.00  0.00    +0.000 N 
ATOM      8  C   UNL     1      -0.206   8.668  21.624  0.00  0.00    +0.000 C 
BRANCH   7   9
ATOM      9  C   UNL     1       0.572  10.736  20.341  0.00  0.00    +0.000 C 
BRANCH   9  10
ATOM     10  C   UNL     1      -0.845  11.295  20.218  0.00  0.00    +0.000 C 
BRANCH  10  11
ATOM     11  C   UNL     1      -1.228  11.436  18.745  0.00  0.00    +0.000 C 
BRANCH  11  12
ATOM     12  C   UNL     1      -2.087  10.248  18.329  0.00  0.00    +0.000 C 
BRANCH  12  13
ATOM     13  C   UNL     1      -1.873   9.918  16.858  0.00  0.00    +0.000 C 
BRANCH  13  15
ATOM     14  C   UNL     1      -3.004  10.104  14.630  0.00  0.00    +0.000 C 
ATOM     15  C   UNL     1      -3.213   9.915  16.125  0.00  0.00    +0.000 C 
ENDBRANCH  13  15
ENDBRANCH  12  13
ENDBRANCH  11  12
ENDBRANCH  10  11
ENDBRANCH   9  10
ENDBRANCH   7   9
ENDBRANCH   1   7
BRANCH   4  16
ATOM     16  C   UNL     1       4.103   5.939  17.406  0.00  0.00    +0.000 C 
BRANCH  16  17
ATOM     17  C   UNL     1       5.290   5.377  18.218  0.00  0.00    +0.000 C 
BRANCH  17  18
ATOM     18  C   UNL     1       6.692   5.790  17.678  0.00  0.00    +0.000 C 
BRANCH  18  19
ATOM     19  N   UNL     1       6.565   6.919  16.745  0.00  0.00    +0.000 NA
ATOM     20  H   UNL     1       6.763   6.627  15.761  0.00  0.00    +0.000 HD
ATOM     21  H   UNL     1       7.225   7.687  17.012  0.00  0.00    +0.000 HD
ENDBRANCH  18  19
BRANCH  18  22
ATOM     22  C   UNL     1       7.659   6.193  18.830  0.00  0.00    +0.000 C 
BRANCH  22  23
ATOM     23  O   UNL     1       7.423   5.446  19.996  0.00  0.00    +0.000 OA
ATOM     24  H   UNL     1       8.227   5.534  20.569  0.00  0.00    +0.000 HD
ENDBRANCH  22  23
ENDBRANCH  18  22
BRANCH  18  25
ATOM     25  C   UNL     1       7.293   4.585  16.911  0.00  0.00    +0.000 C 
BRANCH  25  26
ATOM     26  O   UNL     1       8.314   3.964  17.649  0.00  0.00    +0.000 OA
ATOM     27  H   UNL     1       7.879   3.285  18.225  0.00  0.00    +0.000 HD
ENDBRANCH  25  26
ENDBRANCH  18  25
ENDBRANCH  17  18
ENDBRANCH  16  17
ENDBRANCH   4  16
TORSDOF 15
ENDMDL
MODEL 2
REMARK VINA RESULT:      -6.3      2.080      2.391
REMARK  Name = 
REMARK  17 active torsions:
REMARK  status: ('A' for Active; 'I' for Inactive)
REMARK    1  A    between atoms: C_1  and  C_2
REMARK    2  A    between atoms: C_2  and  C_3
REMARK    3  A    between atoms: C_3  and  C_4
REMARK    4  A    between atoms: C_4  and  C_5
REMARK    5  A    between atoms: C_5  and  C_6
REMARK    6  A    between atoms: C_6  and  C_7
REMARK    7  A    between atoms: C_7  and  N_8
REMARK    8  A    between atoms: N_8  and  C_9
REMARK    9  A    between atoms: N_8  and  C_10
REMARK   10  A    between atoms: C_13  and  C_14
REMARK   11  A    between atoms: C_14  and  C_15
REMARK   12  A    between atoms: C_15  and  C_16
REMARK   13  A    between atoms: C_16  and  N_17
REMARK   14  A    between atoms: C_16  and  C_18
REMARK   15  A    between atoms: C_16  and  C_20
REMARK   16  A    between atoms: C_18  and  O_19
REMARK   17  A    between atoms: C_20  and  O_21
REMARK                            x       y       z     vdW  Elec       q    Type
REMARK                         _______ _______ _______ _____ _____    ______ ____
ROOT
ATOM      1  C   UNL     1       1.078   9.427  19.733  0.00  0.00    +0.000 A 
ATOM      2  C   UNL     1       1.458   9.447  18.370  0.00  0.00    +0.000 A 
ATOM      3  C   UNL     1       2.166   8.399  17.800  0.00  0.00    +0.000 A 
ATOM      4  C   UNL     1       2.529   7.290  18.561  0.00  0.00    +0.000 A 
ATOM      5  C   UNL     1       2.158   7.231  19.910  0.00  0.00    +0.000 A 
ATOM      6  C   UNL     1       1.451   8.287  20.494  0.00  0.00    +0.000 A 
ENDROOT
BRANCH   1   7
ATOM      7  N   UNL     1       0.341  10.517  20.339  0.00  0.00    +0.000 N 
ATOM      8  C   UNL     1      -0.343  10.284  21.614  0.00  0.00    +0.000 C 
BRANCH   7   9
ATOM      9  C   UNL     1       0.209  11.794  19.628  0.00  0.00    +0.000 C 
BRANCH   9  10
ATOM     10  C   UNL     1      -1.217  12.168  19.227  0.00  0.00    +0.000 C 
BRANCH  10  11
ATOM     11  C   UNL     1      -1.552  11.567  17.861  0.00  0.00    +0.000 C 
BRANCH  11  12
ATOM     12  C   UNL     1      -2.369  10.295  18.055  0.00  0.00    +0.000 C 
BRANCH  12  13
ATOM     13  C   UNL     1      -2.708   9.664  16.710  0.00  0.00    +0.000 C 
BRANCH  13  15
ATOM     14  C   UNL     1      -3.082  10.126  14.276  0.00  0.00    +0.000 C 
ATOM     15  C   UNL     1      -2.798  10.746  15.636  0.00  0.00    +0.000 C 
ENDBRANCH  13  15
ENDBRANCH  12  13
ENDBRANCH  11  12
ENDBRANCH  10  11
ENDBRANCH   9  10
ENDBRANCH   7   9
ENDBRANCH   1   7
BRANCH   4  16
ATOM     16  C   UNL     1       3.278   6.162  17.911  0.00  0.00    +0.000 C 
BRANCH  16  17
ATOM     17  C   UNL     1       3.503   4.997  18.898  0.00  0.00    +0.000 C 
BRANCH  17  18
ATOM     18  C   UNL     1       4.239   3.768  18.285  0.00  0.00    +0.000 C 
BRANCH  18  19
ATOM     19  N   UNL     1       5.470   3.484  19.037  0.00  0.00    +0.000 NA
ATOM     20  H   UNL     1       5.745   2.479  18.957  0.00  0.00    +0.000 HD
ATOM     21  H   UNL     1       5.340   3.723  20.049  0.00  0.00    +0.000 HD
ENDBRANCH  18  19
BRANCH  18  22
ATOM     22  C   UNL     1       3.341   2.496  18.286  0.00  0.00    +0.000 C 
BRANCH  22  23
ATOM     23  O   UNL     1       4.078   1.334  18.006  0.00  0.00    +0.000 OA
ATOM     24  H   UNL     1       4.855   1.605  17.453  0.00  0.00    +0.000 HD
ENDBRANCH  22  23
ENDBRANCH  18  22
BRANCH  18  25
ATOM     25  C   UNL     1       4.627   4.111  16.823  0.00  0.00    +0.000 C 
BRANCH  25  26
ATOM     26  O   UNL     1       5.678   3.299  16.366  0.00  0.00    +0.000 OA
ATOM     27  H   UNL     1       6.358   3.278  17.087  0.00  0.00    +0.000 HD
ENDBRANCH  25  26
ENDBRANCH  18  25
ENDBRANCH  17  18
ENDBRANCH  16  17
ENDBRANCH   4  16
TORSDOF 15
ENDMDL
MODEL 3
REMARK VINA RESULT:      -6.3      4.850      7.960
REMARK  Name = 
REMARK  17 active torsions:
REMARK  status: ('A' for Active; 'I' for Inactive)
REMARK    1  A    between atoms: C_1  and  C_2
REMARK    2  A    between atoms: C_2  and  C_3
REMARK    3  A    between atoms: C_3  and  C_4
REMARK    4  A    between atoms: C_4  and  C_5
REMARK    5  A    between atoms: C_5  and  C_6
REMARK    6  A    between atoms: C_6  and  C_7
REMARK    7  A    between atoms: C_7  and  N_8
REMARK    8  A    between atoms: N_8  and  C_9
REMARK    9  A    between atoms: N_8  and  C_10
REMARK   10  A    between atoms: C_13  and  C_14
REMARK   11  A    between atoms: C_14  and  C_15
REMARK   12  A    between atoms: C_15  and  C_16
REMARK   13  A    between atoms: C_16  and  N_17
REMARK   14  A    between atoms: C_16  and  C_18
REMARK   15  A    between atoms: C_16  and  C_20
REMARK   16  A    between atoms: C_18  and  O_19
REMARK   17  A    between atoms: C_20  and  O_21
REMARK                            x       y       z     vdW  Elec       q    Type
REMARK                         _______ _______ _______ _____ _____    ______ ____
ROOT
ATOM      1  C   UNL     1       5.190   4.979  16.715  0.00  0.00    +0.000 A 
ATOM      2  C   UNL     1       4.314   6.012  17.125  0.00  0.00    +0.000 A 
ATOM      3  C   UNL     1       3.025   5.738  17.561  0.00  0.00    +0.000 A 
ATOM      4  C   UNL     1       2.554   4.428  17.605  0.00  0.00    +0.000 A 
ATOM      5  C   UNL     1       3.399   3.380  17.219  0.00  0.00    +0.000 A 
ATOM      6  C   UNL     1       4.696   3.648  16.771  0.00  0.00    +0.000 A 
ENDROOT
BRANCH   1   7
ATOM      7  N   UNL     1       6.536   5.254  16.256  0.00  0.00    +0.000 N 
ATOM      8  C   UNL     1       7.345   6.233  16.988  0.00  0.00    +0.000 C 
BRANCH   7   9
ATOM      9  C   UNL     1       7.030   4.632  15.022  0.00  0.00    +0.000 C 
BRANCH   9  10
ATOM     10  C   UNL     1       6.017   4.564  13.880  0.00  0.00    +0.000 C 
BRANCH  10  11
ATOM     11  C   UNL     1       6.632   3.853  12.674  0.00  0.00    +0.000 C 
BRANCH  11  12
ATOM     12  C   UNL     1       5.621   2.869  12.097  0.00  0.00    +0.000 C 
BRANCH  12  13
ATOM     13  C   UNL     1       4.321   3.580  11.741  0.00  0.00    +0.000 C 
BRANCH  13  15
ATOM     14  C   UNL     1       2.906   4.224   9.776  0.00  0.00    +0.000 C 
ATOM     15  C   UNL     1       3.894   3.204  10.324  0.00  0.00    +0.000 C 
ENDBRANCH  13  15
ENDBRANCH  12  13
ENDBRANCH  11  12
ENDBRANCH  10  11
ENDBRANCH   9  10
ENDBRANCH   7   9
ENDBRANCH   1   7
BRANCH   4  16
ATOM     16  C   UNL     1       1.162   4.160  18.101  0.00  0.00    +0.000 C 
BRANCH  16  17
ATOM     17  C   UNL     1       1.127   2.939  19.044  0.00  0.00    +0.000 C 
BRANCH  17  18
ATOM     18  C   UNL     1       1.587   3.239  20.502  0.00  0.00    +0.000 C 
BRANCH  18  19
ATOM     19  N   UNL     1       0.731   2.527  21.462  0.00  0.00    +0.000 NA
ATOM     20  H   UNL     1       1.187   1.652  21.807  0.00  0.00    +0.000 HD
ATOM     21  H   UNL     1      -0.186   2.282  21.019  0.00  0.00    +0.000 HD
ENDBRANCH  18  19
BRANCH  18  22
ATOM     22  C   UNL     1       3.068   2.822  20.738  0.00  0.00    +0.000 C 
BRANCH  22  23
ATOM     23  O   UNL     1       3.256   2.254  22.009  0.00  0.00    +0.000 OA
ATOM     24  H   UNL     1       2.521   1.605  22.153  0.00  0.00    +0.000 HD
ENDBRANCH  22  23
ENDBRANCH  18  22
BRANCH  18  25
ATOM     25  C   UNL     1       1.445   4.762  20.755  0.00  0.00    +0.000 C 
BRANCH  25  26
ATOM     26  O   UNL     1       2.590   5.289  21.374  0.00  0.00    +0.000 OA
ATOM     27  H   UNL     1       2.882   6.062  20.826  0.00  0.00    +0.000 HD
ENDBRANCH  25  26
ENDBRANCH  18  25
ENDBRANCH  17  18
ENDBRANCH  16  17
ENDBRANCH   4  16
TORSDOF 15
ENDMDL
MODEL 4
REMARK VINA RESULT:      -6.2      4.523      8.412
REMARK  Name = 
REMARK  17 active torsions:
REMARK  status: ('A' for Active; 'I' for Inactive)
REMARK    1  A    between atoms: C_1  and  C_2
REMARK    2  A    between atoms: C_2  and  C_3
REMARK    3  A    between atoms: C_3  and  C_4
REMARK    4  A    between atoms: C_4  and  C_5
REMARK    5  A    between atoms: C_5  and  C_6
REMARK    6  A    between atoms: C_6  and  C_7
REMARK    7  A    between atoms: C_7  and  N_8
REMARK    8  A    between atoms: N_8  and  C_9
REMARK    9  A    between atoms: N_8  and  C_10
REMARK   10  A    between atoms: C_13  and  C_14
REMARK   11  A    between atoms: C_14  and  C_15
REMARK   12  A    between atoms: C_15  and  C_16
REMARK   13  A    between atoms: C_16  and  N_17
REMARK   14  A    between atoms: C_16  and  C_18
REMARK   15  A    between atoms: C_16  and  C_20
REMARK   16  A    between atoms: C_18  and  O_19
REMARK   17  A    between atoms: C_20  and  O_21
REMARK                            x       y       z     vdW  Elec       q    Type
REMARK                         _______ _______ _______ _____ _____    ______ ____
ROOT
ATOM      1  C   UNL     1       2.887   6.836  18.678  0.00  0.00    +0.000 A 
ATOM      2  C   UNL     1       2.228   7.186  19.881  0.00  0.00    +0.000 A 
ATOM      3  C   UNL     1       1.531   8.379  20.004  0.00  0.00    +0.000 A 
ATOM      4  C   UNL     1       1.461   9.274  18.939  0.00  0.00    +0.000 A 
ATOM      5  C   UNL     1       2.091   8.954  17.729  0.00  0.00    +0.000 A 
ATOM      6  C   UNL     1       2.802   7.757  17.600  0.00  0.00    +0.000 A 
ENDROOT
BRANCH   1   7
ATOM      7  N   UNL     1       3.620   5.595  18.540  0.00  0.00    +0.000 N 
ATOM      8  C   UNL     1       4.765   5.349  19.423  0.00  0.00    +0.000 C 
BRANCH   7   9
ATOM      9  C   UNL     1       3.273   4.654  17.468  0.00  0.00    +0.000 C 
BRANCH   9  10
ATOM     10  C   UNL     1       1.845   4.112  17.521  0.00  0.00    +0.000 C 
BRANCH  10  11
ATOM     11  C   UNL     1       1.819   2.776  18.264  0.00  0.00    +0.000 C 
BRANCH  11  12
ATOM     12  C   UNL     1       0.697   2.793  19.296  0.00  0.00    +0.000 C 
BRANCH  12  13
ATOM     13  C   UNL     1       0.836   3.995  20.221  0.00  0.00    +0.000 C 
BRANCH  13  15
ATOM     14  C   UNL     1       1.752   2.467  21.983  0.00  0.00    +0.000 C 
ATOM     15  C   UNL     1       1.975   3.759  21.211  0.00  0.00    +0.000 C 
ENDBRANCH  13  15
ENDBRANCH  12  13
ENDBRANCH  11  12
ENDBRANCH  10  11
ENDBRANCH   9  10
ENDBRANCH   7   9
ENDBRANCH   1   7
BRANCH   4  16
ATOM     16  C   UNL     1       0.682  10.548  19.095  0.00  0.00    +0.000 C 
BRANCH  16  17
ATOM     17  C   UNL     1      -0.837  10.294  18.987  0.00  0.00    +0.000 C 
BRANCH  17  18
ATOM     18  C   UNL     1      -1.658  11.514  18.471  0.00  0.00    +0.000 C 
BRANCH  18  19
ATOM     19  N   UNL     1      -0.754  12.573  17.999  0.00  0.00    +0.000 NA
ATOM     20  H   UNL     1      -0.918  13.472  18.506  0.00  0.00    +0.000 HD
ATOM     21  H   UNL     1      -0.886  12.732  16.972  0.00  0.00    +0.000 HD
ENDBRANCH  18  19
BRANCH  18  22
ATOM     22  C   UNL     1      -2.619  11.115  17.313  0.00  0.00    +0.000 C 
BRANCH  22  23
ATOM     23  O   UNL     1      -3.697  12.008  17.197  0.00  0.00    +0.000 OA
ATOM     24  H   UNL     1      -4.266  11.887  17.999  0.00  0.00    +0.000 HD
ENDBRANCH  22  23
ENDBRANCH  18  22
BRANCH  18  25
ATOM     25  C   UNL     1      -2.493  12.074  19.651  0.00  0.00    +0.000 C 
BRANCH  25  26
ATOM     26  O   UNL     1      -2.600  13.473  19.587  0.00  0.00    +0.000 OA
ATOM     27  H   UNL     1      -3.554  13.680  19.416  0.00  0.00    +0.000 HD
ENDBRANCH  25  26
ENDBRANCH  18  25
ENDBRANCH  17  18
ENDBRANCH  16  17
ENDBRANCH   4  16
TORSDOF 15
ENDMDL
MODEL 5
REMARK VINA RESULT:      -6.2      3.956      7.985
REMARK  Name = 
REMARK  17 active torsions:
REMARK  status: ('A' for Active; 'I' for Inactive)
REMARK    1  A    between atoms: C_1  and  C_2
REMARK    2  A    between atoms: C_2  and  C_3
REMARK    3  A    between atoms: C_3  and  C_4
REMARK    4  A    between atoms: C_4  and  C_5
REMARK    5  A    between atoms: C_5  and  C_6
REMARK    6  A    between atoms: C_6  and  C_7
REMARK    7  A    between atoms: C_7  and  N_8
REMARK    8  A    between atoms: N_8  and  C_9
REMARK    9  A    between atoms: N_8  and  C_10
REMARK   10  A    between atoms: C_13  and  C_14
REMARK   11  A    between atoms: C_14  and  C_15
REMARK   12  A    between atoms: C_15  and  C_16
REMARK   13  A    between atoms: C_16  and  N_17
REMARK   14  A    between atoms: C_16  and  C_18
REMARK   15  A    between atoms: C_16  and  C_20
REMARK   16  A    between atoms: C_18  and  O_19
REMARK   17  A    between atoms: C_20  and  O_21
REMARK                            x       y       z     vdW  Elec       q    Type
REMARK                         _______ _______ _______ _____ _____    ______ ____
ROOT
ATOM      1  C   UNL     1       3.899   6.094  18.228  0.00  0.00    +0.000 A 
ATOM      2  C   UNL     1       3.608   7.259  17.478  0.00  0.00    +0.000 A 
ATOM      3  C   UNL     1       2.711   8.212  17.940  0.00  0.00    +0.000 A 
ATOM      4  C   UNL     1       2.065   8.046  19.162  0.00  0.00    +0.000 A 
ATOM      5  C   UNL     1       2.340   6.911  19.937  0.00  0.00    +0.000 A 
ATOM      6  C   UNL     1       3.237   5.943  19.476  0.00  0.00    +0.000 A 
ENDROOT
BRANCH   1   7
ATOM      7  N   UNL     1       4.832   5.093  17.754  0.00  0.00    +0.000 N 
ATOM      8  C   UNL     1       6.266   5.306  17.968  0.00  0.00    +0.000 C 
BRANCH   7   9
ATOM      9  C   UNL     1       4.341   3.939  16.991  0.00  0.00    +0.000 C 
BRANCH   9  10
ATOM     10  C   UNL     1       2.843   3.668  17.118  0.00  0.00    +0.000 C 
BRANCH  10  11
ATOM     11  C   UNL     1       2.605   2.218  17.540  0.00  0.00    +0.000 C 
BRANCH  11  12
ATOM     12  C   UNL     1       2.335   2.166  19.039  0.00  0.00    +0.000 C 
BRANCH  12  13
ATOM     13  C   UNL     1       0.922   2.645  19.347  0.00  0.00    +0.000 C 
BRANCH  13  15
ATOM     14  C   UNL     1       1.876   2.960  21.643  0.00  0.00    +0.000 C 
ATOM     15  C   UNL     1       0.933   3.529  20.593  0.00  0.00    +0.000 C 
ENDBRANCH  13  15
ENDBRANCH  12  13
ENDBRANCH  11  12
ENDBRANCH  10  11
ENDBRANCH   9  10
ENDBRANCH   7   9
ENDBRANCH   1   7
BRANCH   4  16
ATOM     16  C   UNL     1       1.115   9.104  19.645  0.00  0.00    +0.000 C 
BRANCH  16  17
ATOM     17  C   UNL     1       0.590   9.963  18.475  0.00  0.00    +0.000 C 
BRANCH  17  18
ATOM     18  C   UNL     1      -0.564  10.937  18.859  0.00  0.00    +0.000 C 
BRANCH  18  19
ATOM     19  N   UNL     1      -0.826  10.870  20.304  0.00  0.00    +0.000 NA
ATOM     20  H   UNL     1      -1.841  10.723  20.504  0.00  0.00    +0.000 HD
ATOM     21  H   UNL     1      -0.512  11.754  20.771  0.00  0.00    +0.000 HD
ENDBRANCH  18  19
BRANCH  18  22
ATOM     22  C   UNL     1      -0.231  12.408  18.472  0.00  0.00    +0.000 C 
BRANCH  22  23
ATOM     23  O   UNL     1      -1.066  12.881  17.447  0.00  0.00    +0.000 OA
ATOM     24  H   UNL     1      -1.682  13.544  17.852  0.00  0.00    +0.000 HD
ENDBRANCH  22  23
ENDBRANCH  18  22
BRANCH  18  25
ATOM     25  C   UNL     1      -1.846  10.495  18.109  0.00  0.00    +0.000 C 
BRANCH  25  26
ATOM     26  O   UNL     1      -1.549  10.012  16.824  0.00  0.00    +0.000 OA
ATOM     27  H   UNL     1      -1.556  10.795  16.215  0.00  0.00    +0.000 HD
ENDBRANCH  25  26
ENDBRANCH  18  25
ENDBRANCH  17  18
ENDBRANCH  16  17
ENDBRANCH   4  16
TORSDOF 15
ENDMDL
MODEL 6
REMARK VINA RESULT:      -6.2      1.563      2.248
REMARK  Name = 
REMARK  17 active torsions:
REMARK  status: ('A' for Active; 'I' for Inactive)
REMARK    1  A    between atoms: C_1  and  C_2
REMARK    2  A    between atoms: C_2  and  C_3
REMARK    3  A    between atoms: C_3  and  C_4
REMARK    4  A    between atoms: C_4  and  C_5
REMARK    5  A    between atoms: C_5  and  C_6
REMARK    6  A    between atoms: C_6  and  C_7
REMARK    7  A    between atoms: C_7  and  N_8
REMARK    8  A    between atoms: N_8  and  C_9
REMARK    9  A    between atoms: N_8  and  C_10
REMARK   10  A    between atoms: C_13  and  C_14
REMARK   11  A    between atoms: C_14  and  C_15
REMARK   12  A    between atoms: C_15  and  C_16
REMARK   13  A    between atoms: C_16  and  N_17
REMARK   14  A    between atoms: C_16  and  C_18
REMARK   15  A    between atoms: C_16  and  C_20
REMARK   16  A    between atoms: C_18  and  O_19
REMARK   17  A    between atoms: C_20  and  O_21
REMARK                            x       y       z     vdW  Elec       q    Type
REMARK                         _______ _______ _______ _____ _____    ______ ____
ROOT
ATOM      1  C   UNL     1       2.055   7.871  19.349  0.00  0.00    +0.000 A 
ATOM      2  C   UNL     1       2.184   6.585  19.926  0.00  0.00    +0.000 A 
ATOM      3  C   UNL     1       2.929   5.588  19.313  0.00  0.00    +0.000 A 
ATOM      4  C   UNL     1       3.572   5.826  18.101  0.00  0.00    +0.000 A 
ATOM      5  C   UNL     1       3.476   7.092  17.508  0.00  0.00    +0.000 A 
ATOM      6  C   UNL     1       2.722   8.100  18.116  0.00  0.00    +0.000 A 
ENDROOT
BRANCH   1   7
ATOM      7  N   UNL     1       1.277   8.918  19.980  0.00  0.00    +0.000 N 
ATOM      8  C   UNL     1       0.810   8.719  21.355  0.00  0.00    +0.000 C 
BRANCH   7   9
ATOM      9  C   UNL     1       0.889  10.107  19.211  0.00  0.00    +0.000 C 
BRANCH   9  10
ATOM     10  C   UNL     1       0.001   9.832  17.999  0.00  0.00    +0.000 C 
BRANCH  10  11
ATOM     11  C   UNL     1      -1.464  10.088  18.353  0.00  0.00    +0.000 C 
BRANCH  11  12
ATOM     12  C   UNL     1      -1.899  11.427  17.768  0.00  0.00    +0.000 C 
BRANCH  12  13
ATOM     13  C   UNL     1      -3.208  11.280  17.004  0.00  0.00    +0.000 C 
BRANCH  13  15
ATOM     14  C   UNL     1      -2.940  10.166  14.777  0.00  0.00    +0.000 C 
ATOM     15  C   UNL     1      -3.227   9.950  16.255  0.00  0.00    +0.000 C 
ENDBRANCH  13  15
ENDBRANCH  12  13
ENDBRANCH  11  12
ENDBRANCH  10  11
ENDBRANCH   9  10
ENDBRANCH   7   9
ENDBRANCH   1   7
BRANCH   4  16
ATOM     16  C   UNL     1       4.388   4.734  17.471  0.00  0.00    +0.000 C 
BRANCH  16  17
ATOM     17  C   UNL     1       5.753   4.577  18.173  0.00  0.00    +0.000 C 
BRANCH  17  18
ATOM     18  C   UNL     1       6.973   5.037  17.320  0.00  0.00    +0.000 C 
BRANCH  18  19
ATOM     19  N   UNL     1       8.095   4.103  17.489  0.00  0.00    +0.000 NA
ATOM     20  H   UNL     1       8.773   4.169  16.697  0.00  0.00    +0.000 HD
ATOM     21  H   UNL     1       7.741   3.119  17.554  0.00  0.00    +0.000 HD
ENDBRANCH  18  19
BRANCH  18  22
ATOM     22  C   UNL     1       6.617   5.131  15.807  0.00  0.00    +0.000 C 
BRANCH  22  23
ATOM     23  O   UNL     1       7.758   5.320  15.011  0.00  0.00    +0.000 OA
ATOM     24  H   UNL     1       7.615   6.147  14.483  0.00  0.00    +0.000 HD
ENDBRANCH  22  23
ENDBRANCH  18  22
BRANCH  18  25
ATOM     25  C   UNL     1       7.419   6.435  17.821  0.00  0.00    +0.000 C 
BRANCH  25  26
ATOM     26  O   UNL     1       7.182   7.427  16.856  0.00  0.00    +0.000 OA
ATOM     27  H   UNL     1       6.672   6.997  16.122  0.00  0.00    +0.000 HD
ENDBRANCH  25  26
ENDBRANCH  18  25
ENDBRANCH  17  18
ENDBRANCH  16  17
ENDBRANCH   4  16
TORSDOF 15
ENDMDL
MODEL 7
REMARK VINA RESULT:      -6.1      4.341      8.250
REMARK  Name = 
REMARK  17 active torsions:
REMARK  status: ('A' for Active; 'I' for Inactive)
REMARK    1  A    between atoms: C_1  and  C_2
REMARK    2  A    between atoms: C_2  and  C_3
REMARK    3  A    between atoms: C_3  and  C_4
REMARK    4  A    between atoms: C_4  and  C_5
REMARK    5  A    between atoms: C_5  and  C_6
REMARK    6  A    between atoms: C_6  and  C_7
REMARK    7  A    between atoms: C_7  and  N_8
REMARK    8  A    between atoms: N_8  and  C_9
REMARK    9  A    between atoms: N_8  and  C_10
REMARK   10  A    between atoms: C_13  and  C_14
REMARK   11  A    between atoms: C_14  and  C_15
REMARK   12  A    between atoms: C_15  and  C_16
REMARK   13  A    between atoms: C_16  and  N_17
REMARK   14  A    between atoms: C_16  and  C_18
REMARK   15  A    between atoms: C_16  and  C_20
REMARK   16  A    between atoms: C_18  and  O_19
REMARK   17  A    between atoms: C_20  and  O_21
REMARK                            x       y       z     vdW  Elec       q    Type
REMARK                         _______ _______ _______ _____ _____    ______ ____
ROOT
ATOM      1  C   UNL     1       3.062   6.689  18.633  0.00  0.00    +0.000 A 
ATOM      2  C   UNL     1       2.950   7.663  17.611  0.00  0.00    +0.000 A 
ATOM      3  C   UNL     1       2.164   8.795  17.774  0.00  0.00    +0.000 A 
ATOM      4  C   UNL     1       1.455   9.004  18.954  0.00  0.00    +0.000 A 
ATOM      5  C   UNL     1       1.553   8.067  19.990  0.00  0.00    +0.000 A 
ATOM      6  C   UNL     1       2.337   6.920  19.832  0.00  0.00    +0.000 A 
ENDROOT
BRANCH   1   7
ATOM      7  N   UNL     1       3.878   5.503  18.473  0.00  0.00    +0.000 N 
ATOM      8  C   UNL     1       5.035   5.318  19.354  0.00  0.00    +0.000 C 
BRANCH   7   9
ATOM      9  C   UNL     1       3.596   4.563  17.382  0.00  0.00    +0.000 C 
BRANCH   9  10
ATOM     10  C   UNL     1       2.171   4.014  17.352  0.00  0.00    +0.000 C 
BRANCH  10  11
ATOM     11  C   UNL     1       2.116   2.656  18.053  0.00  0.00    +0.000 C 
BRANCH  11  12
ATOM     12  C   UNL     1       0.810   2.540  18.831  0.00  0.00    +0.000 C 
BRANCH  12  13
ATOM     13  C   UNL     1       0.745   3.591  19.931  0.00  0.00    +0.000 C 
BRANCH  13  15
ATOM     14  C   UNL     1       1.709   2.480  21.959  0.00  0.00    +0.000 C 
ATOM     15  C   UNL     1       1.969   3.473  20.836  0.00  0.00    +0.000 C 
ENDBRANCH  13  15
ENDBRANCH  12  13
ENDBRANCH  11  12
ENDBRANCH  10  11
ENDBRANCH   9  10
ENDBRANCH   7   9
ENDBRANCH   1   7
BRANCH   4  16
ATOM     16  C   UNL     1       0.628  10.248  19.108  0.00  0.00    +0.000 C 
BRANCH  16  17
ATOM     17  C   UNL     1      -0.578  10.244  18.144  0.00  0.00    +0.000 C 
BRANCH  17  18
ATOM     18  C   UNL     1      -1.416  11.558  18.156  0.00  0.00    +0.000 C 
BRANCH  18  19
ATOM     19  N   UNL     1      -0.582  12.696  17.742  0.00  0.00    +0.000 NA
ATOM     20  H   UNL     1      -0.730  12.933  16.735  0.00  0.00    +0.000 HD
ATOM     21  H   UNL     1       0.431  12.479  17.895  0.00  0.00    +0.000 HD
ENDBRANCH  18  19
BRANCH  18  22
ATOM     22  C   UNL     1      -2.650  11.464  17.212  0.00  0.00    +0.000 C 
BRANCH  22  23
ATOM     23  O   UNL     1      -2.303  10.969  15.944  0.00  0.00    +0.000 OA
ATOM     24  H   UNL     1      -2.137  11.752  15.359  0.00  0.00    +0.000 HD
ENDBRANCH  22  23
ENDBRANCH  18  22
BRANCH  18  25
ATOM     25  C   UNL     1      -1.905  11.811  19.605  0.00  0.00    +0.000 C 
BRANCH  25  26
ATOM     26  O   UNL     1      -2.560  13.049  19.717  0.00  0.00    +0.000 OA
ATOM     27  H   UNL     1      -2.243  13.465  20.559  0.00  0.00    +0.000 HD
ENDBRANCH  25  26
ENDBRANCH  18  25
ENDBRANCH  17  18
ENDBRANCH  16  17
ENDBRANCH   4  16
TORSDOF 15
ENDMDL
MODEL 8
REMARK VINA RESULT:      -6.0      4.379      8.343
REMARK  Name = 
REMARK  17 active torsions:
REMARK  status: ('A' for Active; 'I' for Inactive)
REMARK    1  A    between atoms: C_1  and  C_2
REMARK    2  A    between atoms: C_2  and  C_3
REMARK    3  A    between atoms: C_3  and  C_4
REMARK    4  A    between atoms: C_4  and  C_5
REMARK    5  A    between atoms: C_5  and  C_6
REMARK    6  A    between atoms: C_6  and  C_7
REMARK    7  A    between atoms: C_7  and  N_8
REMARK    8  A    between atoms: N_8  and  C_9
REMARK    9  A    between atoms: N_8  and  C_10
REMARK   10  A    between atoms: C_13  and  C_14
REMARK   11  A    between atoms: C_14  and  C_15
REMARK   12  A    between atoms: C_15  and  C_16
REMARK   13  A    between atoms: C_16  and  N_17
REMARK   14  A    between atoms: C_16  and  C_18
REMARK   15  A    between atoms: C_16  and  C_20
REMARK   16  A    between atoms: C_18  and  O_19
REMARK   17  A    between atoms: C_20  and  O_21
REMARK                            x       y       z     vdW  Elec       q    Type
REMARK                         _______ _______ _______ _____ _____    ______ ____
ROOT
ATOM      1  C   UNL     1       2.877   7.175  18.390  0.00  0.00    +0.000 A 
ATOM      2  C   UNL     1       2.379   7.260  19.713  0.00  0.00    +0.000 A 
ATOM      3  C   UNL     1       1.542   8.295  20.106  0.00  0.00    +0.000 A 
ATOM      4  C   UNL     1       1.168   9.287  19.204  0.00  0.00    +0.000 A 
ATOM      5  C   UNL     1       1.631   9.227  17.883  0.00  0.00    +0.000 A 
ATOM      6  C   UNL     1       2.481   8.192  17.481  0.00  0.00    +0.000 A 
ENDROOT
BRANCH   1   7
ATOM      7  N   UNL     1       3.753   6.102  17.970  0.00  0.00    +0.000 N 
ATOM      8  C   UNL     1       5.181   6.384  17.792  0.00  0.00    +0.000 C 
BRANCH   7   9
ATOM      9  C   UNL     1       3.193   4.786  17.639  0.00  0.00    +0.000 C 
BRANCH   9  10
ATOM     10  C   UNL     1       1.703   4.624  17.937  0.00  0.00    +0.000 C 
BRANCH  10  11
ATOM     11  C   UNL     1       1.349   3.141  18.050  0.00  0.00    +0.000 C 
BRANCH  11  12
ATOM     12  C   UNL     1       0.956   2.823  19.488  0.00  0.00    +0.000 C 
BRANCH  12  13
ATOM     13  C   UNL     1       0.957   4.087  20.338  0.00  0.00    +0.000 C 
BRANCH  13  15
ATOM     14  C   UNL     1       2.392   2.605  21.760  0.00  0.00    +0.000 C 
ATOM     15  C   UNL     1       2.109   4.040  21.340  0.00  0.00    +0.000 C 
ENDBRANCH  13  15
ENDBRANCH  12  13
ENDBRANCH  11  12
ENDBRANCH  10  11
ENDBRANCH   9  10
ENDBRANCH   7   9
ENDBRANCH   1   7
BRANCH   4  16
ATOM     16  C   UNL     1       0.244  10.383  19.653  0.00  0.00    +0.000 C 
BRANCH  16  17
ATOM     17  C   UNL     1      -1.049  10.408  18.811  0.00  0.00    +0.000 C 
BRANCH  17  18
ATOM     18  C   UNL     1      -1.612  11.836  18.540  0.00  0.00    +0.000 C 
BRANCH  18  19
ATOM     19  N   UNL     1      -1.714  12.077  17.093  0.00  0.00    +0.000 NA
ATOM     20  H   UNL     1      -2.371  11.403  16.638  0.00  0.00    +0.000 HD
ATOM     21  H   UNL     1      -0.772  11.991  16.644  0.00  0.00    +0.000 HD
ENDBRANCH  18  19
BRANCH  18  22
ATOM     22  C   UNL     1      -3.015  12.035  19.186  0.00  0.00    +0.000 C 
BRANCH  22  23
ATOM     23  O   UNL     1      -3.136  13.295  19.795  0.00  0.00    +0.000 OA
ATOM     24  H   UNL     1      -4.056  13.359  20.158  0.00  0.00    +0.000 HD
ENDBRANCH  22  23
ENDBRANCH  18  22
BRANCH  18  25
ATOM     25  C   UNL     1      -0.627  12.871  19.140  0.00  0.00    +0.000 C 
BRANCH  25  26
ATOM     26  O   UNL     1      -0.661  14.083  18.432  0.00  0.00    +0.000 OA
ATOM     27  H   UNL     1       0.029  14.670  18.835  0.00  0.00    +0.000 HD
ENDBRANCH  25  26
ENDBRANCH  18  25
ENDBRANCH  17  18
ENDBRANCH  16  17
ENDBRANCH   4  16
TORSDOF 15
ENDMDL
MODEL 9
REMARK VINA RESULT:      -6.0      4.167      8.285
REMARK  Name = 
REMARK  17 active torsions:
REMARK  status: ('A' for Active; 'I' for Inactive)
REMARK    1  A    between atoms: C_1  and  C_2
REMARK    2  A    between atoms: C_2  and  C_3
REMARK    3  A    between atoms: C_3  and  C_4
REMARK    4  A    between atoms: C_4  and  C_5
REMARK    5  A    between atoms: C_5  and  C_6
REMARK    6  A    between atoms: C_6  and  C_7
REMARK    7  A    between atoms: C_7  and  N_8
REMARK    8  A    between atoms: N_8  and  C_9
REMARK    9  A    between atoms: N_8  and  C_10
REMARK   10  A    between atoms: C_13  and  C_14
REMARK   11  A    between atoms: C_14  and  C_15
REMARK   12  A    between atoms: C_15  and  C_16
REMARK   13  A    between atoms: C_16  and  N_17
REMARK   14  A    between atoms: C_16  and  C_18
REMARK   15  A    between atoms: C_16  and  C_20
REMARK   16  A    between atoms: C_18  and  O_19
REMARK   17  A    between atoms: C_20  and  O_21
REMARK                            x       y       z     vdW  Elec       q    Type
REMARK                         _______ _______ _______ _____ _____    ______ ____
ROOT
ATOM      1  C   UNL     1       3.000   7.027  18.335  0.00  0.00    +0.000 A 
ATOM      2  C   UNL     1       2.465   6.948  19.644  0.00  0.00    +0.000 A 
ATOM      3  C   UNL     1       1.617   7.929  20.139  0.00  0.00    +0.000 A 
ATOM      4  C   UNL     1       1.268   9.027  19.357  0.00  0.00    +0.000 A 
ATOM      5  C   UNL     1       1.769   9.130  18.053  0.00  0.00    +0.000 A 
ATOM      6  C   UNL     1       2.630   8.150  17.549  0.00  0.00    +0.000 A 
ENDROOT
BRANCH   1   7
ATOM      7  N   UNL     1       3.888   6.010  17.810  0.00  0.00    +0.000 N 
ATOM      8  C   UNL     1       5.268   6.379  17.482  0.00  0.00    +0.000 C 
BRANCH   7   9
ATOM      9  C   UNL     1       3.373   4.665  17.524  0.00  0.00    +0.000 C 
BRANCH   9  10
ATOM     10  C   UNL     1       4.189   3.520  18.121  0.00  0.00    +0.000 C 
BRANCH  10  11
ATOM     11  C   UNL     1       4.224   3.638  19.645  0.00  0.00    +0.000 C 
BRANCH  11  12
ATOM     12  C   UNL     1       3.267   2.620  20.254  0.00  0.00    +0.000 C 
BRANCH  12  13
ATOM     13  C   UNL     1       2.239   3.312  21.140  0.00  0.00    +0.000 C 
BRANCH  13  15
ATOM     14  C   UNL     1       0.729   2.607  19.268  0.00  0.00    +0.000 C 
ATOM     15  C   UNL     1       1.004   3.675  20.317  0.00  0.00    +0.000 C 
ENDBRANCH  13  15
ENDBRANCH  12  13
ENDBRANCH  11  12
ENDBRANCH  10  11
ENDBRANCH   9  10
ENDBRANCH   7   9
ENDBRANCH   1   7
BRANCH   4  16
ATOM     16  C   UNL     1       0.333  10.062  19.913  0.00  0.00    +0.000 C 
BRANCH  16  17
ATOM     17  C   UNL     1       0.276  11.311  19.007  0.00  0.00    +0.000 C 
BRANCH  17  18
ATOM     18  C   UNL     1      -1.138  11.623  18.430  0.00  0.00    +0.000 C 
BRANCH  18  19
ATOM     19  N   UNL     1      -1.070  12.767  17.509  0.00  0.00    +0.000 NA
ATOM     20  H   UNL     1      -0.087  12.965  17.215  0.00  0.00    +0.000 HD
ATOM     21  H   UNL     1      -1.470  13.622  17.963  0.00  0.00    +0.000 HD
ENDBRANCH  18  19
BRANCH  18  22
ATOM     22  C   UNL     1      -1.736  10.399  17.675  0.00  0.00    +0.000 C 
BRANCH  22  23
ATOM     23  O   UNL     1      -2.010  10.697  16.330  0.00  0.00    +0.000 OA
ATOM     24  H   UNL     1      -2.937  10.398  16.146  0.00  0.00    +0.000 HD
ENDBRANCH  22  23
ENDBRANCH  18  22
BRANCH  18  25
ATOM     25  C   UNL     1      -2.074  11.997  19.608  0.00  0.00    +0.000 C 
BRANCH  25  26
ATOM     26  O   UNL     1      -2.273  13.385  19.685  0.00  0.00    +0.000 OA
ATOM     27  H   UNL     1      -2.242  13.731  18.757  0.00  0.00    +0.000 HD
ENDBRANCH  25  26
ENDBRANCH  18  25
ENDBRANCH  17  18
ENDBRANCH  16  17
ENDBRANCH   4  16
TORSDOF 15
ENDMDL
