MODEL 1
REMARK VINA RESULT:      -8.1      0.000      0.000
REMARK  Name = 
REMARK  8 active torsions:
REMARK  status: ('A' for Active; 'I' for Inactive)
REMARK    1  A    between atoms: C_1  and  C_2
REMARK    2  A    between atoms: C_2  and  C_3
REMARK    3  A    between atoms: C_2  and  S_4
REMARK    4  A    between atoms: S_4  and  N_7
REMARK    5  A    between atoms: N_7  and  C_8
REMARK    6  A    between atoms: C_8  and  C_9
REMARK    7  A    between atoms: C_12  and  N_13
REMARK    8  A    between atoms: C_16  and  C_17
REMARK                            x       y       z     vdW  Elec       q    Type
REMARK                         _______ _______ _______ _____ _____    ______ ____
ROOT
ATOM      1  C   UNL     1       7.754   7.783  17.655  0.00  0.00    +0.000 C 
ATOM      2  C   UNL     1       8.199   6.912  18.840  0.00  0.00    +0.000 C 
ATOM      3  C   UNL     1       7.713   5.474  18.686  0.00  0.00    +0.000 C 
ATOM      4  C   UNL     1       6.193   5.434  18.519  0.00  0.00    +0.000 C 
ATOM      5  C   UNL     1       5.756   6.275  17.313  0.00  0.00    +0.000 C 
ATOM      6  C   UNL     1       6.230   7.726  17.464  0.00  0.00    +0.000 C 
ENDROOT
BRANCH   4   7
ATOM      7  N   UNL     1       5.764   4.061  18.365  0.00  0.00    +0.000 N 
ATOM      8  C   UNL     1       4.619   3.652  18.916  0.00  0.00    +0.000 A 
ATOM      9  N   UNL     1       3.751   4.330  19.628  0.00  0.00    +0.000 NA
ATOM     10  C   UNL     1       2.784   3.400  19.969  0.00  0.00    +0.000 A 
ATOM     11  C   UNL     1       3.130   2.185  19.418  0.00  0.00    +0.000 A 
ATOM     12  O   UNL     1       4.301   2.339  18.739  0.00  0.00    +0.000 OA
ATOM     13  H   UNL     1       6.316   3.427  17.802  0.00  0.00    +0.000 HD
BRANCH  10  14
ATOM     14  C   UNL     1       1.599   3.721  20.806  0.00  0.00    +0.000 C 
ATOM     15  F   UNL     1       1.775   3.439  22.123  0.00  0.00    +0.000 F 
ATOM     16  F   UNL     1       1.274   5.039  20.729  0.00  0.00    +0.000 F 
ATOM     17  F   UNL     1       0.499   3.031  20.402  0.00  0.00    +0.000 F 
ENDBRANCH  10  14
ENDBRANCH   4   7
BRANCH   1  18
ATOM     18  C   UNL     1       8.250   9.222  17.814  0.00  0.00    +0.000 C 
BRANCH  18  19
ATOM     19  N   UNL     1       9.146   9.400  19.000  0.00  0.00    +0.000 NA
ATOM     20  H   UNL     1       8.744   8.901  19.797  0.00  0.00    +0.000 HD
BRANCH  19  21
ATOM     21  S   UNL     1       9.468  11.009  19.447  0.00  0.00    +0.000 S 
ATOM     22  O   UNL     1       9.421  11.022  20.892  0.00  0.00    +0.000 OA
ATOM     23  O   UNL     1       8.649  11.894  18.651  0.00  0.00    +0.000 OA
BRANCH  21  25
ATOM     24  C   UNL     1      11.280  11.972  17.608  0.00  0.00    +0.000 C 
ATOM     25  C   UNL     1      11.182  11.217  18.929  0.00  0.00    +0.000 C 
ATOM     26  C   UNL     1      11.943  11.952  20.031  0.00  0.00    +0.000 C 
ENDBRANCH  21  25
ENDBRANCH  19  21
ENDBRANCH  18  19
ENDBRANCH   1  18
TORSDOF 6
ENDMDL
MODEL 2
REMARK VINA RESULT:      -8.0      0.915      1.438
REMARK  Name = 
REMARK  8 active torsions:
REMARK  status: ('A' for Active; 'I' for Inactive)
REMARK    1  A    between atoms: C_1  and  C_2
REMARK    2  A    between atoms: C_2  and  C_3
REMARK    3  A    between atoms: C_2  and  S_4
REMARK    4  A    between atoms: S_4  and  N_7
REMARK    5  A    between atoms: N_7  and  C_8
REMARK    6  A    between atoms: C_8  and  C_9
REMARK    7  A    between atoms: C_12  and  N_13
REMARK    8  A    between atoms: C_16  and  C_17
REMARK                            x       y       z     vdW  Elec       q    Type
REMARK                         _______ _______ _______ _____ _____    ______ ____
ROOT
ATOM      1  C   UNL     1       7.689   7.727  17.536  0.00  0.00    +0.000 C 
ATOM      2  C   UNL     1       8.159   7.076  18.847  0.00  0.00    +0.000 C 
ATOM      3  C   UNL     1       7.775   5.601  18.903  0.00  0.00    +0.000 C 
ATOM      4  C   UNL     1       6.267   5.429  18.718  0.00  0.00    +0.000 C 
ATOM      5  C   UNL     1       5.808   6.048  17.392  0.00  0.00    +0.000 C 
ATOM      6  C   UNL     1       6.179   7.534  17.331  0.00  0.00    +0.000 C 
ENDROOT
BRANCH   4   7
ATOM      7  N   UNL     1       5.935   4.021  18.765  0.00  0.00    +0.000 N 
ATOM      8  C   UNL     1       4.747   3.629  19.229  0.00  0.00    +0.000 A 
ATOM      9  N   UNL     1       3.753   4.353  19.684  0.00  0.00    +0.000 NA
ATOM     10  C   UNL     1       2.796   3.425  20.061  0.00  0.00    +0.000 A 
ATOM     11  C   UNL     1       3.279   2.163  19.793  0.00  0.00    +0.000 A 
ATOM     12  O   UNL     1       4.526   2.284  19.257  0.00  0.00    +0.000 OA
ATOM     13  H   UNL     1       6.594   3.343  18.405  0.00  0.00    +0.000 HD
BRANCH  10  14
ATOM     14  C   UNL     1       1.490   3.797  20.663  0.00  0.00    +0.000 C 
ATOM     15  F   UNL     1       0.423   3.452  19.896  0.00  0.00    +0.000 F 
ATOM     16  F   UNL     1       1.308   3.203  21.873  0.00  0.00    +0.000 F 
ATOM     17  F   UNL     1       1.401   5.137  20.877  0.00  0.00    +0.000 F 
ENDBRANCH  10  14
ENDBRANCH   4   7
BRANCH   1  18
ATOM     18  C   UNL     1       8.083   9.205  17.486  0.00  0.00    +0.000 C 
BRANCH  18  19
ATOM     19  N   UNL     1       8.866   9.640  18.685  0.00  0.00    +0.000 NA
ATOM     20  H   UNL     1       8.250   9.636  19.502  0.00  0.00    +0.000 HD
BRANCH  19  21
ATOM     21  S   UNL     1       9.627  11.155  18.561  0.00  0.00    +0.000 S 
ATOM     22  O   UNL     1       8.553  12.114  18.426  0.00  0.00    +0.000 OA
ATOM     23  O   UNL     1      10.697  11.069  17.593  0.00  0.00    +0.000 OA
BRANCH  21  25
ATOM     24  C   UNL     1      11.729  12.029  20.115  0.00  0.00    +0.000 C 
ATOM     25  C   UNL     1      10.366  11.350  20.193  0.00  0.00    +0.000 C 
ATOM     26  C   UNL     1       9.411  12.156  21.072  0.00  0.00    +0.000 C 
ENDBRANCH  21  25
ENDBRANCH  19  21
ENDBRANCH  18  19
ENDBRANCH   1  18
TORSDOF 6
ENDMDL
MODEL 3
REMARK VINA RESULT:      -7.9      5.954      8.520
REMARK  Name = 
REMARK  8 active torsions:
REMARK  status: ('A' for Active; 'I' for Inactive)
REMARK    1  A    between atoms: C_1  and  C_2
REMARK    2  A    between atoms: C_2  and  C_3
REMARK    3  A    between atoms: C_2  and  S_4
REMARK    4  A    between atoms: S_4  and  N_7
REMARK    5  A    between atoms: N_7  and  C_8
REMARK    6  A    between atoms: C_8  and  C_9
REMARK    7  A    between atoms: C_12  and  N_13
REMARK    8  A    between atoms: C_16  and  C_17
REMARK                            x       y       z     vdW  Elec       q    Type
REMARK                         _______ _______ _______ _____ _____    ______ ____
ROOT
ATOM      1  C   UNL     1       3.811   6.131  19.138  0.00  0.00    +0.000 C 
ATOM      2  C   UNL     1       5.030   5.225  19.376  0.00  0.00    +0.000 C 
ATOM      3  C   UNL     1       6.171   5.567  18.423  0.00  0.00    +0.000 C 
ATOM      4  C   UNL     1       5.704   5.481  16.970  0.00  0.00    +0.000 C 
ATOM      5  C   UNL     1       4.510   6.413  16.727  0.00  0.00    +0.000 C 
ATOM      6  C   UNL     1       3.353   6.070  17.673  0.00  0.00    +0.000 C 
ENDROOT
BRANCH   4   7
ATOM      7  N   UNL     1       6.802   5.820  16.091  0.00  0.00    +0.000 N 
ATOM      8  C   UNL     1       6.888   5.264  14.881  0.00  0.00    +0.000 A 
ATOM      9  N   UNL     1       6.088   4.398  14.306  0.00  0.00    +0.000 NA
ATOM     10  C   UNL     1       6.679   4.144  13.081  0.00  0.00    +0.000 A 
ATOM     11  C   UNL     1       7.826   4.901  12.981  0.00  0.00    +0.000 A 
ATOM     12  O   UNL     1       7.964   5.624  14.128  0.00  0.00    +0.000 OA
ATOM     13  H   UNL     1       7.479   6.512  16.386  0.00  0.00    +0.000 HD
BRANCH  10  14
ATOM     14  C   UNL     1       6.124   3.189  12.087  0.00  0.00    +0.000 C 
ATOM     15  F   UNL     1       5.121   3.713  11.335  0.00  0.00    +0.000 F 
ATOM     16  F   UNL     1       7.078   2.757  11.219  0.00  0.00    +0.000 F 
ATOM     17  F   UNL     1       5.622   2.077  12.688  0.00  0.00    +0.000 F 
ENDBRANCH  10  14
ENDBRANCH   4   7
BRANCH   1  18
ATOM     18  C   UNL     1       2.674   5.785  20.101  0.00  0.00    +0.000 C 
BRANCH  18  19
ATOM     19  N   UNL     1       2.934   4.536  20.884  0.00  0.00    +0.000 NA
ATOM     20  H   UNL     1       3.819   4.128  20.572  0.00  0.00    +0.000 HD
BRANCH  19  21
ATOM     21  S   UNL     1       1.714   3.354  20.815  0.00  0.00    +0.000 S 
ATOM     22  O   UNL     1       0.546   4.037  20.307  0.00  0.00    +0.000 OA
ATOM     23  O   UNL     1       1.687   2.629  22.065  0.00  0.00    +0.000 OA
BRANCH  21  25
ATOM     24  C   UNL     1       1.911   2.702  18.145  0.00  0.00    +0.000 C 
ATOM     25  C   UNL     1       2.327   2.240  19.537  0.00  0.00    +0.000 C 
ATOM     26  C   UNL     1       3.849   2.157  19.647  0.00  0.00    +0.000 C 
ENDBRANCH  21  25
ENDBRANCH  19  21
ENDBRANCH  18  19
ENDBRANCH   1  18
TORSDOF 6
ENDMDL
MODEL 4
REMARK VINA RESULT:      -7.8      0.888      1.116
REMARK  Name = 
REMARK  8 active torsions:
REMARK  status: ('A' for Active; 'I' for Inactive)
REMARK    1  A    between atoms: C_1  and  C_2
REMARK    2  A    between atoms: C_2  and  C_3
REMARK    3  A    between atoms: C_2  and  S_4
REMARK    4  A    between atoms: S_4  and  N_7
REMARK    5  A    between atoms: N_7  and  C_8
REMARK    6  A    between atoms: C_8  and  C_9
REMARK    7  A    between atoms: C_12  and  N_13
REMARK    8  A    between atoms: C_16  and  C_17
REMARK                            x       y       z     vdW  Elec       q    Type
REMARK                         _______ _______ _______ _____ _____    ______ ____
ROOT
ATOM      1  C   UNL     1       7.839   7.809  17.758  0.00  0.00    +0.000 C 
ATOM      2  C   UNL     1       8.227   6.957  18.977  0.00  0.00    +0.000 C 
ATOM      3  C   UNL     1       7.751   5.516  18.822  0.00  0.00    +0.000 C 
ATOM      4  C   UNL     1       6.242   5.469  18.581  0.00  0.00    +0.000 C 
ATOM      5  C   UNL     1       5.863   6.290  17.342  0.00  0.00    +0.000 C 
ATOM      6  C   UNL     1       6.326   7.744  17.494  0.00  0.00    +0.000 C 
ENDROOT
BRANCH   4   7
ATOM      7  N   UNL     1       5.823   4.092  18.427  0.00  0.00    +0.000 N 
ATOM      8  C   UNL     1       4.654   3.688  18.928  0.00  0.00    +0.000 A 
ATOM      9  N   UNL     1       3.751   4.375  19.585  0.00  0.00    +0.000 NA
ATOM     10  C   UNL     1       2.770   3.448  19.892  0.00  0.00    +0.000 A 
ATOM     11  C   UNL     1       3.145   2.225  19.378  0.00  0.00    +0.000 A 
ATOM     12  O   UNL     1       4.348   2.372  18.756  0.00  0.00    +0.000 OA
ATOM     13  H   UNL     1       6.404   3.452  17.902  0.00  0.00    +0.000 HD
BRANCH  10  14
ATOM     14  C   UNL     1       1.544   3.779  20.665  0.00  0.00    +0.000 C 
ATOM     15  F   UNL     1       1.501   3.190  21.889  0.00  0.00    +0.000 F 
ATOM     16  F   UNL     1       1.429   5.118  20.872  0.00  0.00    +0.000 F 
ATOM     17  F   UNL     1       0.419   3.395  20.006  0.00  0.00    +0.000 F 
ENDBRANCH  10  14
ENDBRANCH   4   7
BRANCH   1  18
ATOM     18  C   UNL     1       8.323   9.252  17.919  0.00  0.00    +0.000 C 
BRANCH  18  19
ATOM     19  N   UNL     1       9.183   9.444  19.129  0.00  0.00    +0.000 NA
ATOM     20  H   UNL     1       8.699   9.060  19.944  0.00  0.00    +0.000 HD
BRANCH  19  21
ATOM     21  S   UNL     1       9.652  11.046  19.455  0.00  0.00    +0.000 S 
ATOM     22  O   UNL     1      11.062  10.977  19.764  0.00  0.00    +0.000 OA
ATOM     23  O   UNL     1       8.701  11.640  20.367  0.00  0.00    +0.000 OA
BRANCH  21  25
ATOM     24  C   UNL     1       8.426  12.963  17.900  0.00  0.00    +0.000 C 
ATOM     25  C   UNL     1       9.456  11.839  17.848  0.00  0.00    +0.000 C 
ATOM     26  C   UNL     1      10.814  12.371  17.394  0.00  0.00    +0.000 C 
ENDBRANCH  21  25
ENDBRANCH  19  21
ENDBRANCH  18  19
ENDBRANCH   1  18
TORSDOF 6
ENDMDL
MODEL 5
REMARK VINA RESULT:      -7.6      6.353      9.148
REMARK  Name = 
REMARK  8 active torsions:
REMARK  status: ('A' for Active; 'I' for Inactive)
REMARK    1  A    between atoms: C_1  and  C_2
REMARK    2  A    between atoms: C_2  and  C_3
REMARK    3  A    between atoms: C_2  and  S_4
REMARK    4  A    between atoms: S_4  and  N_7
REMARK    5  A    between atoms: N_7  and  C_8
REMARK    6  A    between atoms: C_8  and  C_9
REMARK    7  A    between atoms: C_12  and  N_13
REMARK    8  A    between atoms: C_16  and  C_17
REMARK                            x       y       z     vdW  Elec       q    Type
REMARK                         _______ _______ _______ _____ _____    ______ ____
ROOT
ATOM      1  C   UNL     1       3.390   6.552  18.831  0.00  0.00    +0.000 C 
ATOM      2  C   UNL     1       2.964   7.342  17.583  0.00  0.00    +0.000 C 
ATOM      3  C   UNL     1       2.507   8.750  17.947  0.00  0.00    +0.000 C 
ATOM      4  C   UNL     1       1.376   8.701  18.975  0.00  0.00    +0.000 C 
ATOM      5  C   UNL     1       1.817   7.944  20.233  0.00  0.00    +0.000 C 
ATOM      6  C   UNL     1       2.268   6.522  19.879  0.00  0.00    +0.000 C 
ENDROOT
BRANCH   4   7
ATOM      7  N   UNL     1       0.971  10.051  19.308  0.00  0.00    +0.000 N 
ATOM      8  C   UNL     1      -0.113  10.583  18.740  0.00  0.00    +0.000 A 
ATOM      9  N   UNL     1      -0.937  10.056  17.867  0.00  0.00    +0.000 NA
ATOM     10  C   UNL     1      -1.849  11.065  17.602  0.00  0.00    +0.000 A 
ATOM     11  C   UNL     1      -1.517  12.166  18.361  0.00  0.00    +0.000 A 
ATOM     12  O   UNL     1      -0.410  11.865  19.095  0.00  0.00    +0.000 OA
ATOM     13  H   UNL     1       1.492  10.568  20.003  0.00  0.00    +0.000 HD
BRANCH  10  14
ATOM     14  C   UNL     1      -2.969  10.922  16.636  0.00  0.00    +0.000 C 
ATOM     15  F   UNL     1      -4.035  11.714  16.923  0.00  0.00    +0.000 F 
ATOM     16  F   UNL     1      -2.582  11.232  15.370  0.00  0.00    +0.000 F 
ATOM     17  F   UNL     1      -3.431   9.644  16.593  0.00  0.00    +0.000 F 
ENDBRANCH  10  14
ENDBRANCH   4   7
BRANCH   1  18
ATOM     18  C   UNL     1       3.853   5.141  18.456  0.00  0.00    +0.000 C 
BRANCH  18  19
ATOM     19  N   UNL     1       4.093   4.272  19.650  0.00  0.00    +0.000 NA
ATOM     20  H   UNL     1       5.068   4.371  19.942  0.00  0.00    +0.000 HD
BRANCH  19  21
ATOM     21  S   UNL     1       3.732   2.623  19.447  0.00  0.00    +0.000 S 
ATOM     22  O   UNL     1       4.740   1.914  20.202  0.00  0.00    +0.000 OA
ATOM     23  O   UNL     1       3.505   2.357  18.044  0.00  0.00    +0.000 OA
BRANCH  21  25
ATOM     24  C   UNL     1       2.152   3.243  21.618  0.00  0.00    +0.000 C 
ATOM     25  C   UNL     1       2.156   2.464  20.307  0.00  0.00    +0.000 C 
ATOM     26  C   UNL     1       1.041   2.953  19.384  0.00  0.00    +0.000 C 
ENDBRANCH  21  25
ENDBRANCH  19  21
ENDBRANCH  18  19
ENDBRANCH   1  18
TORSDOF 6
ENDMDL
MODEL 6
REMARK VINA RESULT:      -7.5      1.198      1.444
REMARK  Name = 
REMARK  8 active torsions:
REMARK  status: ('A' for Active; 'I' for Inactive)
REMARK    1  A    between atoms: C_1  and  C_2
REMARK    2  A    between atoms: C_2  and  C_3
REMARK    3  A    between atoms: C_2  and  S_4
REMARK    4  A    between atoms: S_4  and  N_7
REMARK    5  A    between atoms: N_7  and  C_8
REMARK    6  A    between atoms: C_8  and  C_9
REMARK    7  A    between atoms: C_12  and  N_13
REMARK    8  A    between atoms: C_16  and  C_17
REMARK                            x       y       z     vdW  Elec       q    Type
REMARK                         _______ _______ _______ _____ _____    ______ ____
ROOT
ATOM      1  C   UNL     1       7.733   7.871  17.548  0.00  0.00    +0.000 C 
ATOM      2  C   UNL     1       8.164   7.306  18.911  0.00  0.00    +0.000 C 
ATOM      3  C   UNL     1       7.852   5.816  19.018  0.00  0.00    +0.000 C 
ATOM      4  C   UNL     1       6.367   5.557  18.764  0.00  0.00    +0.000 C 
ATOM      5  C   UNL     1       5.949   6.090  17.388  0.00  0.00    +0.000 C 
ATOM      6  C   UNL     1       6.247   7.590  17.275  0.00  0.00    +0.000 C 
ENDROOT
BRANCH   4   7
ATOM      7  N   UNL     1       6.105   4.137  18.861  0.00  0.00    +0.000 N 
ATOM      8  C   UNL     1       4.927   3.703  19.315  0.00  0.00    +0.000 A 
ATOM      9  N   UNL     1       3.888   4.394  19.720  0.00  0.00    +0.000 NA
ATOM     10  C   UNL     1       2.970   3.435  20.115  0.00  0.00    +0.000 A 
ATOM     11  C   UNL     1       3.521   2.188  19.908  0.00  0.00    +0.000 A 
ATOM     12  O   UNL     1       4.772   2.352  19.393  0.00  0.00    +0.000 OA
ATOM     13  H   UNL     1       6.804   3.479  18.543  0.00  0.00    +0.000 HD
BRANCH  10  14
ATOM     14  C   UNL     1       1.634   3.763  20.674  0.00  0.00    +0.000 C 
ATOM     15  F   UNL     1       1.469   3.354  21.959  0.00  0.00    +0.000 F 
ATOM     16  F   UNL     1       1.399   5.103  20.659  0.00  0.00    +0.000 F 
ATOM     17  F   UNL     1       0.634   3.192  19.950  0.00  0.00    +0.000 F 
ENDBRANCH  10  14
ENDBRANCH   4   7
BRANCH   1  18
ATOM     18  C   UNL     1       8.054   9.365  17.448  0.00  0.00    +0.000 C 
BRANCH  18  19
ATOM     19  N   UNL     1       8.990   9.831  18.517  0.00  0.00    +0.000 NA
ATOM     20  H   UNL     1       8.519   9.765  19.423  0.00  0.00    +0.000 HD
BRANCH  19  21
ATOM     21  S   UNL     1       9.613  11.401  18.320  0.00  0.00    +0.000 S 
ATOM     22  O   UNL     1       8.550  12.161  17.700  0.00  0.00    +0.000 OA
ATOM     23  O   UNL     1      10.931  11.316  17.731  0.00  0.00    +0.000 OA
BRANCH  21  25
ATOM     24  C   UNL     1       9.099  13.295  20.254  0.00  0.00    +0.000 C 
ATOM     25  C   UNL     1       9.798  11.960  20.023  0.00  0.00    +0.000 C 
ATOM     26  C   UNL     1       9.236  10.888  20.956  0.00  0.00    +0.000 C 
ENDBRANCH  21  25
ENDBRANCH  19  21
ENDBRANCH  18  19
ENDBRANCH   1  18
TORSDOF 6
ENDMDL
MODEL 7
REMARK VINA RESULT:      -7.5      0.954      1.214
REMARK  Name = 
REMARK  8 active torsions:
REMARK  status: ('A' for Active; 'I' for Inactive)
REMARK    1  A    between atoms: C_1  and  C_2
REMARK    2  A    between atoms: C_2  and  C_3
REMARK    3  A    between atoms: C_2  and  S_4
REMARK    4  A    between atoms: S_4  and  N_7
REMARK    5  A    between atoms: N_7  and  C_8
REMARK    6  A    between atoms: C_8  and  C_9
REMARK    7  A    between atoms: C_12  and  N_13
REMARK    8  A    between atoms: C_16  and  C_17
REMARK                            x       y       z     vdW  Elec       q    Type
REMARK                         _______ _______ _______ _____ _____    ______ ____
ROOT
ATOM      1  C   UNL     1       8.065   7.517  18.066  0.00  0.00    +0.000 C 
ATOM      2  C   UNL     1       8.070   6.377  19.096  0.00  0.00    +0.000 C 
ATOM      3  C   UNL     1       7.450   5.107  18.522  0.00  0.00    +0.000 C 
ATOM      4  C   UNL     1       6.033   5.380  18.016  0.00  0.00    +0.000 C 
ATOM      5  C   UNL     1       6.037   6.493  16.961  0.00  0.00    +0.000 C 
ATOM      6  C   UNL     1       6.649   7.778  17.533  0.00  0.00    +0.000 C 
ENDROOT
BRANCH   4   7
ATOM      7  N   UNL     1       5.476   4.162  17.468  0.00  0.00    +0.000 N 
ATOM      8  C   UNL     1       4.345   3.660  17.967  0.00  0.00    +0.000 A 
ATOM      9  N   UNL     1       3.593   4.113  18.942  0.00  0.00    +0.000 NA
ATOM     10  C   UNL     1       2.577   3.180  19.056  0.00  0.00    +0.000 A 
ATOM     11  C   UNL     1       2.775   2.198  18.110  0.00  0.00    +0.000 A 
ATOM     12  O   UNL     1       3.902   2.500  17.406  0.00  0.00    +0.000 OA
ATOM     13  H   UNL     1       5.928   3.719  16.679  0.00  0.00    +0.000 HD
BRANCH  10  14
ATOM     14  C   UNL     1       1.490   3.274  20.065  0.00  0.00    +0.000 C 
ATOM     15  F   UNL     1       1.219   4.549  20.450  0.00  0.00    +0.000 F 
ATOM     16  F   UNL     1       0.325   2.752  19.596  0.00  0.00    +0.000 F 
ATOM     17  F   UNL     1       1.793   2.580  21.194  0.00  0.00    +0.000 F 
ENDBRANCH  10  14
ENDBRANCH   4   7
BRANCH   1  18
ATOM     18  C   UNL     1       8.694   8.785  18.648  0.00  0.00    +0.000 C 
BRANCH  18  19
ATOM     19  N   UNL     1       8.685   9.933  17.688  0.00  0.00    +0.000 NA
ATOM     20  H   UNL     1       9.296   9.710  16.898  0.00  0.00    +0.000 HD
BRANCH  19  21
ATOM     21  S   UNL     1       9.129  11.441  18.335  0.00  0.00    +0.000 S 
ATOM     22  O   UNL     1       9.102  11.266  19.770  0.00  0.00    +0.000 OA
ATOM     23  O   UNL     1       8.367  12.480  17.680  0.00  0.00    +0.000 OA
BRANCH  21  25
ATOM     24  C   UNL     1      11.090  12.900  17.062  0.00  0.00    +0.000 C 
ATOM     25  C   UNL     1      10.847  11.594  17.810  0.00  0.00    +0.000 C 
ATOM     26  C   UNL     1      11.747  11.501  19.041  0.00  0.00    +0.000 C 
ENDBRANCH  21  25
ENDBRANCH  19  21
ENDBRANCH  18  19
ENDBRANCH   1  18
TORSDOF 6
ENDMDL
MODEL 8
REMARK VINA RESULT:      -7.5      6.205      8.807
REMARK  Name = 
REMARK  8 active torsions:
REMARK  status: ('A' for Active; 'I' for Inactive)
REMARK    1  A    between atoms: C_1  and  C_2
REMARK    2  A    between atoms: C_2  and  C_3
REMARK    3  A    between atoms: C_2  and  S_4
REMARK    4  A    between atoms: S_4  and  N_7
REMARK    5  A    between atoms: N_7  and  C_8
REMARK    6  A    between atoms: C_8  and  C_9
REMARK    7  A    between atoms: C_12  and  N_13
REMARK    8  A    between atoms: C_16  and  C_17
REMARK                            x       y       z     vdW  Elec       q    Type
REMARK                         _______ _______ _______ _____ _____    ______ ____
ROOT
ATOM      1  C   UNL     1       5.099   5.631  18.490  0.00  0.00    +0.000 C 
ATOM      2  C   UNL     1       6.368   4.769  18.391  0.00  0.00    +0.000 C 
ATOM      3  C   UNL     1       7.177   5.113  17.144  0.00  0.00    +0.000 C 
ATOM      4  C   UNL     1       6.319   4.968  15.887  0.00  0.00    +0.000 C 
ATOM      5  C   UNL     1       5.072   5.856  15.974  0.00  0.00    +0.000 C 
ATOM      6  C   UNL     1       4.245   5.510  17.218  0.00  0.00    +0.000 C 
ENDROOT
BRANCH   4   7
ATOM      7  N   UNL     1       7.109   5.311  14.724  0.00  0.00    +0.000 N 
ATOM      8  C   UNL     1       6.980   4.608  13.597  0.00  0.00    +0.000 A 
ATOM      9  N   UNL     1       6.202   3.584  13.341  0.00  0.00    +0.000 NA
ATOM     10  C   UNL     1       6.510   3.235  12.037  0.00  0.00    +0.000 A 
ATOM     11  C   UNL     1       7.473   4.102  11.566  0.00  0.00    +0.000 A 
ATOM     12  O   UNL     1       7.776   4.986  12.558  0.00  0.00    +0.000 OA
ATOM     13  H   UNL     1       7.727   6.111  14.761  0.00  0.00    +0.000 HD
BRANCH  10  14
ATOM     14  C   UNL     1       5.879   2.095  11.324  0.00  0.00    +0.000 C 
ATOM     15  F   UNL     1       6.584   1.677  10.240  0.00  0.00    +0.000 F 
ATOM     16  F   UNL     1       5.736   1.013  12.137  0.00  0.00    +0.000 F 
ATOM     17  F   UNL     1       4.632   2.409  10.883  0.00  0.00    +0.000 F 
ENDBRANCH  10  14
ENDBRANCH   4   7
BRANCH   1  18
ATOM     18  C   UNL     1       4.296   5.283  19.746  0.00  0.00    +0.000 C 
BRANCH  18  19
ATOM     19  N   UNL     1       3.077   4.467  19.449  0.00  0.00    +0.000 NA
ATOM     20  H   UNL     1       2.350   4.697  20.130  0.00  0.00    +0.000 HD
BRANCH  19  21
ATOM     21  S   UNL     1       3.306   2.782  19.418  0.00  0.00    +0.000 S 
ATOM     22  O   UNL     1       4.293   2.510  20.438  0.00  0.00    +0.000 OA
ATOM     23  O   UNL     1       3.489   2.355  18.049  0.00  0.00    +0.000 OA
BRANCH  21  25
ATOM     24  C   UNL     1       1.311   2.789  21.319  0.00  0.00    +0.000 C 
ATOM     25  C   UNL     1       1.711   2.166  19.986  0.00  0.00    +0.000 C 
ATOM     26  C   UNL     1       0.660   2.460  18.916  0.00  0.00    +0.000 C 
ENDBRANCH  21  25
ENDBRANCH  19  21
ENDBRANCH  18  19
ENDBRANCH   1  18
TORSDOF 6
ENDMDL
MODEL 9
REMARK VINA RESULT:      -7.4      1.190      1.757
REMARK  Name = 
REMARK  8 active torsions:
REMARK  status: ('A' for Active; 'I' for Inactive)
REMARK    1  A    between atoms: C_1  and  C_2
REMARK    2  A    between atoms: C_2  and  C_3
REMARK    3  A    between atoms: C_2  and  S_4
REMARK    4  A    between atoms: S_4  and  N_7
REMARK    5  A    between atoms: N_7  and  C_8
REMARK    6  A    between atoms: C_8  and  C_9
REMARK    7  A    between atoms: C_12  and  N_13
REMARK    8  A    between atoms: C_16  and  C_17
REMARK                            x       y       z     vdW  Elec       q    Type
REMARK                         _______ _______ _______ _____ _____    ______ ____
ROOT
ATOM      1  C   UNL     1       7.852   7.876  17.730  0.00  0.00    +0.000 C 
ATOM      2  C   UNL     1       8.221   7.093  19.000  0.00  0.00    +0.000 C 
ATOM      3  C   UNL     1       7.786   5.635  18.899  0.00  0.00    +0.000 C 
ATOM      4  C   UNL     1       6.287   5.537  18.614  0.00  0.00    +0.000 C 
ATOM      5  C   UNL     1       5.928   6.289  17.326  0.00  0.00    +0.000 C 
ATOM      6  C   UNL     1       6.351   7.760  17.422  0.00  0.00    +0.000 C 
ENDROOT
BRANCH   4   7
ATOM      7  N   UNL     1       5.907   4.144  18.514  0.00  0.00    +0.000 N 
ATOM      8  C   UNL     1       4.743   3.730  19.018  0.00  0.00    +0.000 A 
ATOM      9  N   UNL     1       3.813   4.419  19.636  0.00  0.00    +0.000 NA
ATOM     10  C   UNL     1       2.854   3.479  19.971  0.00  0.00    +0.000 A 
ATOM     11  C   UNL     1       3.268   2.247  19.512  0.00  0.00    +0.000 A 
ATOM     12  O   UNL     1       4.474   2.400  18.898  0.00  0.00    +0.000 OA
ATOM     13  H   UNL     1       6.511   3.499  18.022  0.00  0.00    +0.000 HD
BRANCH  10  14
ATOM     14  C   UNL     1       1.611   3.808  20.715  0.00  0.00    +0.000 C 
ATOM     15  F   UNL     1       0.480   3.379  20.097  0.00  0.00    +0.000 F 
ATOM     16  F   UNL     1       1.609   3.255  21.958  0.00  0.00    +0.000 F 
ATOM     17  F   UNL     1       1.475   5.149  20.893  0.00  0.00    +0.000 F 
ENDBRANCH  10  14
ENDBRANCH   4   7
BRANCH   1  18
ATOM     18  C   UNL     1       8.296   9.337  17.837  0.00  0.00    +0.000 C 
BRANCH  18  19
ATOM     19  N   UNL     1       9.134   9.603  19.047  0.00  0.00    +0.000 NA
ATOM     20  H   UNL     1       8.529   9.621  19.872  0.00  0.00    +0.000 HD
BRANCH  19  21
ATOM     21  S   UNL     1      10.067  11.023  19.003  0.00  0.00    +0.000 S 
ATOM     22  O   UNL     1      10.621  11.077  17.668  0.00  0.00    +0.000 OA
ATOM     23  O   UNL     1      10.908  11.074  20.177  0.00  0.00    +0.000 OA
BRANCH  21  25
ATOM     24  C   UNL     1       9.112  13.245  20.324  0.00  0.00    +0.000 C 
ATOM     25  C   UNL     1       8.816  12.311  19.155  0.00  0.00    +0.000 C 
ATOM     26  C   UNL     1       8.751  13.091  17.843  0.00  0.00    +0.000 C 
ENDBRANCH  21  25
ENDBRANCH  19  21
ENDBRANCH  18  19
ENDBRANCH   1  18
TORSDOF 6
ENDMDL
