MODEL 1
REMARK VINA RESULT:      -8.7      0.000      0.000
REMARK  Name = 
REMARK  6 active torsions:
REMARK  status: ('A' for Active; 'I' for Inactive)
REMARK    1  A    between atoms: C_6  and  N_7
REMARK    2  A    between atoms: N_7  and  C_8
REMARK    3  A    between atoms: N_14  and  C_15
REMARK    4  A    between atoms: C_15  and  C_16
REMARK    5  A    between atoms: C_16  and  C_17
REMARK    6  A    between atoms: C_17  and  N_18
REMARK                            x       y       z     vdW  Elec       q    Type
REMARK                         _______ _______ _______ _____ _____    ______ ____
ROOT
ATOM      1  C   UNL     1       1.726   8.150  20.188  0.00  0.00    +0.000 A 
ATOM      2  C   UNL     1       1.052   8.603  21.342  0.00  0.00    +0.000 A 
ATOM      3  C   UNL     1       0.025   9.560  21.282  0.00  0.00    +0.000 A 
ATOM      4  C   UNL     1      -0.317   9.996  20.011  0.00  0.00    +0.000 A 
ATOM      5  O   UNL     1      -1.307  10.870  19.658  0.00  0.00    +0.000 OA
ATOM      6  C   UNL     1      -1.250  10.898  18.291  0.00  0.00    +0.000 A 
ATOM      7  N   UNL     1      -2.186  11.646  17.683  0.00  0.00    +0.000 N 
ATOM      8  N   UNL     1      -0.303  10.153  17.763  0.00  0.00    +0.000 NA
ATOM      9  C   UNL     1       0.301   9.573  18.847  0.00  0.00    +0.000 A 
ATOM     10  C   UNL     1       1.352   8.651  18.928  0.00  0.00    +0.000 A 
ATOM     11  H   UNL     1      -2.911  12.019  18.284  0.00  0.00    +0.000 HD
ENDROOT
BRANCH   1  12
ATOM     12  N   UNL     1       2.677   7.101  20.296  0.00  0.00    +0.000 N 
ATOM     13  H   UNL     1       3.624   7.436  20.127  0.00  0.00    +0.000 HD
BRANCH  12  19
ATOM     14 CL   UNL     1       5.687   4.011  15.027  0.00  0.00    +0.000 Cl
ATOM     15  C   UNL     1       4.822   4.534  16.421  0.00  0.00    +0.000 A 
ATOM     16  C   UNL     1       5.153   5.739  17.025  0.00  0.00    +0.000 A 
ATOM     17  C   UNL     1       4.423   6.168  18.134  0.00  0.00    +0.000 A 
ATOM     18  C   UNL     1       3.355   5.393  18.648  0.00  0.00    +0.000 A 
ATOM     19  C   UNL     1       2.562   5.786  19.757  0.00  0.00    +0.000 A 
ATOM     20  C   UNL     1       1.548   4.930  20.198  0.00  0.00    +0.000 A 
ATOM     21  C   UNL     1       1.371   3.726  19.550  0.00  0.00    +0.000 A 
ATOM     22  N   UNL     1       2.098   3.332  18.485  0.00  0.00    +0.000 NA
ATOM     23  C   UNL     1       3.066   4.148  18.041  0.00  0.00    +0.000 A 
ATOM     24  C   UNL     1       3.794   3.748  16.932  0.00  0.00    +0.000 A 
ENDBRANCH  12  19
ENDBRANCH   1  12
BRANCH   7  25
ATOM     25  C   UNL     1      -2.619  11.265  16.342  0.00  0.00    +0.000 C 
BRANCH  25  26
ATOM     26  C   UNL     1      -4.089  10.836  16.364  0.00  0.00    +0.000 C 
BRANCH  26  27
ATOM     27  C   UNL     1      -5.009  11.838  17.079  0.00  0.00    +0.000 C 
BRANCH  27  28
ATOM     28  N   UNL     1      -5.372  11.488  18.463  0.00  0.00    +0.000 NA
ATOM     29  C   UNL     1      -5.354  12.665  19.347  0.00  0.00    +0.000 C 
ATOM     30  C   UNL     1      -5.734  12.308  20.785  0.00  0.00    +0.000 C 
ATOM     31  C   UNL     1      -7.095  11.628  20.844  0.00  0.00    +0.000 C 
ATOM     32  C   UNL     1      -7.116  10.433  19.901  0.00  0.00    +0.000 C 
ATOM     33  C   UNL     1      -6.696  10.836  18.486  0.00  0.00    +0.000 C 
ENDBRANCH  27  28
ENDBRANCH  26  27
ENDBRANCH  25  26
ENDBRANCH   7  25
TORSDOF 6
ENDMDL
MODEL 2
REMARK VINA RESULT:      -8.5      1.824      2.789
REMARK  Name = 
REMARK  6 active torsions:
REMARK  status: ('A' for Active; 'I' for Inactive)
REMARK    1  A    between atoms: C_6  and  N_7
REMARK    2  A    between atoms: N_7  and  C_8
REMARK    3  A    between atoms: N_14  and  C_15
REMARK    4  A    between atoms: C_15  and  C_16
REMARK    5  A    between atoms: C_16  and  C_17
REMARK    6  A    between atoms: C_17  and  N_18
REMARK                            x       y       z     vdW  Elec       q    Type
REMARK                         _______ _______ _______ _____ _____    ______ ____
ROOT
ATOM      1  C   UNL     1       1.785   7.812  20.142  0.00  0.00    +0.000 A 
ATOM      2  C   UNL     1       1.852   8.536  18.932  0.00  0.00    +0.000 A 
ATOM      3  C   UNL     1       1.098   9.701  18.713  0.00  0.00    +0.000 A 
ATOM      4  C   UNL     1       0.320  10.123  19.781  0.00  0.00    +0.000 A 
ATOM      5  O   UNL     1      -0.460  11.242  19.864  0.00  0.00    +0.000 OA
ATOM      6  C   UNL     1      -0.952  11.205  21.141  0.00  0.00    +0.000 A 
ATOM      7  N   UNL     1      -1.709  12.255  21.505  0.00  0.00    +0.000 N 
ATOM      8  N   UNL     1      -0.580  10.160  21.846  0.00  0.00    +0.000 NA
ATOM      9  C   UNL     1       0.230   9.459  20.993  0.00  0.00    +0.000 A 
ATOM     10  C   UNL     1       0.954   8.276  21.178  0.00  0.00    +0.000 A 
ATOM     11  H   UNL     1      -1.745  13.023  20.845  0.00  0.00    +0.000 HD
ENDROOT
BRANCH   1  12
ATOM     12  N   UNL     1       2.652   6.707  20.349  0.00  0.00    +0.000 N 
ATOM     13  H   UNL     1       3.628   6.995  20.369  0.00  0.00    +0.000 HD
BRANCH  12  19
ATOM     14 CL   UNL     1       5.771   4.071  14.899  0.00  0.00    +0.000 Cl
ATOM     15  C   UNL     1       4.884   4.473  16.319  0.00  0.00    +0.000 A 
ATOM     16  C   UNL     1       5.182   5.639  17.010  0.00  0.00    +0.000 A 
ATOM     17  C   UNL     1       4.434   5.971  18.140  0.00  0.00    +0.000 A 
ATOM     18  C   UNL     1       3.382   5.136  18.589  0.00  0.00    +0.000 A 
ATOM     19  C   UNL     1       2.572   5.430  19.717  0.00  0.00    +0.000 A 
ATOM     20  C   UNL     1       1.577   4.522  20.088  0.00  0.00    +0.000 A 
ATOM     21  C   UNL     1       1.433   3.363  19.354  0.00  0.00    +0.000 A 
ATOM     22  N   UNL     1       2.177   3.063  18.271  0.00  0.00    +0.000 NA
ATOM     23  C   UNL     1       3.127   3.931  17.894  0.00  0.00    +0.000 A 
ATOM     24  C   UNL     1       3.872   3.628  16.765  0.00  0.00    +0.000 A 
ENDBRANCH  12  19
ENDBRANCH   1  12
BRANCH   7  25
ATOM     25  C   UNL     1      -1.737  12.638  22.913  0.00  0.00    +0.000 C 
BRANCH  25  26
ATOM     26  C   UNL     1      -3.164  12.540  23.458  0.00  0.00    +0.000 C 
BRANCH  26  27
ATOM     27  C   UNL     1      -4.199  13.293  22.608  0.00  0.00    +0.000 C 
BRANCH  27  28
ATOM     28  N   UNL     1      -5.114  12.443  21.825  0.00  0.00    +0.000 NA
ATOM     29  C   UNL     1      -6.513  12.607  22.254  0.00  0.00    +0.000 C 
ATOM     30  C   UNL     1      -7.468  11.731  21.442  0.00  0.00    +0.000 C 
ATOM     31  C   UNL     1      -7.339  12.009  19.951  0.00  0.00    +0.000 C 
ATOM     32  C   UNL     1      -5.884  11.870  19.523  0.00  0.00    +0.000 C 
ATOM     33  C   UNL     1      -4.968  12.740  20.387  0.00  0.00    +0.000 C 
ENDBRANCH  27  28
ENDBRANCH  26  27
ENDBRANCH  25  26
ENDBRANCH   7  25
TORSDOF 6
ENDMDL
MODEL 3
REMARK VINA RESULT:      -8.4      2.930      3.553
REMARK  Name = 
REMARK  6 active torsions:
REMARK  status: ('A' for Active; 'I' for Inactive)
REMARK    1  A    between atoms: C_6  and  N_7
REMARK    2  A    between atoms: N_7  and  C_8
REMARK    3  A    between atoms: N_14  and  C_15
REMARK    4  A    between atoms: C_15  and  C_16
REMARK    5  A    between atoms: C_16  and  C_17
REMARK    6  A    between atoms: C_17  and  N_18
REMARK                            x       y       z     vdW  Elec       q    Type
REMARK                         _______ _______ _______ _____ _____    ______ ____
ROOT
ATOM      1  C   UNL     1       2.050   7.593  19.744  0.00  0.00    +0.000 A 
ATOM      2  C   UNL     1       2.121   8.349  18.554  0.00  0.00    +0.000 A 
ATOM      3  C   UNL     1       1.390   9.536  18.376  0.00  0.00    +0.000 A 
ATOM      4  C   UNL     1       0.631   9.943  19.463  0.00  0.00    +0.000 A 
ATOM      5  O   UNL     1      -0.125  11.075  19.585  0.00  0.00    +0.000 OA
ATOM      6  C   UNL     1      -0.606  11.013  20.866  0.00  0.00    +0.000 A 
ATOM      7  N   UNL     1      -1.337  12.067  21.266  0.00  0.00    +0.000 N 
ATOM      8  N   UNL     1      -0.249   9.940  21.537  0.00  0.00    +0.000 NA
ATOM      9  C   UNL     1       0.538   9.247  20.656  0.00  0.00    +0.000 A 
ATOM     10  C   UNL     1       1.239   8.044  20.801  0.00  0.00    +0.000 A 
ATOM     11  H   UNL     1      -1.362  12.854  20.628  0.00  0.00    +0.000 HD
ENDROOT
BRANCH   1  12
ATOM     12  N   UNL     1       2.895   6.465  19.911  0.00  0.00    +0.000 N 
ATOM     13  H   UNL     1       3.846   6.740  20.150  0.00  0.00    +0.000 HD
BRANCH  12  19
ATOM     14 CL   UNL     1       6.949   4.792  14.701  0.00  0.00    +0.000 Cl
ATOM     15  C   UNL     1       5.828   4.948  15.999  0.00  0.00    +0.000 A 
ATOM     16  C   UNL     1       5.974   5.979  16.916  0.00  0.00    +0.000 A 
ATOM     17  C   UNL     1       5.039   6.115  17.943  0.00  0.00    +0.000 A 
ATOM     18  C   UNL     1       3.952   5.216  18.062  0.00  0.00    +0.000 A 
ATOM     19  C   UNL     1       2.958   5.314  19.070  0.00  0.00    +0.000 A 
ATOM     20  C   UNL     1       1.942   4.356  19.111  0.00  0.00    +0.000 A 
ATOM     21  C   UNL     1       1.955   3.338  18.181  0.00  0.00    +0.000 A 
ATOM     22  N   UNL     1       2.876   3.227  17.203  0.00  0.00    +0.000 NA
ATOM     23  C   UNL     1       3.851   4.146  17.142  0.00  0.00    +0.000 A 
ATOM     24  C   UNL     1       4.781   4.039  16.120  0.00  0.00    +0.000 A 
ENDBRANCH  12  19
ENDBRANCH   1  12
BRANCH   7  25
ATOM     25  C   UNL     1      -1.343  12.410  22.684  0.00  0.00    +0.000 C 
BRANCH  25  26
ATOM     26  C   UNL     1      -2.719  12.122  23.291  0.00  0.00    +0.000 C 
BRANCH  26  27
ATOM     27  C   UNL     1      -3.417  13.371  23.851  0.00  0.00    +0.000 C 
BRANCH  27  28
ATOM     28  N   UNL     1      -4.849  13.496  23.525  0.00  0.00    +0.000 NA
ATOM     29  C   UNL     1      -5.669  12.543  24.290  0.00  0.00    +0.000 C 
ATOM     30  C   UNL     1      -7.157  12.671  23.959  0.00  0.00    +0.000 C 
ATOM     31  C   UNL     1      -7.652  14.093  24.187  0.00  0.00    +0.000 C 
ATOM     32  C   UNL     1      -6.777  15.075  23.420  0.00  0.00    +0.000 C 
ATOM     33  C   UNL     1      -5.298  14.882  23.762  0.00  0.00    +0.000 C 
ENDBRANCH  27  28
ENDBRANCH  26  27
ENDBRANCH  25  26
ENDBRANCH   7  25
TORSDOF 6
ENDMDL
MODEL 4
REMARK VINA RESULT:      -8.4      2.352      3.145
REMARK  Name = 
REMARK  6 active torsions:
REMARK  status: ('A' for Active; 'I' for Inactive)
REMARK    1  A    between atoms: C_6  and  N_7
REMARK    2  A    between atoms: N_7  and  C_8
REMARK    3  A    between atoms: N_14  and  C_15
REMARK    4  A    between atoms: C_15  and  C_16
REMARK    5  A    between atoms: C_16  and  C_17
REMARK    6  A    between atoms: C_17  and  N_18
REMARK                            x       y       z     vdW  Elec       q    Type
REMARK                         _______ _______ _______ _____ _____    ______ ____
ROOT
ATOM      1  C   UNL     1       1.683   7.681  20.282  0.00  0.00    +0.000 A 
ATOM      2  C   UNL     1       1.883   8.428  19.101  0.00  0.00    +0.000 A 
ATOM      3  C   UNL     1       1.227   9.648  18.867  0.00  0.00    +0.000 A 
ATOM      4  C   UNL     1       0.405  10.095  19.891  0.00  0.00    +0.000 A 
ATOM      5  O   UNL     1      -0.302  11.262  19.953  0.00  0.00    +0.000 OA
ATOM      6  C   UNL     1      -0.885  11.228  21.192  0.00  0.00    +0.000 A 
ATOM      7  N   UNL     1      -1.593  12.317  21.534  0.00  0.00    +0.000 N 
ATOM      8  N   UNL     1      -0.634  10.142  21.890  0.00  0.00    +0.000 NA
ATOM      9  C   UNL     1       0.186   9.409  21.073  0.00  0.00    +0.000 A 
ATOM     10  C   UNL     1       0.815   8.174  21.272  0.00  0.00    +0.000 A 
ATOM     11  H   UNL     1      -1.531  13.102  20.896  0.00  0.00    +0.000 HD
ENDROOT
BRANCH   1  12
ATOM     12  N   UNL     1       2.458   6.514  20.514  0.00  0.00    +0.000 N 
ATOM     13  H   UNL     1       3.445   6.735  20.629  0.00  0.00    +0.000 HD
BRANCH  12  19
ATOM     14 CL   UNL     1       5.782   3.930  15.162  0.00  0.00    +0.000 Cl
ATOM     15  C   UNL     1       4.827   4.323  16.540  0.00  0.00    +0.000 A 
ATOM     16  C   UNL     1       5.139   5.444  17.298  0.00  0.00    +0.000 A 
ATOM     17  C   UNL     1       4.338   5.771  18.392  0.00  0.00    +0.000 A 
ATOM     18  C   UNL     1       3.218   4.977  18.738  0.00  0.00    +0.000 A 
ATOM     19  C   UNL     1       2.353   5.269  19.825  0.00  0.00    +0.000 A 
ATOM     20  C   UNL     1       1.291   4.402  20.094  0.00  0.00    +0.000 A 
ATOM     21  C   UNL     1       1.136   3.282  19.304  0.00  0.00    +0.000 A 
ATOM     22  N   UNL     1       1.931   2.986  18.257  0.00  0.00    +0.000 NA
ATOM     23  C   UNL     1       2.947   3.815  17.977  0.00  0.00    +0.000 A 
ATOM     24  C   UNL     1       3.747   3.517  16.885  0.00  0.00    +0.000 A 
ENDBRANCH  12  19
ENDBRANCH   1  12
BRANCH   7  25
ATOM     25  C   UNL     1      -1.694  12.666  22.947  0.00  0.00    +0.000 C 
BRANCH  25  26
ATOM     26  C   UNL     1      -3.078  12.293  23.485  0.00  0.00    +0.000 C 
BRANCH  26  27
ATOM     27  C   UNL     1      -3.984  13.507  23.743  0.00  0.00    +0.000 C 
BRANCH  27  28
ATOM     28  N   UNL     1      -5.326  13.436  23.137  0.00  0.00    +0.000 NA
ATOM     29  C   UNL     1      -5.298  12.767  21.825  0.00  0.00    +0.000 C 
ATOM     30  C   UNL     1      -6.689  12.687  21.194  0.00  0.00    +0.000 C 
ATOM     31  C   UNL     1      -7.676  11.988  22.119  0.00  0.00    +0.000 C 
ATOM     32  C   UNL     1      -7.672  12.664  23.483  0.00  0.00    +0.000 C 
ATOM     33  C   UNL     1      -6.255  12.749  24.055  0.00  0.00    +0.000 C 
ENDBRANCH  27  28
ENDBRANCH  26  27
ENDBRANCH  25  26
ENDBRANCH   7  25
TORSDOF 6
ENDMDL
MODEL 5
REMARK VINA RESULT:      -8.2      3.502      5.183
REMARK  Name = 
REMARK  6 active torsions:
REMARK  status: ('A' for Active; 'I' for Inactive)
REMARK    1  A    between atoms: C_6  and  N_7
REMARK    2  A    between atoms: N_7  and  C_8
REMARK    3  A    between atoms: N_14  and  C_15
REMARK    4  A    between atoms: C_15  and  C_16
REMARK    5  A    between atoms: C_16  and  C_17
REMARK    6  A    between atoms: C_17  and  N_18
REMARK                            x       y       z     vdW  Elec       q    Type
REMARK                         _______ _______ _______ _____ _____    ______ ____
ROOT
ATOM      1  C   UNL     1       2.004   7.716  19.599  0.00  0.00    +0.000 A 
ATOM      2  C   UNL     1       2.138   8.334  18.337  0.00  0.00    +0.000 A 
ATOM      3  C   UNL     1       1.587   9.597  18.060  0.00  0.00    +0.000 A 
ATOM      4  C   UNL     1       0.943  10.218  19.120  0.00  0.00    +0.000 A 
ATOM      5  O   UNL     1       0.372  11.459  19.147  0.00  0.00    +0.000 OA
ATOM      6  C   UNL     1      -0.060  11.594  20.440  0.00  0.00    +0.000 A 
ATOM      7  N   UNL     1      -0.607  12.781  20.751  0.00  0.00    +0.000 N 
ATOM      8  N   UNL     1       0.160  10.548  21.206  0.00  0.00    +0.000 NA
ATOM      9  C   UNL     1       0.796   9.662  20.379  0.00  0.00    +0.000 A 
ATOM     10  C   UNL     1       1.315   8.385  20.626  0.00  0.00    +0.000 A 
ATOM     11  H   UNL     1      -0.540  13.498  20.038  0.00  0.00    +0.000 HD
ENDROOT
BRANCH   1  12
ATOM     12  N   UNL     1       2.676   6.492  19.856  0.00  0.00    +0.000 N 
ATOM     13  H   UNL     1       3.617   6.649  20.212  0.00  0.00    +0.000 HD
BRANCH  12  19
ATOM     14 CL   UNL     1       6.948   4.452  14.961  0.00  0.00    +0.000 Cl
ATOM     15  C   UNL     1       5.750   4.710  16.170  0.00  0.00    +0.000 A 
ATOM     16  C   UNL     1       5.917   5.726  17.100  0.00  0.00    +0.000 A 
ATOM     17  C   UNL     1       4.924   5.947  18.054  0.00  0.00    +0.000 A 
ATOM     18  C   UNL     1       3.754   5.149  18.086  0.00  0.00    +0.000 A 
ATOM     19  C   UNL     1       2.699   5.338  19.017  0.00  0.00    +0.000 A 
ATOM     20  C   UNL     1       1.601   4.475  18.976  0.00  0.00    +0.000 A 
ATOM     21  C   UNL     1       1.594   3.459  18.045  0.00  0.00    +0.000 A 
ATOM     22  N   UNL     1       2.573   3.263  17.139  0.00  0.00    +0.000 NA
ATOM     23  C   UNL     1       3.628   4.091  17.156  0.00  0.00    +0.000 A 
ATOM     24  C   UNL     1       4.620   3.899  16.207  0.00  0.00    +0.000 A 
ENDBRANCH  12  19
ENDBRANCH   1  12
BRANCH   7  25
ATOM     25  C   UNL     1      -0.502  13.256  22.127  0.00  0.00    +0.000 C 
BRANCH  25  26
ATOM     26  C   UNL     1       0.197  14.618  22.164  0.00  0.00    +0.000 C 
BRANCH  26  27
ATOM     27  C   UNL     1       1.641  14.580  21.641  0.00  0.00    +0.000 C 
BRANCH  27  28
ATOM     28  N   UNL     1       1.790  14.738  20.183  0.00  0.00    +0.000 NA
ATOM     29  C   UNL     1       1.938  16.152  19.798  0.00  0.00    +0.000 C 
ATOM     30  C   UNL     1       2.097  16.321  18.287  0.00  0.00    +0.000 C 
ATOM     31  C   UNL     1       3.272  15.508  17.761  0.00  0.00    +0.000 C 
ATOM     32  C   UNL     1       3.130  14.055  18.193  0.00  0.00    +0.000 C 
ATOM     33  C   UNL     1       2.939  13.943  19.707  0.00  0.00    +0.000 C 
ENDBRANCH  27  28
ENDBRANCH  26  27
ENDBRANCH  25  26
ENDBRANCH   7  25
TORSDOF 6
ENDMDL
MODEL 6
REMARK VINA RESULT:      -8.2      2.281      3.170
REMARK  Name = 
REMARK  6 active torsions:
REMARK  status: ('A' for Active; 'I' for Inactive)
REMARK    1  A    between atoms: C_6  and  N_7
REMARK    2  A    between atoms: N_7  and  C_8
REMARK    3  A    between atoms: N_14  and  C_15
REMARK    4  A    between atoms: C_15  and  C_16
REMARK    5  A    between atoms: C_16  and  C_17
REMARK    6  A    between atoms: C_17  and  N_18
REMARK                            x       y       z     vdW  Elec       q    Type
REMARK                         _______ _______ _______ _____ _____    ______ ____
ROOT
ATOM      1  C   UNL     1       2.083   7.572  19.742  0.00  0.00    +0.000 A 
ATOM      2  C   UNL     1       2.031   8.341  18.559  0.00  0.00    +0.000 A 
ATOM      3  C   UNL     1       1.231   9.490  18.447  0.00  0.00    +0.000 A 
ATOM      4  C   UNL     1       0.531   9.848  19.590  0.00  0.00    +0.000 A 
ATOM      5  O   UNL     1      -0.270  10.939  19.778  0.00  0.00    +0.000 OA
ATOM      6  C   UNL     1      -0.656  10.842  21.088  0.00  0.00    +0.000 A 
ATOM      7  N   UNL     1      -1.409  11.854  21.552  0.00  0.00    +0.000 N 
ATOM      8  N   UNL     1      -0.199   9.783  21.720  0.00  0.00    +0.000 NA
ATOM      9  C   UNL     1       0.558   9.138  20.778  0.00  0.00    +0.000 A 
ATOM     10  C   UNL     1       1.327   7.972  20.859  0.00  0.00    +0.000 A 
ATOM     11  H   UNL     1      -1.519  12.644  20.927  0.00  0.00    +0.000 HD
ENDROOT
BRANCH   1  12
ATOM     12  N   UNL     1       2.994   6.487  19.836  0.00  0.00    +0.000 N 
ATOM     13  H   UNL     1       3.945   6.809  20.006  0.00  0.00    +0.000 HD
BRANCH  12  19
ATOM     14 CL   UNL     1       7.042   4.854  14.609  0.00  0.00    +0.000 Cl
ATOM     15  C   UNL     1       5.921   5.000  15.908  0.00  0.00    +0.000 A 
ATOM     16  C   UNL     1       6.071   6.020  16.836  0.00  0.00    +0.000 A 
ATOM     17  C   UNL     1       5.137   6.149  17.864  0.00  0.00    +0.000 A 
ATOM     18  C   UNL     1       4.045   5.253  17.973  0.00  0.00    +0.000 A 
ATOM     19  C   UNL     1       3.051   5.345  18.982  0.00  0.00    +0.000 A 
ATOM     20  C   UNL     1       2.030   4.392  19.011  0.00  0.00    +0.000 A 
ATOM     21  C   UNL     1       2.039   3.385  18.070  0.00  0.00    +0.000 A 
ATOM     22  N   UNL     1       2.960   3.280  17.091  0.00  0.00    +0.000 NA
ATOM     23  C   UNL     1       3.939   4.195  17.041  0.00  0.00    +0.000 A 
ATOM     24  C   UNL     1       4.869   4.095  16.018  0.00  0.00    +0.000 A 
ENDBRANCH  12  19
ENDBRANCH   1  12
BRANCH   7  25
ATOM     25  C   UNL     1      -1.332  12.184  22.971  0.00  0.00    +0.000 C 
BRANCH  25  26
ATOM     26  C   UNL     1      -2.358  13.268  23.316  0.00  0.00    +0.000 C 
BRANCH  26  27
ATOM     27  C   UNL     1      -3.760  12.714  23.611  0.00  0.00    +0.000 C 
BRANCH  27  28
ATOM     28  N   UNL     1      -4.664  12.630  22.450  0.00  0.00    +0.000 NA
ATOM     29  C   UNL     1      -6.079  12.687  22.854  0.00  0.00    +0.000 C 
ATOM     30  C   UNL     1      -7.022  12.604  21.652  0.00  0.00    +0.000 C 
ATOM     31  C   UNL     1      -6.721  13.699  20.638  0.00  0.00    +0.000 C 
ATOM     32  C   UNL     1      -5.249  13.655  20.252  0.00  0.00    +0.000 C 
ATOM     33  C   UNL     1      -4.350  13.707  21.490  0.00  0.00    +0.000 C 
ENDBRANCH  27  28
ENDBRANCH  26  27
ENDBRANCH  25  26
ENDBRANCH   7  25
TORSDOF 6
ENDMDL
MODEL 7
REMARK VINA RESULT:      -8.2      2.406      3.172
REMARK  Name = 
REMARK  6 active torsions:
REMARK  status: ('A' for Active; 'I' for Inactive)
REMARK    1  A    between atoms: C_6  and  N_7
REMARK    2  A    between atoms: N_7  and  C_8
REMARK    3  A    between atoms: N_14  and  C_15
REMARK    4  A    between atoms: C_15  and  C_16
REMARK    5  A    between atoms: C_16  and  C_17
REMARK    6  A    between atoms: C_17  and  N_18
REMARK                            x       y       z     vdW  Elec       q    Type
REMARK                         _______ _______ _______ _____ _____    ______ ____
ROOT
ATOM      1  C   UNL     1       2.129   7.628  19.566  0.00  0.00    +0.000 A 
ATOM      2  C   UNL     1       2.140   8.327  18.341  0.00  0.00    +0.000 A 
ATOM      3  C   UNL     1       1.356   9.473  18.125  0.00  0.00    +0.000 A 
ATOM      4  C   UNL     1       0.606   9.901  19.210  0.00  0.00    +0.000 A 
ATOM      5  O   UNL     1      -0.194  11.006  19.297  0.00  0.00    +0.000 OA
ATOM      6  C   UNL     1      -0.642  10.986  20.591  0.00  0.00    +0.000 A 
ATOM      7  N   UNL     1      -1.407  12.028  20.959  0.00  0.00    +0.000 N 
ATOM      8  N   UNL     1      -0.225   9.962  21.304  0.00  0.00    +0.000 NA
ATOM      9  C   UNL     1       0.570   9.260  20.437  0.00  0.00    +0.000 A 
ATOM     10  C   UNL     1       1.325   8.096  20.621  0.00  0.00    +0.000 A 
ATOM     11  H   UNL     1      -1.481  12.781  20.286  0.00  0.00    +0.000 HD
ENDROOT
BRANCH   1  12
ATOM     12  N   UNL     1       3.024   6.544  19.765  0.00  0.00    +0.000 N 
ATOM     13  H   UNL     1       3.965   6.870  19.983  0.00  0.00    +0.000 HD
BRANCH  12  19
ATOM     14 CL   UNL     1       6.937   4.944  14.426  0.00  0.00    +0.000 Cl
ATOM     15  C   UNL     1       5.870   5.074  15.771  0.00  0.00    +0.000 A 
ATOM     16  C   UNL     1       5.984   6.151  16.640  0.00  0.00    +0.000 A 
ATOM     17  C   UNL     1       5.092   6.263  17.706  0.00  0.00    +0.000 A 
ATOM     18  C   UNL     1       4.079   5.296  17.914  0.00  0.00    +0.000 A 
ATOM     19  C   UNL     1       3.130   5.367  18.967  0.00  0.00    +0.000 A 
ATOM     20  C   UNL     1       2.187   4.343  19.095  0.00  0.00    +0.000 A 
ATOM     21  C   UNL     1       2.230   3.290  18.204  0.00  0.00    +0.000 A 
ATOM     22  N   UNL     1       3.109   3.203  17.186  0.00  0.00    +0.000 NA
ATOM     23  C   UNL     1       4.011   4.185  17.042  0.00  0.00    +0.000 A 
ATOM     24  C   UNL     1       4.897   4.101  15.979  0.00  0.00    +0.000 A 
ENDBRANCH  12  19
ENDBRANCH   1  12
BRANCH   7  25
ATOM     25  C   UNL     1      -1.395  12.439  22.359  0.00  0.00    +0.000 C 
BRANCH  25  26
ATOM     26  C   UNL     1      -2.565  13.385  22.642  0.00  0.00    +0.000 C 
BRANCH  26  27
ATOM     27  C   UNL     1      -3.673  12.752  23.498  0.00  0.00    +0.000 C 
BRANCH  27  28
ATOM     28  N   UNL     1      -5.047  13.159  23.156  0.00  0.00    +0.000 NA
ATOM     29  C   UNL     1      -5.465  12.628  21.847  0.00  0.00    +0.000 C 
ATOM     30  C   UNL     1      -6.893  13.044  21.489  0.00  0.00    +0.000 C 
ATOM     31  C   UNL     1      -7.878  12.617  22.568  0.00  0.00    +0.000 C 
ATOM     32  C   UNL     1      -7.421  13.141  23.922  0.00  0.00    +0.000 C 
ATOM     33  C   UNL     1      -5.977  12.727  24.217  0.00  0.00    +0.000 C 
ENDBRANCH  27  28
ENDBRANCH  26  27
ENDBRANCH  25  26
ENDBRANCH   7  25
TORSDOF 6
ENDMDL
MODEL 8
REMARK VINA RESULT:      -8.1      2.948      3.606
REMARK  Name = 
REMARK  6 active torsions:
REMARK  status: ('A' for Active; 'I' for Inactive)
REMARK    1  A    between atoms: C_6  and  N_7
REMARK    2  A    between atoms: N_7  and  C_8
REMARK    3  A    between atoms: N_14  and  C_15
REMARK    4  A    between atoms: C_15  and  C_16
REMARK    5  A    between atoms: C_16  and  C_17
REMARK    6  A    between atoms: C_17  and  N_18
REMARK                            x       y       z     vdW  Elec       q    Type
REMARK                         _______ _______ _______ _____ _____    ______ ____
ROOT
ATOM      1  C   UNL     1       2.045   7.675  19.614  0.00  0.00    +0.000 A 
ATOM      2  C   UNL     1       2.169   8.272  18.341  0.00  0.00    +0.000 A 
ATOM      3  C   UNL     1       1.614   9.529  18.047  0.00  0.00    +0.000 A 
ATOM      4  C   UNL     1       0.978  10.167  19.101  0.00  0.00    +0.000 A 
ATOM      5  O   UNL     1       0.405  11.408  19.112  0.00  0.00    +0.000 OA
ATOM      6  C   UNL     1      -0.017  11.564  20.405  0.00  0.00    +0.000 A 
ATOM      7  N   UNL     1      -0.563  12.756  20.700  0.00  0.00    +0.000 N 
ATOM      8  N   UNL     1       0.209  10.532  21.187  0.00  0.00    +0.000 NA
ATOM      9  C   UNL     1       0.841   9.632  20.370  0.00  0.00    +0.000 A 
ATOM     10  C   UNL     1       1.362   8.360  20.634  0.00  0.00    +0.000 A 
ATOM     11  H   UNL     1      -0.502  13.461  19.975  0.00  0.00    +0.000 HD
ENDROOT
BRANCH   1  12
ATOM     12  N   UNL     1       2.720   6.456  19.886  0.00  0.00    +0.000 N 
ATOM     13  H   UNL     1       3.666   6.619  20.225  0.00  0.00    +0.000 HD
BRANCH  12  19
ATOM     14 CL   UNL     1       6.823   4.385  14.862  0.00  0.00    +0.000 Cl
ATOM     15  C   UNL     1       5.671   4.648  16.114  0.00  0.00    +0.000 A 
ATOM     16  C   UNL     1       5.858   5.687  17.015  0.00  0.00    +0.000 A 
ATOM     17  C   UNL     1       4.901   5.911  18.005  0.00  0.00    +0.000 A 
ATOM     18  C   UNL     1       3.748   5.094  18.102  0.00  0.00    +0.000 A 
ATOM     19  C   UNL     1       2.730   5.285  19.071  0.00  0.00    +0.000 A 
ATOM     20  C   UNL     1       1.647   4.402  19.094  0.00  0.00    +0.000 A 
ATOM     21  C   UNL     1       1.620   3.365  18.186  0.00  0.00    +0.000 A 
ATOM     22  N   UNL     1       2.565   3.167  17.244  0.00  0.00    +0.000 NA
ATOM     23  C   UNL     1       3.604   4.014  17.200  0.00  0.00    +0.000 A 
ATOM     24  C   UNL     1       4.559   3.819  16.215  0.00  0.00    +0.000 A 
ENDBRANCH  12  19
ENDBRANCH   1  12
BRANCH   7  25
ATOM     25  C   UNL     1      -0.449  13.253  22.067  0.00  0.00    +0.000 C 
BRANCH  25  26
ATOM     26  C   UNL     1      -1.639  14.158  22.401  0.00  0.00    +0.000 C 
BRANCH  26  27
ATOM     27  C   UNL     1      -1.952  14.232  23.903  0.00  0.00    +0.000 C 
BRANCH  27  28
ATOM     28  N   UNL     1      -3.368  14.043  24.265  0.00  0.00    +0.000 NA
ATOM     29  C   UNL     1      -4.263  14.818  23.389  0.00  0.00    +0.000 C 
ATOM     30  C   UNL     1      -5.735  14.623  23.758  0.00  0.00    +0.000 C 
ATOM     31  C   UNL     1      -6.120  13.150  23.732  0.00  0.00    +0.000 C 
ATOM     32  C   UNL     1      -5.168  12.352  24.612  0.00  0.00    +0.000 C 
ATOM     33  C   UNL     1      -3.710  12.608  24.225  0.00  0.00    +0.000 C 
ENDBRANCH  27  28
ENDBRANCH  26  27
ENDBRANCH  25  26
ENDBRANCH   7  25
TORSDOF 6
ENDMDL
MODEL 9
REMARK VINA RESULT:      -8.0      0.924      1.388
REMARK  Name = 
REMARK  6 active torsions:
REMARK  status: ('A' for Active; 'I' for Inactive)
REMARK    1  A    between atoms: C_6  and  N_7
REMARK    2  A    between atoms: N_7  and  C_8
REMARK    3  A    between atoms: N_14  and  C_15
REMARK    4  A    between atoms: C_15  and  C_16
REMARK    5  A    between atoms: C_16  and  C_17
REMARK    6  A    between atoms: C_17  and  N_18
REMARK                            x       y       z     vdW  Elec       q    Type
REMARK                         _______ _______ _______ _____ _____    ______ ____
ROOT
ATOM      1  C   UNL     1       1.611   8.029  20.614  0.00  0.00    +0.000 A 
ATOM      2  C   UNL     1       0.992   8.541  21.774  0.00  0.00    +0.000 A 
ATOM      3  C   UNL     1       0.049   9.581  21.723  0.00  0.00    +0.000 A 
ATOM      4  C   UNL     1      -0.270  10.041  20.453  0.00  0.00    +0.000 A 
ATOM      5  O   UNL     1      -1.187  10.994  20.110  0.00  0.00    +0.000 OA
ATOM      6  C   UNL     1      -1.144  11.013  18.741  0.00  0.00    +0.000 A 
ATOM      7  N   UNL     1      -2.021  11.836  18.141  0.00  0.00    +0.000 N 
ATOM      8  N   UNL     1      -0.270  10.189  18.205  0.00  0.00    +0.000 NA
ATOM      9  C   UNL     1       0.296   9.563  19.284  0.00  0.00    +0.000 A 
ATOM     10  C   UNL     1       1.265   8.556  19.357  0.00  0.00    +0.000 A 
ATOM     11  H   UNL     1      -2.705  12.271  18.749  0.00  0.00    +0.000 HD
ENDROOT
BRANCH   1  12
ATOM     12  N   UNL     1       2.471   6.904  20.715  0.00  0.00    +0.000 N 
ATOM     13  H   UNL     1       3.452   7.175  20.658  0.00  0.00    +0.000 HD
BRANCH  12  19
ATOM     14 CL   UNL     1       5.350   4.226  15.154  0.00  0.00    +0.000 Cl
ATOM     15  C   UNL     1       4.511   4.644  16.599  0.00  0.00    +0.000 A 
ATOM     16  C   UNL     1       4.882   5.777  17.308  0.00  0.00    +0.000 A 
ATOM     17  C   UNL     1       4.173   6.124  18.459  0.00  0.00    +0.000 A 
ATOM     18  C   UNL     1       3.086   5.335  18.910  0.00  0.00    +0.000 A 
ATOM     19  C   UNL     1       2.313   5.647  20.059  0.00  0.00    +0.000 A 
ATOM     20  C   UNL     1       1.279   4.784  20.430  0.00  0.00    +0.000 A 
ATOM     21  C   UNL     1       1.061   3.650  19.676  0.00  0.00    +0.000 A 
ATOM     22  N   UNL     1       1.769   3.336  18.572  0.00  0.00    +0.000 NA
ATOM     23  C   UNL     1       2.756   4.160  18.195  0.00  0.00    +0.000 A 
ATOM     24  C   UNL     1       3.464   3.843  17.046  0.00  0.00    +0.000 A 
ENDBRANCH  12  19
ENDBRANCH   1  12
BRANCH   7  25
ATOM     25  C   UNL     1      -2.501  11.488  16.808  0.00  0.00    +0.000 C 
BRANCH  25  26
ATOM     26  C   UNL     1      -3.601  10.427  16.903  0.00  0.00    +0.000 C 
BRANCH  26  27
ATOM     27  C   UNL     1      -4.656  10.732  17.977  0.00  0.00    +0.000 C 
BRANCH  27  28
ATOM     28  N   UNL     1      -5.069  12.143  18.076  0.00  0.00    +0.000 NA
ATOM     29  C   UNL     1      -6.200  12.446  17.183  0.00  0.00    +0.000 C 
ATOM     30  C   UNL     1      -6.635  13.909  17.285  0.00  0.00    +0.000 C 
ATOM     31  C   UNL     1      -6.982  14.283  18.720  0.00  0.00    +0.000 C 
ATOM     32  C   UNL     1      -5.821  13.934  19.641  0.00  0.00    +0.000 C 
ATOM     33  C   UNL     1      -5.404  12.471  19.476  0.00  0.00    +0.000 C 
ENDBRANCH  27  28
ENDBRANCH  26  27
ENDBRANCH  25  26
ENDBRANCH   7  25
TORSDOF 6
ENDMDL
