MODEL 1
REMARK VINA RESULT:      -8.4      0.000      0.000
REMARK  Name = 
REMARK  8 active torsions:
REMARK  status: ('A' for Active; 'I' for Inactive)
REMARK    1  A    between atoms: C_1  and  O_2
REMARK    2  A    between atoms: O_2  and  C_3
REMARK    3  A    between atoms: C_5  and  C_6
REMARK    4  A    between atoms: C_7  and  C_8
REMARK    5  A    between atoms: C_10  and  C_11
REMARK    6  A    between atoms: C_11  and  O_13
REMARK    7  A    between atoms: C_23  and  O_24
REMARK    8  A    between atoms: O_24  and  C_25
REMARK                            x       y       z     vdW  Elec       q    Type
REMARK                         _______ _______ _______ _____ _____    ______ ____
ROOT
ATOM      1  C   UNL     1       2.614   7.432  18.535  0.00  0.00    +0.000 C 
ATOM      2  C   UNL     1       1.797   8.386  18.037  0.00  0.00    +0.000 C 
ENDROOT
BRANCH   2   3
ATOM      3  C   UNL     1       0.988   9.317  18.849  0.00  0.00    +0.000 A 
ATOM      4  C   UNL     1       0.204  10.277  18.254  0.00  0.00    +0.000 A 
ATOM      5  C   UNL     1      -0.307  11.262  19.082  0.00  0.00    +0.000 A 
ATOM      6  C   UNL     1      -0.464  11.049  20.448  0.00  0.00    +0.000 A 
ATOM      7  C   UNL     1      -1.351  11.810  21.240  0.00  0.00    +0.000 A 
ATOM      8  C   UNL     1      -1.529  11.499  22.579  0.00  0.00    +0.000 A 
ATOM      9  C   UNL     1      -0.761  10.485  23.140  0.00  0.00    +0.000 A 
ATOM     10  C   UNL     1       0.143   9.754  22.339  0.00  0.00    +0.000 A 
ATOM     11  C   UNL     1       0.268   9.981  20.979  0.00  0.00    +0.000 A 
ATOM     12  N   UNL     1       1.059   9.195  20.197  0.00  0.00    +0.000 NA
BRANCH   5  13
ATOM     13  C   UNL     1      -0.113  12.644  18.612  0.00  0.00    +0.000 C 
ATOM     14  O   UNL     1       0.773  13.393  18.963  0.00  0.00    +0.000 OA
BRANCH  13  15
ATOM     15  O   UNL     1      -1.024  12.936  17.642  0.00  0.00    +0.000 OA
ATOM     16  H   UNL     1      -0.991  12.380  16.832  0.00  0.00    +0.000 HD
ENDBRANCH  13  15
ENDBRANCH   5  13
ENDBRANCH   2   3
BRANCH   1  19
ATOM     17  C   UNL     1       5.873   6.273  16.908  0.00  0.00    +0.000 A 
ATOM     18  C   UNL     1       4.865   7.113  17.425  0.00  0.00    +0.000 A 
ATOM     19  C   UNL     1       3.607   6.622  17.792  0.00  0.00    +0.000 A 
ATOM     20  C   UNL     1       3.337   5.271  17.543  0.00  0.00    +0.000 A 
ATOM     21  C   UNL     1       4.304   4.442  16.965  0.00  0.00    +0.000 A 
ATOM     22  C   UNL     1       5.581   4.926  16.662  0.00  0.00    +0.000 A 
BRANCH  17  24
ATOM     23  C   UNL     1       7.647   7.736  17.487  0.00  0.00    +0.000 C 
ATOM     24  O   UNL     1       7.131   6.732  16.610  0.00  0.00    +0.000 OA
ENDBRANCH  17  24
BRANCH  22  25
ATOM     25  O   UNL     1       6.400   3.988  16.096  0.00  0.00    +0.000 OA
BRANCH  25  26
ATOM     26  C   UNL     1       6.423   3.907  14.680  0.00  0.00    +0.000 C 
ATOM     27  F   UNL     1       5.233   4.319  14.173  0.00  0.00    +0.000 F 
ATOM     28  F   UNL     1       7.346   4.812  14.254  0.00  0.00    +0.000 F 
ENDBRANCH  25  26
ENDBRANCH  22  25
ENDBRANCH   1  19
TORSDOF 7
ENDMDL
MODEL 2
REMARK VINA RESULT:      -8.3      0.834      1.946
REMARK  Name = 
REMARK  8 active torsions:
REMARK  status: ('A' for Active; 'I' for Inactive)
REMARK    1  A    between atoms: C_1  and  O_2
REMARK    2  A    between atoms: O_2  and  C_3
REMARK    3  A    between atoms: C_5  and  C_6
REMARK    4  A    between atoms: C_7  and  C_8
REMARK    5  A    between atoms: C_10  and  C_11
REMARK    6  A    between atoms: C_11  and  O_13
REMARK    7  A    between atoms: C_23  and  O_24
REMARK    8  A    between atoms: O_24  and  C_25
REMARK                            x       y       z     vdW  Elec       q    Type
REMARK                         _______ _______ _______ _____ _____    ______ ____
ROOT
ATOM      1  C   UNL     1       2.452   7.293  18.736  0.00  0.00    +0.000 C 
ATOM      2  C   UNL     1       1.901   8.396  18.183  0.00  0.00    +0.000 C 
ENDROOT
BRANCH   2   3
ATOM      3  C   UNL     1       1.049   9.366  18.898  0.00  0.00    +0.000 A 
ATOM      4  C   UNL     1       0.302  10.293  18.210  0.00  0.00    +0.000 A 
ATOM      5  C   UNL     1      -0.254  11.319  18.956  0.00  0.00    +0.000 A 
ATOM      6  C   UNL     1      -0.488  11.177  20.320  0.00  0.00    +0.000 A 
ATOM      7  C   UNL     1      -1.418  11.976  21.020  0.00  0.00    +0.000 A 
ATOM      8  C   UNL     1      -1.671  11.735  22.362  0.00  0.00    +0.000 A 
ATOM      9  C   UNL     1      -0.938  10.753  23.017  0.00  0.00    +0.000 A 
ATOM     10  C   UNL     1       0.009   9.983  22.307  0.00  0.00    +0.000 A 
ATOM     11  C   UNL     1       0.211  10.139  20.946  0.00  0.00    +0.000 A 
ATOM     12  N   UNL     1       1.044   9.314  20.252  0.00  0.00    +0.000 NA
BRANCH   5  13
ATOM     13  C   UNL     1      -0.031  12.675  18.426  0.00  0.00    +0.000 C 
ATOM     14  O   UNL     1       0.933  13.372  18.651  0.00  0.00    +0.000 OA
BRANCH  13  15
ATOM     15  O   UNL     1      -1.030  13.004  17.559  0.00  0.00    +0.000 OA
ATOM     16  H   UNL     1      -1.876  13.301  17.962  0.00  0.00    +0.000 HD
ENDBRANCH  13  15
ENDBRANCH   5  13
ENDBRANCH   2   3
BRANCH   1  19
ATOM     17  C   UNL     1       4.271   4.187  17.448  0.00  0.00    +0.000 A 
ATOM     18  C   UNL     1       3.404   5.011  18.194  0.00  0.00    +0.000 A 
ATOM     19  C   UNL     1       3.481   6.408  18.141  0.00  0.00    +0.000 A 
ATOM     20  C   UNL     1       4.519   6.975  17.390  0.00  0.00    +0.000 A 
ATOM     21  C   UNL     1       5.430   6.167  16.702  0.00  0.00    +0.000 A 
ATOM     22  C   UNL     1       5.304   4.774  16.707  0.00  0.00    +0.000 A 
BRANCH  17  24
ATOM     23  C   UNL     1       2.841   2.306  17.642  0.00  0.00    +0.000 C 
ATOM     24  O   UNL     1       4.158   2.820  17.440  0.00  0.00    +0.000 OA
ENDBRANCH  17  24
BRANCH  22  25
ATOM     25  O   UNL     1       6.281   4.136  15.993  0.00  0.00    +0.000 OA
BRANCH  25  26
ATOM     26  C   UNL     1       6.104   4.027  14.591  0.00  0.00    +0.000 C 
ATOM     27  F   UNL     1       4.819   4.320  14.262  0.00  0.00    +0.000 F 
ATOM     28  F   UNL     1       6.866   5.003  14.025  0.00  0.00    +0.000 F 
ENDBRANCH  25  26
ENDBRANCH  22  25
ENDBRANCH   1  19
TORSDOF 7
ENDMDL
MODEL 3
REMARK VINA RESULT:      -8.2      7.145      9.819
REMARK  Name = 
REMARK  8 active torsions:
REMARK  status: ('A' for Active; 'I' for Inactive)
REMARK    1  A    between atoms: C_1  and  O_2
REMARK    2  A    between atoms: O_2  and  C_3
REMARK    3  A    between atoms: C_5  and  C_6
REMARK    4  A    between atoms: C_7  and  C_8
REMARK    5  A    between atoms: C_10  and  C_11
REMARK    6  A    between atoms: C_11  and  O_13
REMARK    7  A    between atoms: C_23  and  O_24
REMARK    8  A    between atoms: O_24  and  C_25
REMARK                            x       y       z     vdW  Elec       q    Type
REMARK                         _______ _______ _______ _____ _____    ______ ____
ROOT
ATOM      1  C   UNL     1       8.023   9.271  17.923  0.00  0.00    +0.000 C 
ATOM      2  C   UNL     1       8.039   7.944  18.176  0.00  0.00    +0.000 C 
ENDROOT
BRANCH   2   3
ATOM      3  C   UNL     1       7.237   6.935  17.457  0.00  0.00    +0.000 A 
ATOM      4  C   UNL     1       5.997   6.558  17.915  0.00  0.00    +0.000 A 
ATOM      5  C   UNL     1       5.437   5.432  17.335  0.00  0.00    +0.000 A 
ATOM      6  C   UNL     1       5.820   5.004  16.068  0.00  0.00    +0.000 A 
ATOM      7  C   UNL     1       5.010   4.166  15.271  0.00  0.00    +0.000 A 
ATOM      8  C   UNL     1       5.405   3.839  13.983  0.00  0.00    +0.000 A 
ATOM      9  C   UNL     1       6.641   4.281  13.527  0.00  0.00    +0.000 A 
ATOM     10  C   UNL     1       7.451   5.094  14.350  0.00  0.00    +0.000 A 
ATOM     11  C   UNL     1       7.037   5.514  15.603  0.00  0.00    +0.000 A 
ATOM     12  N   UNL     1       7.777   6.390  16.339  0.00  0.00    +0.000 NA
BRANCH   5  13
ATOM     13  C   UNL     1       4.919   4.428  18.281  0.00  0.00    +0.000 C 
ATOM     14  O   UNL     1       3.750   4.227  18.528  0.00  0.00    +0.000 OA
BRANCH  13  15
ATOM     15  O   UNL     1       5.947   3.683  18.775  0.00  0.00    +0.000 OA
ATOM     16  H   UNL     1       6.395   3.084  18.138  0.00  0.00    +0.000 HD
ENDBRANCH  13  15
ENDBRANCH   5  13
ENDBRANCH   2   3
BRANCH   1  19
ATOM     17  C   UNL     1      10.096  12.464  18.267  0.00  0.00    +0.000 A 
ATOM     18  C   UNL     1       9.387  11.391  17.692  0.00  0.00    +0.000 A 
ATOM     19  C   UNL     1       8.952  10.298  18.451  0.00  0.00    +0.000 A 
ATOM     20  C   UNL     1       9.326  10.251  19.800  0.00  0.00    +0.000 A 
ATOM     21  C   UNL     1      10.091  11.276  20.367  0.00  0.00    +0.000 A 
ATOM     22  C   UNL     1      10.465  12.396  19.617  0.00  0.00    +0.000 A 
BRANCH  17  24
ATOM     23  C   UNL     1      11.496  13.363  16.578  0.00  0.00    +0.000 C 
ATOM     24  O   UNL     1      10.466  13.571  17.546  0.00  0.00    +0.000 OA
ENDBRANCH  17  24
BRANCH  22  25
ATOM     25  O   UNL     1      11.216  13.297  20.320  0.00  0.00    +0.000 OA
BRANCH  25  26
ATOM     26  C   UNL     1      10.572  14.476  20.773  0.00  0.00    +0.000 C 
ATOM     27  F   UNL     1      10.407  14.425  22.120  0.00  0.00    +0.000 F 
ATOM     28  F   UNL     1      11.433  15.504  20.541  0.00  0.00    +0.000 F 
ENDBRANCH  25  26
ENDBRANCH  22  25
ENDBRANCH   1  19
TORSDOF 7
ENDMDL
MODEL 4
REMARK VINA RESULT:      -8.2      1.192      2.273
REMARK  Name = 
REMARK  8 active torsions:
REMARK  status: ('A' for Active; 'I' for Inactive)
REMARK    1  A    between atoms: C_1  and  O_2
REMARK    2  A    between atoms: O_2  and  C_3
REMARK    3  A    between atoms: C_5  and  C_6
REMARK    4  A    between atoms: C_7  and  C_8
REMARK    5  A    between atoms: C_10  and  C_11
REMARK    6  A    between atoms: C_11  and  O_13
REMARK    7  A    between atoms: C_23  and  O_24
REMARK    8  A    between atoms: O_24  and  C_25
REMARK                            x       y       z     vdW  Elec       q    Type
REMARK                         _______ _______ _______ _____ _____    ______ ____
ROOT
ATOM      1  C   UNL     1       2.463   7.193  18.744  0.00  0.00    +0.000 C 
ATOM      2  C   UNL     1       2.043   8.403  18.314  0.00  0.00    +0.000 C 
ENDROOT
BRANCH   2   3
ATOM      3  C   UNL     1       1.306   9.384  19.134  0.00  0.00    +0.000 A 
ATOM      4  C   UNL     1       0.879  10.576  18.598  0.00  0.00    +0.000 A 
ATOM      5  C   UNL     1       0.434  11.535  19.492  0.00  0.00    +0.000 A 
ATOM      6  C   UNL     1      -0.034  11.185  20.754  0.00  0.00    +0.000 A 
ATOM      7  C   UNL     1      -0.879  12.025  21.512  0.00  0.00    +0.000 A 
ATOM      8  C   UNL     1      -1.382  11.589  22.728  0.00  0.00    +0.000 A 
ATOM      9  C   UNL     1      -0.976  10.354  23.219  0.00  0.00    +0.000 A 
ATOM     10  C   UNL     1      -0.106   9.541  22.461  0.00  0.00    +0.000 A 
ATOM     11  C   UNL     1       0.333   9.911  21.201  0.00  0.00    +0.000 A 
ATOM     12  N   UNL     1       1.079   9.068  20.432  0.00  0.00    +0.000 NA
BRANCH   5  13
ATOM     13  C   UNL     1       1.008  12.879  19.311  0.00  0.00    +0.000 C 
ATOM     14  O   UNL     1       0.466  13.811  18.758  0.00  0.00    +0.000 OA
BRANCH  13  15
ATOM     15  O   UNL     1       2.212  12.958  19.945  0.00  0.00    +0.000 OA
ATOM     16  H   UNL     1       2.499  13.857  20.223  0.00  0.00    +0.000 HD
ENDBRANCH  13  15
ENDBRANCH   5  13
ENDBRANCH   2   3
BRANCH   1  19
ATOM     17  C   UNL     1       4.072   3.994  17.405  0.00  0.00    +0.000 A 
ATOM     18  C   UNL     1       3.335   4.874  18.223  0.00  0.00    +0.000 A 
ATOM     19  C   UNL     1       3.386   6.263  18.051  0.00  0.00    +0.000 A 
ATOM     20  C   UNL     1       4.272   6.769  17.093  0.00  0.00    +0.000 A 
ATOM     21  C   UNL     1       5.062   5.909  16.322  0.00  0.00    +0.000 A 
ATOM     22  C   UNL     1       4.956   4.520  16.455  0.00  0.00    +0.000 A 
BRANCH  17  24
ATOM     23  C   UNL     1       2.659   2.119  17.733  0.00  0.00    +0.000 C 
ATOM     24  O   UNL     1       3.976   2.630  17.520  0.00  0.00    +0.000 OA
ENDBRANCH  17  24
BRANCH  22  25
ATOM     25  O   UNL     1       5.804   3.828  15.635  0.00  0.00    +0.000 OA
BRANCH  25  26
ATOM     26  C   UNL     1       6.098   4.392  14.368  0.00  0.00    +0.000 C 
ATOM     27  F   UNL     1       7.405   4.756  14.315  0.00  0.00    +0.000 F 
ATOM     28  F   UNL     1       5.949   3.394  13.454  0.00  0.00    +0.000 F 
ENDBRANCH  25  26
ENDBRANCH  22  25
ENDBRANCH   1  19
TORSDOF 7
ENDMDL
MODEL 5
REMARK VINA RESULT:      -8.2      1.912      2.553
REMARK  Name = 
REMARK  8 active torsions:
REMARK  status: ('A' for Active; 'I' for Inactive)
REMARK    1  A    between atoms: C_1  and  O_2
REMARK    2  A    between atoms: O_2  and  C_3
REMARK    3  A    between atoms: C_5  and  C_6
REMARK    4  A    between atoms: C_7  and  C_8
REMARK    5  A    between atoms: C_10  and  C_11
REMARK    6  A    between atoms: C_11  and  O_13
REMARK    7  A    between atoms: C_23  and  O_24
REMARK    8  A    between atoms: O_24  and  C_25
REMARK                            x       y       z     vdW  Elec       q    Type
REMARK                         _______ _______ _______ _____ _____    ______ ____
ROOT
ATOM      1  C   UNL     1       2.400   7.385  18.785  0.00  0.00    +0.000 C 
ATOM      2  C   UNL     1       1.772   8.526  18.424  0.00  0.00    +0.000 C 
ENDROOT
BRANCH   2   3
ATOM      3  C   UNL     1       0.974   9.376  19.330  0.00  0.00    +0.000 A 
ATOM      4  C   UNL     1       1.300   9.493  20.660  0.00  0.00    +0.000 A 
ATOM      5  C   UNL     1       0.357  10.091  21.480  0.00  0.00    +0.000 A 
ATOM      6  C   UNL     1      -0.602  10.958  20.966  0.00  0.00    +0.000 A 
ATOM      7  C   UNL     1      -1.278  11.905  21.765  0.00  0.00    +0.000 A 
ATOM      8  C   UNL     1      -2.164  12.800  21.184  0.00  0.00    +0.000 A 
ATOM      9  C   UNL     1      -2.431  12.692  19.825  0.00  0.00    +0.000 A 
ATOM     10  C   UNL     1      -1.768  11.719  19.046  0.00  0.00    +0.000 A 
ATOM     11  C   UNL     1      -0.808  10.878  19.584  0.00  0.00    +0.000 A 
ATOM     12  N   UNL     1      -0.094  10.022  18.801  0.00  0.00    +0.000 NA
BRANCH   5  13
ATOM     13  C   UNL     1       0.039   9.356  22.715  0.00  0.00    +0.000 C 
ATOM     14  O   UNL     1       0.423   9.643  23.828  0.00  0.00    +0.000 OA
BRANCH  13  15
ATOM     15  O   UNL     1      -0.838   8.349  22.443  0.00  0.00    +0.000 OA
ATOM     16  H   UNL     1      -1.599   8.257  23.059  0.00  0.00    +0.000 HD
ENDBRANCH  13  15
ENDBRANCH   5  13
ENDBRANCH   2   3
BRANCH   1  19
ATOM     17  C   UNL     1       5.599   6.367  16.957  0.00  0.00    +0.000 A 
ATOM     18  C   UNL     1       4.584   7.163  17.524  0.00  0.00    +0.000 A 
ATOM     19  C   UNL     1       3.384   6.612  17.991  0.00  0.00    +0.000 A 
ATOM     20  C   UNL     1       3.176   5.241  17.792  0.00  0.00    +0.000 A 
ATOM     21  C   UNL     1       4.147   4.453  17.166  0.00  0.00    +0.000 A 
ATOM     22  C   UNL     1       5.370   4.999  16.763  0.00  0.00    +0.000 A 
BRANCH  17  24
ATOM     23  C   UNL     1       7.634   7.396  17.607  0.00  0.00    +0.000 C 
ATOM     24  O   UNL     1       6.805   6.888  16.560  0.00  0.00    +0.000 OA
ENDBRANCH  17  24
BRANCH  22  25
ATOM     25  O   UNL     1       6.199   4.094  16.161  0.00  0.00    +0.000 OA
BRANCH  25  26
ATOM     26  C   UNL     1       6.232   4.075  14.744  0.00  0.00    +0.000 C 
ATOM     27  F   UNL     1       5.177   4.771  14.247  0.00  0.00    +0.000 F 
ATOM     28  F   UNL     1       7.345   4.766  14.371  0.00  0.00    +0.000 F 
ENDBRANCH  25  26
ENDBRANCH  22  25
ENDBRANCH   1  19
TORSDOF 7
ENDMDL
MODEL 6
REMARK VINA RESULT:      -8.1      1.415      2.435
REMARK  Name = 
REMARK  8 active torsions:
REMARK  status: ('A' for Active; 'I' for Inactive)
REMARK    1  A    between atoms: C_1  and  O_2
REMARK    2  A    between atoms: O_2  and  C_3
REMARK    3  A    between atoms: C_5  and  C_6
REMARK    4  A    between atoms: C_7  and  C_8
REMARK    5  A    between atoms: C_10  and  C_11
REMARK    6  A    between atoms: C_11  and  O_13
REMARK    7  A    between atoms: C_23  and  O_24
REMARK    8  A    between atoms: O_24  and  C_25
REMARK                            x       y       z     vdW  Elec       q    Type
REMARK                         _______ _______ _______ _____ _____    ______ ____
ROOT
ATOM      1  C   UNL     1       2.134   8.287  18.506  0.00  0.00    +0.000 C 
ATOM      2  C   UNL     1       1.501   8.492  19.681  0.00  0.00    +0.000 C 
ENDROOT
BRANCH   2   3
ATOM      3  C   UNL     1       0.531   9.574  19.943  0.00  0.00    +0.000 A 
ATOM      4  C   UNL     1      -0.125  10.201  18.911  0.00  0.00    +0.000 A 
ATOM      5  C   UNL     1      -0.809  11.364  19.225  0.00  0.00    +0.000 A 
ATOM      6  C   UNL     1      -1.241  11.621  20.522  0.00  0.00    +0.000 A 
ATOM      7  C   UNL     1      -2.281  12.530  20.812  0.00  0.00    +0.000 A 
ATOM      8  C   UNL     1      -2.727  12.685  22.115  0.00  0.00    +0.000 A 
ATOM      9  C   UNL     1      -2.079  11.994  23.132  0.00  0.00    +0.000 A 
ATOM     10  C   UNL     1      -1.020  11.112  22.827  0.00  0.00    +0.000 A 
ATOM     11  C   UNL     1      -0.620  10.867  21.524  0.00  0.00    +0.000 A 
ATOM     12  N   UNL     1       0.325   9.929  21.235  0.00  0.00    +0.000 NA
BRANCH   5  13
ATOM     13  C   UNL     1      -0.539  12.511  18.342  0.00  0.00    +0.000 C 
ATOM     14  O   UNL     1       0.357  13.315  18.480  0.00  0.00    +0.000 OA
BRANCH  13  15
ATOM     15  O   UNL     1      -1.391  12.488  17.278  0.00  0.00    +0.000 OA
ATOM     16  H   UNL     1      -2.346  12.387  17.489  0.00  0.00    +0.000 HD
ENDBRANCH  13  15
ENDBRANCH   5  13
ENDBRANCH   2   3
BRANCH   1  19
ATOM     17  C   UNL     1       3.217   4.681  17.848  0.00  0.00    +0.000 A 
ATOM     18  C   UNL     1       2.555   5.793  18.405  0.00  0.00    +0.000 A 
ATOM     19  C   UNL     1       2.941   7.107  18.114  0.00  0.00    +0.000 A 
ATOM     20  C   UNL     1       4.078   7.291  17.318  0.00  0.00    +0.000 A 
ATOM     21  C   UNL     1       4.787   6.194  16.816  0.00  0.00    +0.000 A 
ATOM     22  C   UNL     1       4.355   4.886  17.057  0.00  0.00    +0.000 A 
BRANCH  17  24
ATOM     23  C   UNL     1       1.401   3.219  18.277  0.00  0.00    +0.000 C 
ATOM     24  O   UNL     1       2.804   3.392  18.071  0.00  0.00    +0.000 OA
ENDBRANCH  17  24
BRANCH  22  25
ATOM     25  O   UNL     1       5.166   3.934  16.504  0.00  0.00    +0.000 OA
BRANCH  25  26
ATOM     26  C   UNL     1       6.182   4.372  15.617  0.00  0.00    +0.000 C 
ATOM     27  F   UNL     1       7.398   4.240  16.206  0.00  0.00    +0.000 F 
ATOM     28  F   UNL     1       6.179   3.507  14.565  0.00  0.00    +0.000 F 
ENDBRANCH  25  26
ENDBRANCH  22  25
ENDBRANCH   1  19
TORSDOF 7
ENDMDL
MODEL 7
REMARK VINA RESULT:      -8.1      2.011      3.173
REMARK  Name = 
REMARK  8 active torsions:
REMARK  status: ('A' for Active; 'I' for Inactive)
REMARK    1  A    between atoms: C_1  and  O_2
REMARK    2  A    between atoms: O_2  and  C_3
REMARK    3  A    between atoms: C_5  and  C_6
REMARK    4  A    between atoms: C_7  and  C_8
REMARK    5  A    between atoms: C_10  and  C_11
REMARK    6  A    between atoms: C_11  and  O_13
REMARK    7  A    between atoms: C_23  and  O_24
REMARK    8  A    between atoms: O_24  and  C_25
REMARK                            x       y       z     vdW  Elec       q    Type
REMARK                         _______ _______ _______ _____ _____    ______ ____
ROOT
ATOM      1  C   UNL     1       2.321   7.106  18.383  0.00  0.00    +0.000 C 
ATOM      2  C   UNL     1       2.235   8.453  18.315  0.00  0.00    +0.000 C 
ENDROOT
BRANCH   2   3
ATOM      3  C   UNL     1       1.260   9.277  19.057  0.00  0.00    +0.000 A 
ATOM      4  C   UNL     1       1.437   9.554  20.391  0.00  0.00    +0.000 A 
ATOM      5  C   UNL     1       0.357  10.104  21.060  0.00  0.00    +0.000 A 
ATOM      6  C   UNL     1      -0.639  10.796  20.379  0.00  0.00    +0.000 A 
ATOM      7  C   UNL     1      -1.494  11.721  21.016  0.00  0.00    +0.000 A 
ATOM      8  C   UNL     1      -2.414  12.444  20.272  0.00  0.00    +0.000 A 
ATOM      9  C   UNL     1      -2.533  12.181  18.913  0.00  0.00    +0.000 A 
ATOM     10  C   UNL     1      -1.689  11.230  18.299  0.00  0.00    +0.000 A 
ATOM     11  C   UNL     1      -0.698  10.566  19.001  0.00  0.00    +0.000 A 
ATOM     12  N   UNL     1       0.183   9.737  18.374  0.00  0.00    +0.000 NA
BRANCH   5  13
ATOM     13  C   UNL     1       0.004   9.450  22.332  0.00  0.00    +0.000 C 
ATOM     14  O   UNL     1       0.278   9.861  23.438  0.00  0.00    +0.000 OA
BRANCH  13  15
ATOM     15  O   UNL     1      -0.768   8.353  22.091  0.00  0.00    +0.000 OA
ATOM     16  H   UNL     1      -1.620   8.514  21.628  0.00  0.00    +0.000 HD
ENDBRANCH  13  15
ENDBRANCH   5  13
ENDBRANCH   2   3
BRANCH   1  19
ATOM     17  C   UNL     1       4.270   4.051  17.167  0.00  0.00    +0.000 A 
ATOM     18  C   UNL     1       3.343   4.849  17.867  0.00  0.00    +0.000 A 
ATOM     19  C   UNL     1       3.402   6.247  17.843  0.00  0.00    +0.000 A 
ATOM     20  C   UNL     1       4.477   6.843  17.173  0.00  0.00    +0.000 A 
ATOM     21  C   UNL     1       5.445   6.060  16.534  0.00  0.00    +0.000 A 
ATOM     22  C   UNL     1       5.342   4.665  16.507  0.00  0.00    +0.000 A 
BRANCH  17  24
ATOM     23  C   UNL     1       3.553   2.071  18.257  0.00  0.00    +0.000 C 
ATOM     24  O   UNL     1       4.180   2.682  17.128  0.00  0.00    +0.000 OA
ENDBRANCH  17  24
BRANCH  22  25
ATOM     25  O   UNL     1       6.373   4.055  15.849  0.00  0.00    +0.000 OA
BRANCH  25  26
ATOM     26  C   UNL     1       6.280   3.947  14.439  0.00  0.00    +0.000 C 
ATOM     27  F   UNL     1       5.013   4.223  14.036  0.00  0.00    +0.000 F 
ATOM     28  F   UNL     1       7.061   4.934  13.920  0.00  0.00    +0.000 F 
ENDBRANCH  25  26
ENDBRANCH  22  25
ENDBRANCH   1  19
TORSDOF 7
ENDMDL
MODEL 8
REMARK VINA RESULT:      -8.0      1.381      2.177
REMARK  Name = 
REMARK  8 active torsions:
REMARK  status: ('A' for Active; 'I' for Inactive)
REMARK    1  A    between atoms: C_1  and  O_2
REMARK    2  A    between atoms: O_2  and  C_3
REMARK    3  A    between atoms: C_5  and  C_6
REMARK    4  A    between atoms: C_7  and  C_8
REMARK    5  A    between atoms: C_10  and  C_11
REMARK    6  A    between atoms: C_11  and  O_13
REMARK    7  A    between atoms: C_23  and  O_24
REMARK    8  A    between atoms: O_24  and  C_25
REMARK                            x       y       z     vdW  Elec       q    Type
REMARK                         _______ _______ _______ _____ _____    ______ ____
ROOT
ATOM      1  C   UNL     1       3.431   7.573  18.117  0.00  0.00    +0.000 C 
ATOM      2  C   UNL     1       2.395   7.427  18.972  0.00  0.00    +0.000 C 
ENDROOT
BRANCH   2   3
ATOM      3  C   UNL     1       1.579   8.533  19.511  0.00  0.00    +0.000 A 
ATOM      4  C   UNL     1       1.101   9.526  18.689  0.00  0.00    +0.000 A 
ATOM      5  C   UNL     1       0.576  10.647  19.310  0.00  0.00    +0.000 A 
ATOM      6  C   UNL     1       0.092  10.592  20.612  0.00  0.00    +0.000 A 
ATOM      7  C   UNL     1      -0.821  11.538  21.125  0.00  0.00    +0.000 A 
ATOM      8  C   UNL     1      -1.335  11.387  22.404  0.00  0.00    +0.000 A 
ATOM      9  C   UNL     1      -0.873  10.340  23.193  0.00  0.00    +0.000 A 
ATOM     10  C   UNL     1       0.063   9.420  22.674  0.00  0.00    +0.000 A 
ATOM     11  C   UNL     1       0.518   9.494  21.367  0.00  0.00    +0.000 A 
ATOM     12  N   UNL     1       1.332   8.535  20.844  0.00  0.00    +0.000 NA
BRANCH   5  13
ATOM     13  C   UNL     1       1.078  11.937  18.808  0.00  0.00    +0.000 C 
ATOM     14  O   UNL     1       2.150  12.433  19.078  0.00  0.00    +0.000 OA
BRANCH  13  15
ATOM     15  O   UNL     1       0.196  12.460  17.910  0.00  0.00    +0.000 OA
ATOM     16  H   UNL     1       0.286  13.421  17.721  0.00  0.00    +0.000 HD
ENDBRANCH  13  15
ENDBRANCH   5  13
ENDBRANCH   2   3
BRANCH   1  19
ATOM     17  C   UNL     1       4.493   4.137  16.822  0.00  0.00    +0.000 A 
ATOM     18  C   UNL     1       3.979   5.144  17.663  0.00  0.00    +0.000 A 
ATOM     19  C   UNL     1       4.143   6.505  17.377  0.00  0.00    +0.000 A 
ATOM     20  C   UNL     1       4.923   6.847  16.265  0.00  0.00    +0.000 A 
ATOM     21  C   UNL     1       5.498   5.857  15.462  0.00  0.00    +0.000 A 
ATOM     22  C   UNL     1       5.275   4.500  15.718  0.00  0.00    +0.000 A 
BRANCH  17  24
ATOM     23  C   UNL     1       3.453   2.498  18.182  0.00  0.00    +0.000 C 
ATOM     24  O   UNL     1       4.279   2.803  17.057  0.00  0.00    +0.000 OA
ENDBRANCH  17  24
BRANCH  22  25
ATOM     25  O   UNL     1       5.917   3.668  14.843  0.00  0.00    +0.000 OA
BRANCH  25  26
ATOM     26  C   UNL     1       5.928   4.036  13.475  0.00  0.00    +0.000 C 
ATOM     27  F   UNL     1       7.170   4.454  13.118  0.00  0.00    +0.000 F 
ATOM     28  F   UNL     1       5.699   2.898  12.763  0.00  0.00    +0.000 F 
ENDBRANCH  25  26
ENDBRANCH  22  25
ENDBRANCH   1  19
TORSDOF 7
ENDMDL
MODEL 9
REMARK VINA RESULT:      -8.0      6.115      9.226
REMARK  Name = 
REMARK  8 active torsions:
REMARK  status: ('A' for Active; 'I' for Inactive)
REMARK    1  A    between atoms: C_1  and  O_2
REMARK    2  A    between atoms: O_2  and  C_3
REMARK    3  A    between atoms: C_5  and  C_6
REMARK    4  A    between atoms: C_7  and  C_8
REMARK    5  A    between atoms: C_10  and  C_11
REMARK    6  A    between atoms: C_11  and  O_13
REMARK    7  A    between atoms: C_23  and  O_24
REMARK    8  A    between atoms: O_24  and  C_25
REMARK                            x       y       z     vdW  Elec       q    Type
REMARK                         _______ _______ _______ _____ _____    ______ ____
ROOT
ATOM      1  C   UNL     1       8.548   8.845  18.516  0.00  0.00    +0.000 C 
ATOM      2  C   UNL     1       7.630   8.667  17.541  0.00  0.00    +0.000 C 
ENDROOT
BRANCH   2   3
ATOM      3  C   UNL     1       6.818   7.448  17.355  0.00  0.00    +0.000 A 
ATOM      4  C   UNL     1       7.392   6.272  16.935  0.00  0.00    +0.000 A 
ATOM      5  C   UNL     1       6.527   5.265  16.539  0.00  0.00    +0.000 A 
ATOM      6  C   UNL     1       5.212   5.222  16.991  0.00  0.00    +0.000 A 
ATOM      7  C   UNL     1       4.444   4.038  16.985  0.00  0.00    +0.000 A 
ATOM      8  C   UNL     1       3.166   4.035  17.524  0.00  0.00    +0.000 A 
ATOM      9  C   UNL     1       2.633   5.230  17.991  0.00  0.00    +0.000 A 
ATOM     10  C   UNL     1       3.405   6.412  17.962  0.00  0.00    +0.000 A 
ATOM     11  C   UNL     1       4.717   6.420  17.518  0.00  0.00    +0.000 A 
ATOM     12  N   UNL     1       5.488   7.541  17.601  0.00  0.00    +0.000 NA
BRANCH   5  13
ATOM     13  C   UNL     1       6.837   4.643  15.241  0.00  0.00    +0.000 C 
ATOM     14  O   UNL     1       6.335   3.631  14.803  0.00  0.00    +0.000 OA
BRANCH  13  15
ATOM     15  O   UNL     1       7.710   5.428  14.548  0.00  0.00    +0.000 OA
ATOM     16  H   UNL     1       7.315   6.034  13.883  0.00  0.00    +0.000 HD
ENDBRANCH  13  15
ENDBRANCH   5  13
ENDBRANCH   2   3
BRANCH   1  19
ATOM     17  C   UNL     1       9.998  12.378  18.351  0.00  0.00    +0.000 A 
ATOM     18  C   UNL     1       9.544  11.103  17.956  0.00  0.00    +0.000 A 
ATOM     19  C   UNL     1       9.231  10.106  18.888  0.00  0.00    +0.000 A 
ATOM     20  C   UNL     1       9.474  10.379  20.240  0.00  0.00    +0.000 A 
ATOM     21  C   UNL     1       9.992  11.615  20.640  0.00  0.00    +0.000 A 
ATOM     22  C   UNL     1      10.239  12.629  19.708  0.00  0.00    +0.000 A 
BRANCH  17  24
ATOM     23  C   UNL     1      11.493  13.311  16.765  0.00  0.00    +0.000 C 
ATOM     24  O   UNL     1      10.241  13.383  17.450  0.00  0.00    +0.000 OA
ENDBRANCH  17  24
BRANCH  22  25
ATOM     25  O   UNL     1      10.752  13.768  20.264  0.00  0.00    +0.000 OA
BRANCH  25  26
ATOM     26  C   UNL     1       9.908  14.515  21.124  0.00  0.00    +0.000 C 
ATOM     27  F   UNL     1      10.451  15.738  21.357  0.00  0.00    +0.000 F 
ATOM     28  F   UNL     1       8.755  14.742  20.437  0.00  0.00    +0.000 F 
ENDBRANCH  25  26
ENDBRANCH  22  25
ENDBRANCH   1  19
TORSDOF 7
ENDMDL
