MODEL 1
REMARK VINA RESULT:      -8.8      0.000      0.000
REMARK  Name = 
REMARK  6 active torsions:
REMARK  status: ('A' for Active; 'I' for Inactive)
REMARK    1  A    between atoms: C_1  and  O_2
REMARK    2  A    between atoms: O_2  and  C_3
REMARK    3  A    between atoms: C_8  and  O_9
REMARK    4  A    between atoms: O_9  and  C_10
REMARK    5  A    between atoms: C_10  and  C_11
REMARK    6  A    between atoms: C_11  and  C_12
REMARK                            x       y       z     vdW  Elec       q    Type
REMARK                         _______ _______ _______ _____ _____    ______ ____
ROOT
ATOM      1  C   UNL     1       6.500   5.155  16.029  0.00  0.00    +0.000 A 
ATOM      2  C   UNL     1       5.610   4.132  16.394  0.00  0.00    +0.000 A 
ATOM      3  C   UNL     1       4.935   4.140  17.634  0.00  0.00    +0.000 A 
ATOM      4  C   UNL     1       5.183   5.174  18.546  0.00  0.00    +0.000 A 
ATOM      5  C   UNL     1       6.086   6.185  18.176  0.00  0.00    +0.000 A 
ATOM      6  C   UNL     1       6.725   6.211  16.927  0.00  0.00    +0.000 A 
ATOM      7  N   UNL     1       4.677   5.268  19.855  0.00  0.00    +0.000 NA
ATOM      8  C   UNL     1       3.444   4.967  20.121  0.00  0.00    +0.000 C 
ATOM      9  C   UNL     1       2.420   4.492  19.119  0.00  0.00    +0.000 C 
ATOM     10  C   UNL     1       1.072   4.195  19.779  0.00  0.00    +0.000 C 
ATOM     11  C   UNL     1       0.589   2.932  19.077  0.00  0.00    +0.000 C 
ATOM     12  C   UNL     1       1.874   2.171  18.795  0.00  0.00    +0.000 C 
ATOM     13  N   UNL     1       2.874   3.203  18.629  0.00  0.00    +0.000 N 
ATOM     14  C   UNL     1       4.019   2.993  17.879  0.00  0.00    +0.000 C 
ATOM     15  O   UNL     1       4.267   1.903  17.365  0.00  0.00    +0.000 OA
ENDROOT
BRANCH   1  17
ATOM     16  C   UNL     1       6.617   4.402  13.771  0.00  0.00    +0.000 C 
ATOM     17  O   UNL     1       7.207   5.114  14.857  0.00  0.00    +0.000 OA
ENDBRANCH   1  17
BRANCH   6  18
ATOM     18  O   UNL     1       7.526   7.321  16.761  0.00  0.00    +0.000 OA
BRANCH  18  19
ATOM     19  C   UNL     1       7.878   8.037  17.946  0.00  0.00    +0.000 C 
BRANCH  19  20
ATOM     20  C   UNL     1       8.227   9.502  17.628  0.00  0.00    +0.000 C 
BRANCH  20  21
ATOM     21  C   UNL     1       9.000  10.061  18.807  0.00  0.00    +0.000 C 
ATOM     22  O   UNL     1       9.111   9.410  19.849  0.00  0.00    +0.000 OA
ATOM     23  N   UNL     1       9.569  11.303  18.717  0.00  0.00    +0.000 N 
ATOM     24  C   UNL     1      10.174  11.859  19.924  0.00  0.00    +0.000 C 
ATOM     25  C   UNL     1      10.431  13.279  19.564  0.00  0.00    +0.000 A 
ATOM     26  C   UNL     1      10.761  14.328  20.404  0.00  0.00    +0.000 A 
ATOM     27  C   UNL     1      11.049  15.562  19.827  0.00  0.00    +0.000 A 
ATOM     28  C   UNL     1      11.058  15.706  18.429  0.00  0.00    +0.000 A 
ATOM     29  C   UNL     1      10.678  14.647  17.593  0.00  0.00    +0.000 A 
ATOM     30  C   UNL     1      10.306  13.449  18.179  0.00  0.00    +0.000 A 
ATOM     31  C   UNL     1       9.666  12.226  17.579  0.00  0.00    +0.000 C 
ENDBRANCH  20  21
ENDBRANCH  19  20
ENDBRANCH  18  19
ENDBRANCH   6  18
TORSDOF 5
ENDMDL
MODEL 2
REMARK VINA RESULT:      -8.5      8.471     11.534
REMARK  Name = 
REMARK  6 active torsions:
REMARK  status: ('A' for Active; 'I' for Inactive)
REMARK    1  A    between atoms: C_1  and  O_2
REMARK    2  A    between atoms: O_2  and  C_3
REMARK    3  A    between atoms: C_8  and  O_9
REMARK    4  A    between atoms: O_9  and  C_10
REMARK    5  A    between atoms: C_10  and  C_11
REMARK    6  A    between atoms: C_11  and  C_12
REMARK                            x       y       z     vdW  Elec       q    Type
REMARK                         _______ _______ _______ _____ _____    ______ ____
ROOT
ATOM      1  C   UNL     1      -0.828  11.485  22.294  0.00  0.00    +0.000 A 
ATOM      2  C   UNL     1      -1.981  11.722  23.057  0.00  0.00    +0.000 A 
ATOM      3  C   UNL     1      -3.037  12.529  22.580  0.00  0.00    +0.000 A 
ATOM      4  C   UNL     1      -2.922  13.143  21.326  0.00  0.00    +0.000 A 
ATOM      5  C   UNL     1      -1.756  12.910  20.576  0.00  0.00    +0.000 A 
ATOM      6  C   UNL     1      -0.723  12.071  21.022  0.00  0.00    +0.000 A 
ATOM      7  N   UNL     1      -3.830  14.055  20.759  0.00  0.00    +0.000 NA
ATOM      8  C   UNL     1      -5.111  13.870  20.849  0.00  0.00    +0.000 C 
ATOM      9  C   UNL     1      -5.784  12.711  21.542  0.00  0.00    +0.000 C 
ATOM     10  C   UNL     1      -7.309  12.822  21.487  0.00  0.00    +0.000 C 
ATOM     11  C   UNL     1      -7.762  12.358  22.866  0.00  0.00    +0.000 C 
ATOM     12  C   UNL     1      -6.649  12.841  23.784  0.00  0.00    +0.000 C 
ATOM     13  N   UNL     1      -5.464  12.819  22.954  0.00  0.00    +0.000 N 
ATOM     14  C   UNL     1      -4.198  12.685  23.498  0.00  0.00    +0.000 C 
ATOM     15  O   UNL     1      -4.016  12.635  24.714  0.00  0.00    +0.000 OA
ENDROOT
BRANCH   1  17
ATOM     16  C   UNL     1      -0.042   9.415  23.176  0.00  0.00    +0.000 C 
ATOM     17  O   UNL     1       0.227  10.760  22.782  0.00  0.00    +0.000 OA
ENDBRANCH   1  17
BRANCH   6  18
ATOM     18  O   UNL     1       0.297  11.947  20.102  0.00  0.00    +0.000 OA
BRANCH  18  19
ATOM     19  C   UNL     1       0.092  11.010  19.044  0.00  0.00    +0.000 C 
BRANCH  19  20
ATOM     20  C   UNL     1       0.572   9.604  19.446  0.00  0.00    +0.000 C 
BRANCH  20  21
ATOM     21  C   UNL     1       1.664   9.192  18.477  0.00  0.00    +0.000 C 
ATOM     22  O   UNL     1       1.961   9.915  17.524  0.00  0.00    +0.000 OA
ATOM     23  N   UNL     1       2.316   8.002  18.659  0.00  0.00    +0.000 N 
ATOM     24  C   UNL     1       3.254   7.580  17.621  0.00  0.00    +0.000 C 
ATOM     25  C   UNL     1       3.557   6.168  17.978  0.00  0.00    +0.000 A 
ATOM     26  C   UNL     1       4.188   5.209  17.206  0.00  0.00    +0.000 A 
ATOM     27  C   UNL     1       4.451   3.971  17.788  0.00  0.00    +0.000 A 
ATOM     28  C   UNL     1       4.131   3.740  19.136  0.00  0.00    +0.000 A 
ATOM     29  C   UNL     1       3.450   4.705  19.891  0.00  0.00    +0.000 A 
ATOM     30  C   UNL     1       3.114   5.900  19.278  0.00  0.00    +0.000 A 
ATOM     31  C   UNL     1       2.225   7.021  19.746  0.00  0.00    +0.000 C 
ENDBRANCH  20  21
ENDBRANCH  19  20
ENDBRANCH  18  19
ENDBRANCH   6  18
TORSDOF 5
ENDMDL
MODEL 3
REMARK VINA RESULT:      -8.5      5.548      8.888
REMARK  Name = 
REMARK  6 active torsions:
REMARK  status: ('A' for Active; 'I' for Inactive)
REMARK    1  A    between atoms: C_1  and  O_2
REMARK    2  A    between atoms: O_2  and  C_3
REMARK    3  A    between atoms: C_8  and  O_9
REMARK    4  A    between atoms: O_9  and  C_10
REMARK    5  A    between atoms: C_10  and  C_11
REMARK    6  A    between atoms: C_11  and  C_12
REMARK                            x       y       z     vdW  Elec       q    Type
REMARK                         _______ _______ _______ _____ _____    ______ ____
ROOT
ATOM      1  C   UNL     1       1.788   7.194  20.211  0.00  0.00    +0.000 A 
ATOM      2  C   UNL     1       1.257   8.018  21.216  0.00  0.00    +0.000 A 
ATOM      3  C   UNL     1       0.912   9.365  20.970  0.00  0.00    +0.000 A 
ATOM      4  C   UNL     1       1.139   9.913  19.701  0.00  0.00    +0.000 A 
ATOM      5  C   UNL     1       1.685   9.083  18.706  0.00  0.00    +0.000 A 
ATOM      6  C   UNL     1       1.985   7.730  18.928  0.00  0.00    +0.000 A 
ATOM      7  N   UNL     1       0.953  11.256  19.328  0.00  0.00    +0.000 NA
ATOM      8  C   UNL     1      -0.085  11.924  19.727  0.00  0.00    +0.000 C 
ATOM      9  C   UNL     1      -1.190  11.391  20.605  0.00  0.00    +0.000 C 
ATOM     10  C   UNL     1      -2.243  12.458  20.908  0.00  0.00    +0.000 C 
ATOM     11  C   UNL     1      -2.593  12.225  22.373  0.00  0.00    +0.000 C 
ATOM     12  C   UNL     1      -1.278  11.764  22.981  0.00  0.00    +0.000 C 
ATOM     13  N   UNL     1      -0.596  11.092  21.896  0.00  0.00    +0.000 N 
ATOM     14  C   UNL     1       0.354  10.112  22.129  0.00  0.00    +0.000 C 
ATOM     15  O   UNL     1       0.703   9.806  23.269  0.00  0.00    +0.000 OA
ENDROOT
BRANCH   1  17
ATOM     16  C   UNL     1       1.162   4.919  20.549  0.00  0.00    +0.000 C 
ATOM     17  O   UNL     1       2.187   5.909  20.465  0.00  0.00    +0.000 OA
ENDBRANCH   1  17
BRANCH   6  18
ATOM     18  O   UNL     1       2.462   7.098  17.799  0.00  0.00    +0.000 OA
BRANCH  18  19
ATOM     19  C   UNL     1       3.860   7.228  17.536  0.00  0.00    +0.000 C 
BRANCH  19  20
ATOM     20  C   UNL     1       4.654   6.069  18.164  0.00  0.00    +0.000 C 
BRANCH  20  21
ATOM     21  C   UNL     1       5.988   5.979  17.447  0.00  0.00    +0.000 C 
ATOM     22  O   UNL     1       6.994   6.506  17.926  0.00  0.00    +0.000 OA
ATOM     23  N   UNL     1       6.071   5.316  16.252  0.00  0.00    +0.000 N 
ATOM     24  C   UNL     1       7.338   5.383  15.528  0.00  0.00    +0.000 C 
ATOM     25  C   UNL     1       7.007   4.821  14.191  0.00  0.00    +0.000 A 
ATOM     26  C   UNL     1       7.761   4.874  13.032  0.00  0.00    +0.000 A 
ATOM     27  C   UNL     1       7.288   4.191  11.914  0.00  0.00    +0.000 A 
ATOM     28  C   UNL     1       6.110   3.430  11.994  0.00  0.00    +0.000 A 
ATOM     29  C   UNL     1       5.333   3.424  13.161  0.00  0.00    +0.000 A 
ATOM     30  C   UNL     1       5.764   4.177  14.240  0.00  0.00    +0.000 A 
ATOM     31  C   UNL     1       5.064   4.533  15.523  0.00  0.00    +0.000 C 
ENDBRANCH  20  21
ENDBRANCH  19  20
ENDBRANCH  18  19
ENDBRANCH   6  18
TORSDOF 5
ENDMDL
MODEL 4
REMARK VINA RESULT:      -8.3      2.363     10.991
REMARK  Name = 
REMARK  6 active torsions:
REMARK  status: ('A' for Active; 'I' for Inactive)
REMARK    1  A    between atoms: C_1  and  O_2
REMARK    2  A    between atoms: O_2  and  C_3
REMARK    3  A    between atoms: C_8  and  O_9
REMARK    4  A    between atoms: O_9  and  C_10
REMARK    5  A    between atoms: C_10  and  C_11
REMARK    6  A    between atoms: C_11  and  C_12
REMARK                            x       y       z     vdW  Elec       q    Type
REMARK                         _______ _______ _______ _____ _____    ______ ____
ROOT
ATOM      1  C   UNL     1       9.276  11.268  20.500  0.00  0.00    +0.000 A 
ATOM      2  C   UNL     1       9.791  12.570  20.596  0.00  0.00    +0.000 A 
ATOM      3  C   UNL     1      10.500  13.171  19.533  0.00  0.00    +0.000 A 
ATOM      4  C   UNL     1      10.732  12.440  18.361  0.00  0.00    +0.000 A 
ATOM      5  C   UNL     1      10.223  11.132  18.281  0.00  0.00    +0.000 A 
ATOM      6  C   UNL     1       9.477  10.545  19.313  0.00  0.00    +0.000 A 
ATOM      7  N   UNL     1      11.506  12.853  17.262  0.00  0.00    +0.000 NA
ATOM      8  C   UNL     1      11.437  14.068  16.811  0.00  0.00    +0.000 C 
ATOM      9  C   UNL     1      10.563  15.164  17.370  0.00  0.00    +0.000 C 
ATOM     10  C   UNL     1      10.753  16.482  16.618  0.00  0.00    +0.000 C 
ATOM     11  C   UNL     1      10.722  17.539  17.716  0.00  0.00    +0.000 C 
ATOM     12  C   UNL     1      11.368  16.837  18.900  0.00  0.00    +0.000 C 
ATOM     13  N   UNL     1      11.039  15.440  18.713  0.00  0.00    +0.000 N 
ATOM     14  C   UNL     1      10.980  14.558  19.778  0.00  0.00    +0.000 C 
ATOM     15  O   UNL     1      11.258  14.906  20.925  0.00  0.00    +0.000 OA
ENDROOT
BRANCH   1  17
ATOM     16  C   UNL     1       8.343  11.475  22.683  0.00  0.00    +0.000 C 
ATOM     17  O   UNL     1       8.649  10.658  21.554  0.00  0.00    +0.000 OA
ENDBRANCH   1  17
BRANCH   6  18
ATOM     18  O   UNL     1       9.036   9.277  18.997  0.00  0.00    +0.000 OA
BRANCH  18  19
ATOM     19  C   UNL     1       7.928   9.192  18.099  0.00  0.00    +0.000 C 
BRANCH  19  20
ATOM     20  C   UNL     1       7.930   7.853  17.339  0.00  0.00    +0.000 C 
BRANCH  20  21
ATOM     21  C   UNL     1       7.534   6.764  18.317  0.00  0.00    +0.000 C 
ATOM     22  O   UNL     1       8.371   6.268  19.074  0.00  0.00    +0.000 OA
ATOM     23  N   UNL     1       6.239   6.323  18.351  0.00  0.00    +0.000 N 
ATOM     24  C   UNL     1       5.938   5.175  19.202  0.00  0.00    +0.000 C 
ATOM     25  C   UNL     1       4.558   4.793  18.799  0.00  0.00    +0.000 A 
ATOM     26  C   UNL     1       3.871   3.629  19.099  0.00  0.00    +0.000 A 
ATOM     27  C   UNL     1       2.544   3.530  18.689  0.00  0.00    +0.000 A 
ATOM     28  C   UNL     1       1.919   4.610  18.044  0.00  0.00    +0.000 A 
ATOM     29  C   UNL     1       2.640   5.764  17.707  0.00  0.00    +0.000 A 
ATOM     30  C   UNL     1       3.983   5.818  18.039  0.00  0.00    +0.000 A 
ATOM     31  C   UNL     1       5.048   6.804  17.639  0.00  0.00    +0.000 C 
ENDBRANCH  20  21
ENDBRANCH  19  20
ENDBRANCH  18  19
ENDBRANCH   6  18
TORSDOF 5
ENDMDL
MODEL 5
REMARK VINA RESULT:      -8.2      6.009      8.925
REMARK  Name = 
REMARK  6 active torsions:
REMARK  status: ('A' for Active; 'I' for Inactive)
REMARK    1  A    between atoms: C_1  and  O_2
REMARK    2  A    between atoms: O_2  and  C_3
REMARK    3  A    between atoms: C_8  and  O_9
REMARK    4  A    between atoms: O_9  and  C_10
REMARK    5  A    between atoms: C_10  and  C_11
REMARK    6  A    between atoms: C_11  and  C_12
REMARK                            x       y       z     vdW  Elec       q    Type
REMARK                         _______ _______ _______ _____ _____    ______ ____
ROOT
ATOM      1  C   UNL     1       1.806   4.800  20.317  0.00  0.00    +0.000 A 
ATOM      2  C   UNL     1       2.474   4.195  19.241  0.00  0.00    +0.000 A 
ATOM      3  C   UNL     1       3.169   4.954  18.275  0.00  0.00    +0.000 A 
ATOM      4  C   UNL     1       3.164   6.353  18.364  0.00  0.00    +0.000 A 
ATOM      5  C   UNL     1       2.479   6.948  19.437  0.00  0.00    +0.000 A 
ATOM      6  C   UNL     1       1.827   6.200  20.429  0.00  0.00    +0.000 A 
ATOM      7  N   UNL     1       3.713   7.249  17.429  0.00  0.00    +0.000 NA
ATOM      8  C   UNL     1       4.864   7.020  16.877  0.00  0.00    +0.000 C 
ATOM      9  C   UNL     1       5.742   5.820  17.139  0.00  0.00    +0.000 C 
ATOM     10  C   UNL     1       7.016   5.851  16.293  0.00  0.00    +0.000 C 
ATOM     11  C   UNL     1       7.210   4.400  15.867  0.00  0.00    +0.000 C 
ATOM     12  C   UNL     1       5.788   3.886  15.706  0.00  0.00    +0.000 C 
ATOM     13  N   UNL     1       5.018   4.656  16.660  0.00  0.00    +0.000 N 
ATOM     14  C   UNL     1       3.835   4.175  17.196  0.00  0.00    +0.000 C 
ATOM     15  O   UNL     1       3.355   3.098  16.845  0.00  0.00    +0.000 OA
ENDROOT
BRANCH   1  17
ATOM     16  C   UNL     1       1.448   2.706  21.397  0.00  0.00    +0.000 C 
ATOM     17  O   UNL     1       1.074   4.071  21.216  0.00  0.00    +0.000 OA
ENDBRANCH   1  17
BRANCH   6  18
ATOM     18  O   UNL     1       1.268   6.990  21.411  0.00  0.00    +0.000 OA
BRANCH  18  19
ATOM     19  C   UNL     1       0.610   8.180  20.975  0.00  0.00    +0.000 C 
BRANCH  19  20
ATOM     20  C   UNL     1       1.265   9.433  21.584  0.00  0.00    +0.000 C 
BRANCH  20  21
ATOM     21  C   UNL     1       0.315   9.993  22.626  0.00  0.00    +0.000 C 
ATOM     22  O   UNL     1       0.346   9.582  23.788  0.00  0.00    +0.000 OA
ATOM     23  N   UNL     1      -0.592  10.954  22.268  0.00  0.00    +0.000 N 
ATOM     24  C   UNL     1      -1.581  11.355  23.265  0.00  0.00    +0.000 C 
ATOM     25  C   UNL     1      -2.551  12.171  22.487  0.00  0.00    +0.000 A 
ATOM     26  C   UNL     1      -3.812  12.594  22.869  0.00  0.00    +0.000 A 
ATOM     27  C   UNL     1      -4.509  13.436  22.004  0.00  0.00    +0.000 A 
ATOM     28  C   UNL     1      -3.911  13.879  20.813  0.00  0.00    +0.000 A 
ATOM     29  C   UNL     1      -2.652  13.406  20.418  0.00  0.00    +0.000 A 
ATOM     30  C   UNL     1      -2.004  12.500  21.241  0.00  0.00    +0.000 A 
ATOM     31  C   UNL     1      -0.770  11.672  21.000  0.00  0.00    +0.000 C 
ENDBRANCH  20  21
ENDBRANCH  19  20
ENDBRANCH  18  19
ENDBRANCH   6  18
TORSDOF 5
ENDMDL
MODEL 6
REMARK VINA RESULT:      -8.2      5.612      8.993
REMARK  Name = 
REMARK  6 active torsions:
REMARK  status: ('A' for Active; 'I' for Inactive)
REMARK    1  A    between atoms: C_1  and  O_2
REMARK    2  A    between atoms: O_2  and  C_3
REMARK    3  A    between atoms: C_8  and  O_9
REMARK    4  A    between atoms: O_9  and  C_10
REMARK    5  A    between atoms: C_10  and  C_11
REMARK    6  A    between atoms: C_11  and  C_12
REMARK                            x       y       z     vdW  Elec       q    Type
REMARK                         _______ _______ _______ _____ _____    ______ ____
ROOT
ATOM      1  C   UNL     1       1.773   4.990  20.265  0.00  0.00    +0.000 A 
ATOM      2  C   UNL     1       2.420   4.338  19.204  0.00  0.00    +0.000 A 
ATOM      3  C   UNL     1       3.142   5.049  18.222  0.00  0.00    +0.000 A 
ATOM      4  C   UNL     1       3.187   6.449  18.279  0.00  0.00    +0.000 A 
ATOM      5  C   UNL     1       2.523   7.093  19.337  0.00  0.00    +0.000 A 
ATOM      6  C   UNL     1       1.844   6.391  20.345  0.00  0.00    +0.000 A 
ATOM      7  N   UNL     1       3.768   7.303  17.324  0.00  0.00    +0.000 NA
ATOM      8  C   UNL     1       4.910   7.021  16.779  0.00  0.00    +0.000 C 
ATOM      9  C   UNL     1       5.744   5.797  17.070  0.00  0.00    +0.000 C 
ATOM     10  C   UNL     1       7.019   5.763  16.225  0.00  0.00    +0.000 C 
ATOM     11  C   UNL     1       7.162   4.297  15.833  0.00  0.00    +0.000 C 
ATOM     12  C   UNL     1       5.723   3.831  15.682  0.00  0.00    +0.000 C 
ATOM     13  N   UNL     1       4.980   4.648  16.617  0.00  0.00    +0.000 N 
ATOM     14  C   UNL     1       3.781   4.223  17.162  0.00  0.00    +0.000 C 
ATOM     15  O   UNL     1       3.262   3.155  16.835  0.00  0.00    +0.000 OA
ENDROOT
BRANCH   1  17
ATOM     16  C   UNL     1       1.379   2.953  21.437  0.00  0.00    +0.000 C 
ATOM     17  O   UNL     1       1.015   4.308  21.179  0.00  0.00    +0.000 OA
ENDBRANCH   1  17
BRANCH   6  18
ATOM     18  O   UNL     1       1.313   7.222  21.308  0.00  0.00    +0.000 OA
BRANCH  18  19
ATOM     19  C   UNL     1       0.357   8.186  20.863  0.00  0.00    +0.000 C 
BRANCH  19  20
ATOM     20  C   UNL     1       0.973   9.596  20.809  0.00  0.00    +0.000 C 
BRANCH  20  21
ATOM     21  C   UNL     1      -0.166  10.597  20.756  0.00  0.00    +0.000 C 
ATOM     22  O   UNL     1      -0.435  11.292  21.738  0.00  0.00    +0.000 OA
ATOM     23  N   UNL     1      -0.906  10.720  19.611  0.00  0.00    +0.000 N 
ATOM     24  C   UNL     1      -2.081  11.587  19.655  0.00  0.00    +0.000 C 
ATOM     25  C   UNL     1      -2.790  11.280  18.384  0.00  0.00    +0.000 A 
ATOM     26  C   UNL     1      -4.081  11.623  18.021  0.00  0.00    +0.000 A 
ATOM     27  C   UNL     1      -4.503  11.307  16.732  0.00  0.00    +0.000 A 
ATOM     28  C   UNL     1      -3.614  10.710  15.823  0.00  0.00    +0.000 A 
ATOM     29  C   UNL     1      -2.326  10.326  16.219  0.00  0.00    +0.000 A 
ATOM     30  C   UNL     1      -1.944  10.564  17.528  0.00  0.00    +0.000 A 
ATOM     31  C   UNL     1      -0.737  10.094  18.294  0.00  0.00    +0.000 C 
ENDBRANCH  20  21
ENDBRANCH  19  20
ENDBRANCH  18  19
ENDBRANCH   6  18
TORSDOF 5
ENDMDL
MODEL 7
REMARK VINA RESULT:      -8.1      6.395      8.877
REMARK  Name = 
REMARK  6 active torsions:
REMARK  status: ('A' for Active; 'I' for Inactive)
REMARK    1  A    between atoms: C_1  and  O_2
REMARK    2  A    between atoms: O_2  and  C_3
REMARK    3  A    between atoms: C_8  and  O_9
REMARK    4  A    between atoms: O_9  and  C_10
REMARK    5  A    between atoms: C_10  and  C_11
REMARK    6  A    between atoms: C_11  and  C_12
REMARK                            x       y       z     vdW  Elec       q    Type
REMARK                         _______ _______ _______ _____ _____    ______ ____
ROOT
ATOM      1  C   UNL     1       1.791   4.861  20.250  0.00  0.00    +0.000 A 
ATOM      2  C   UNL     1       2.458   4.251  19.177  0.00  0.00    +0.000 A 
ATOM      3  C   UNL     1       3.186   5.002  18.228  0.00  0.00    +0.000 A 
ATOM      4  C   UNL     1       3.216   6.399  18.333  0.00  0.00    +0.000 A 
ATOM      5  C   UNL     1       2.532   7.001  19.403  0.00  0.00    +0.000 A 
ATOM      6  C   UNL     1       1.847   6.259  20.378  0.00  0.00    +0.000 A 
ATOM      7  N   UNL     1       3.800   7.290  17.415  0.00  0.00    +0.000 NA
ATOM      8  C   UNL     1       4.953   7.037  16.876  0.00  0.00    +0.000 C 
ATOM      9  C   UNL     1       5.795   5.812  17.137  0.00  0.00    +0.000 C 
ATOM     10  C   UNL     1       7.081   5.819  16.309  0.00  0.00    +0.000 C 
ATOM     11  C   UNL     1       7.244   4.369  15.869  0.00  0.00    +0.000 C 
ATOM     12  C   UNL     1       5.811   3.894  15.684  0.00  0.00    +0.000 C 
ATOM     13  N   UNL     1       5.048   4.672  16.636  0.00  0.00    +0.000 N 
ATOM     14  C   UNL     1       3.846   4.217  17.150  0.00  0.00    +0.000 C 
ATOM     15  O   UNL     1       3.343   3.157  16.781  0.00  0.00    +0.000 OA
ENDROOT
BRANCH   1  17
ATOM     16  C   UNL     1       1.539   2.874  21.542  0.00  0.00    +0.000 C 
ATOM     17  O   UNL     1       1.028   4.142  21.131  0.00  0.00    +0.000 OA
ENDBRANCH   1  17
BRANCH   6  18
ATOM     18  O   UNL     1       1.295   7.053  21.361  0.00  0.00    +0.000 OA
BRANCH  18  19
ATOM     19  C   UNL     1       0.876   8.360  20.966  0.00  0.00    +0.000 C 
BRANCH  19  20
ATOM     20  C   UNL     1       0.207   9.107  22.134  0.00  0.00    +0.000 C 
BRANCH  20  21
ATOM     21  C   UNL     1       0.325  10.594  21.861  0.00  0.00    +0.000 C 
ATOM     22  O   UNL     1       1.266  11.037  21.199  0.00  0.00    +0.000 OA
ATOM     23  N   UNL     1      -0.616  11.451  22.366  0.00  0.00    +0.000 N 
ATOM     24  C   UNL     1      -0.381  12.884  22.204  0.00  0.00    +0.000 C 
ATOM     25  C   UNL     1      -1.407  13.508  23.082  0.00  0.00    +0.000 A 
ATOM     26  C   UNL     1      -1.484  14.823  23.506  0.00  0.00    +0.000 A 
ATOM     27  C   UNL     1      -2.595  15.204  24.255  0.00  0.00    +0.000 A 
ATOM     28  C   UNL     1      -3.624  14.284  24.513  0.00  0.00    +0.000 A 
ATOM     29  C   UNL     1      -3.510  12.944  24.118  0.00  0.00    +0.000 A 
ATOM     30  C   UNL     1      -2.362  12.552  23.451  0.00  0.00    +0.000 A 
ATOM     31  C   UNL     1      -1.863  11.179  23.090  0.00  0.00    +0.000 C 
ENDBRANCH  20  21
ENDBRANCH  19  20
ENDBRANCH  18  19
ENDBRANCH   6  18
TORSDOF 5
ENDMDL
MODEL 8
REMARK VINA RESULT:      -8.0      7.117      9.750
REMARK  Name = 
REMARK  6 active torsions:
REMARK  status: ('A' for Active; 'I' for Inactive)
REMARK    1  A    between atoms: C_1  and  O_2
REMARK    2  A    between atoms: O_2  and  C_3
REMARK    3  A    between atoms: C_8  and  O_9
REMARK    4  A    between atoms: O_9  and  C_10
REMARK    5  A    between atoms: C_10  and  C_11
REMARK    6  A    between atoms: C_11  and  C_12
REMARK                            x       y       z     vdW  Elec       q    Type
REMARK                         _______ _______ _______ _____ _____    ______ ____
ROOT
ATOM      1  C   UNL     1       1.831   9.037  18.357  0.00  0.00    +0.000 A 
ATOM      2  C   UNL     1       2.506   7.916  17.850  0.00  0.00    +0.000 A 
ATOM      3  C   UNL     1       2.677   6.741  18.614  0.00  0.00    +0.000 A 
ATOM      4  C   UNL     1       2.195   6.698  19.929  0.00  0.00    +0.000 A 
ATOM      5  C   UNL     1       1.533   7.832  20.431  0.00  0.00    +0.000 A 
ATOM      6  C   UNL     1       1.316   8.986  19.663  0.00  0.00    +0.000 A 
ATOM      7  N   UNL     1       2.378   5.651  20.849  0.00  0.00    +0.000 NA
ATOM      8  C   UNL     1       2.270   4.411  20.484  0.00  0.00    +0.000 C 
ATOM      9  C   UNL     1       1.950   3.930  19.090  0.00  0.00    +0.000 C 
ATOM     10  C   UNL     1       1.932   2.403  19.004  0.00  0.00    +0.000 C 
ATOM     11  C   UNL     1       2.596   2.101  17.666  0.00  0.00    +0.000 C 
ATOM     12  C   UNL     1       3.633   3.204  17.530  0.00  0.00    +0.000 C 
ATOM     13  N   UNL     1       3.060   4.326  18.242  0.00  0.00    +0.000 N 
ATOM     14  C   UNL     1       3.407   5.632  17.942  0.00  0.00    +0.000 C 
ATOM     15  O   UNL     1       4.261   5.898  17.096  0.00  0.00    +0.000 OA
ENDROOT
BRANCH   1  17
ATOM     16  C   UNL     1       2.600  11.266  18.011  0.00  0.00    +0.000 C 
ATOM     17  O   UNL     1       1.724  10.201  17.644  0.00  0.00    +0.000 OA
ENDBRANCH   1  17
BRANCH   6  18
ATOM     18  O   UNL     1       0.601   9.951  20.341  0.00  0.00    +0.000 OA
BRANCH  18  19
ATOM     19  C   UNL     1      -0.554  10.470  19.681  0.00  0.00    +0.000 C 
BRANCH  19  20
ATOM     20  C   UNL     1      -0.608  12.006  19.781  0.00  0.00    +0.000 C 
BRANCH  20  21
ATOM     21  C   UNL     1      -0.838  12.367  21.236  0.00  0.00    +0.000 C 
ATOM     22  O   UNL     1       0.112  12.458  22.017  0.00  0.00    +0.000 OA
ATOM     23  N   UNL     1      -2.112  12.583  21.687  0.00  0.00    +0.000 N 
ATOM     24  C   UNL     1      -2.297  12.782  23.122  0.00  0.00    +0.000 C 
ATOM     25  C   UNL     1      -3.772  12.705  23.299  0.00  0.00    +0.000 A 
ATOM     26  C   UNL     1      -4.486  12.576  24.477  0.00  0.00    +0.000 A 
ATOM     27  C   UNL     1      -5.877  12.619  24.406  0.00  0.00    +0.000 A 
ATOM     28  C   UNL     1      -6.517  12.845  23.176  0.00  0.00    +0.000 A 
ATOM     29  C   UNL     1      -5.782  12.927  21.985  0.00  0.00    +0.000 A 
ATOM     30  C   UNL     1      -4.406  12.794  22.053  0.00  0.00    +0.000 A 
ATOM     31  C   UNL     1      -3.386  12.632  20.958  0.00  0.00    +0.000 C 
ENDBRANCH  20  21
ENDBRANCH  19  20
ENDBRANCH  18  19
ENDBRANCH   6  18
TORSDOF 5
ENDMDL
MODEL 9
REMARK VINA RESULT:      -8.0      5.919      8.601
REMARK  Name = 
REMARK  6 active torsions:
REMARK  status: ('A' for Active; 'I' for Inactive)
REMARK    1  A    between atoms: C_1  and  O_2
REMARK    2  A    between atoms: O_2  and  C_3
REMARK    3  A    between atoms: C_8  and  O_9
REMARK    4  A    between atoms: O_9  and  C_10
REMARK    5  A    between atoms: C_10  and  C_11
REMARK    6  A    between atoms: C_11  and  C_12
REMARK                            x       y       z     vdW  Elec       q    Type
REMARK                         _______ _______ _______ _____ _____    ______ ____
ROOT
ATOM      1  C   UNL     1       2.249   6.376  20.024  0.00  0.00    +0.000 A 
ATOM      2  C   UNL     1       1.690   7.385  20.824  0.00  0.00    +0.000 A 
ATOM      3  C   UNL     1       1.421   8.675  20.316  0.00  0.00    +0.000 A 
ATOM      4  C   UNL     1       1.753   8.974  18.988  0.00  0.00    +0.000 A 
ATOM      5  C   UNL     1       2.324   7.960  18.200  0.00  0.00    +0.000 A 
ATOM      6  C   UNL     1       2.551   6.662  18.683  0.00  0.00    +0.000 A 
ATOM      7  N   UNL     1       1.649  10.232  18.367  0.00  0.00    +0.000 NA
ATOM      8  C   UNL     1       0.618  10.994  18.565  0.00  0.00    +0.000 C 
ATOM      9  C   UNL     1      -0.563  10.664  19.444  0.00  0.00    +0.000 C 
ATOM     10  C   UNL     1      -1.586  11.802  19.475  0.00  0.00    +0.000 C 
ATOM     11  C   UNL     1      -2.038  11.850  20.929  0.00  0.00    +0.000 C 
ATOM     12  C   UNL     1      -0.786  11.468  21.702  0.00  0.00    +0.000 C 
ATOM     13  N   UNL     1      -0.066  10.588  20.807  0.00  0.00    +0.000 N 
ATOM     14  C   UNL     1       0.823   9.638  21.279  0.00  0.00    +0.000 C 
ATOM     15  O   UNL     1       1.085   9.534  22.477  0.00  0.00    +0.000 OA
ENDROOT
BRANCH   1  17
ATOM     16  C   UNL     1       1.492   4.273  20.852  0.00  0.00    +0.000 C 
ATOM     17  O   UNL     1       2.574   5.147  20.533  0.00  0.00    +0.000 OA
ENDBRANCH   1  17
BRANCH   6  18
ATOM     18  O   UNL     1       3.070   5.820  17.722  0.00  0.00    +0.000 OA
BRANCH  18  19
ATOM     19  C   UNL     1       2.447   4.541  17.590  0.00  0.00    +0.000 C 
BRANCH  19  20
ATOM     20  C   UNL     1       3.476   3.404  17.724  0.00  0.00    +0.000 C 
BRANCH  20  21
ATOM     21  C   UNL     1       4.857   4.007  17.550  0.00  0.00    +0.000 C 
ATOM     22  O   UNL     1       5.447   4.510  18.508  0.00  0.00    +0.000 OA
ATOM     23  N   UNL     1       5.447   4.000  16.314  0.00  0.00    +0.000 N 
ATOM     24  C   UNL     1       6.708   4.721  16.164  0.00  0.00    +0.000 C 
ATOM     25  C   UNL     1       6.919   4.754  14.692  0.00  0.00    +0.000 A 
ATOM     26  C   UNL     1       7.821   5.520  13.975  0.00  0.00    +0.000 A 
ATOM     27  C   UNL     1       7.905   5.313  12.599  0.00  0.00    +0.000 A 
ATOM     28  C   UNL     1       7.134   4.313  11.985  0.00  0.00    +0.000 A 
ATOM     29  C   UNL     1       6.192   3.576  12.717  0.00  0.00    +0.000 A 
ATOM     30  C   UNL     1       6.051   3.850  14.067  0.00  0.00    +0.000 A 
ATOM     31  C   UNL     1       5.011   3.390  15.052  0.00  0.00    +0.000 C 
ENDBRANCH  20  21
ENDBRANCH  19  20
ENDBRANCH  18  19
ENDBRANCH   6  18
TORSDOF 5
ENDMDL
