MODEL 1
REMARK VINA RESULT:      -6.1      0.000      0.000
REMARK  Name = 
REMARK  13 active torsions:
REMARK  status: ('A' for Active; 'I' for Inactive)
REMARK    1  A    between atoms: C_1  and  C_2
REMARK    2  A    between atoms: C_5  and  O_6
REMARK    3  A    between atoms: O_6  and  C_7
REMARK    4  A    between atoms: C_7  and  C_8
REMARK    5  A    between atoms: C_8  and  O_9
REMARK    6  A    between atoms: C_8  and  C_10
REMARK    7  A    between atoms: C_10  and  N_11
REMARK    8  A    between atoms: N_11  and  C_12
REMARK    9  A    between atoms: C_12  and  C_13
REMARK   10  A    between atoms: C_12  and  C_14
REMARK   11  A    between atoms: C_15  and  C_16
REMARK   12  A    between atoms: C_17  and  C_18
REMARK   13  A    between atoms: C_18  and  O_19
REMARK                            x       y       z     vdW  Elec       q    Type
REMARK                         _______ _______ _______ _____ _____    ______ ____
ROOT
ATOM      1  C   UNL     1       1.508   9.271  18.227  0.00  0.00    +0.000 C 
ATOM      2  C   UNL     1       2.288   7.990  18.129  0.00  0.00    +0.000 A 
ATOM      3  C   UNL     1       3.449   7.985  17.379  0.00  0.00    +0.000 A 
ATOM      4  C   UNL     1       4.096   6.797  17.099  0.00  0.00    +0.000 A 
ATOM      5  C   UNL     1       3.576   5.540  17.506  0.00  0.00    +0.000 A 
ATOM      6  C   UNL     1       2.426   5.538  18.314  0.00  0.00    +0.000 A 
ATOM      7  C   UNL     1       1.814   6.771  18.644  0.00  0.00    +0.000 A 
ENDROOT
BRANCH   6   8
ATOM      8  C   UNL     1       1.675   4.326  18.690  0.00  0.00    +0.000 C 
ATOM      9  C   UNL     1       1.979   3.332  19.540  0.00  0.00    +0.000 C 
BRANCH   9  10
ATOM     10  C   UNL     1       3.185   3.042  20.376  0.00  0.00    +0.000 C 
BRANCH  10  11
ATOM     11  O   UNL     1       4.313   2.674  19.600  0.00  0.00    +0.000 OA
ATOM     12  H   UNL     1       4.669   3.514  19.259  0.00  0.00    +0.000 HD
ENDBRANCH  10  11
ENDBRANCH   9  10
ENDBRANCH   6   8
BRANCH   5  13
ATOM     13  O   UNL     1       4.139   4.343  17.078  0.00  0.00    +0.000 OA
BRANCH  13  14
ATOM     14  C   UNL     1       4.804   4.484  15.809  0.00  0.00    +0.000 C 
BRANCH  14  15
ATOM     15  C   UNL     1       6.158   3.787  15.617  0.00  0.00    +0.000 C 
BRANCH  15  16
ATOM     16  O   UNL     1       6.399   3.469  14.242  0.00  0.00    +0.000 OA
ATOM     17  H   UNL     1       7.228   3.901  13.970  0.00  0.00    +0.000 HD
ENDBRANCH  15  16
BRANCH  15  18
ATOM     18  C   UNL     1       7.277   4.759  16.111  0.00  0.00    +0.000 C 
BRANCH  18  19
ATOM     19  N   UNL     1       7.737   4.435  17.470  0.00  0.00    +0.000 NA
ATOM     20  H   UNL     1       8.679   4.044  17.411  0.00  0.00    +0.000 HD
BRANCH  19  21
ATOM     21  C   UNL     1       7.747   5.554  18.420  0.00  0.00    +0.000 C 
ATOM     22  C   UNL     1       7.592   6.924  17.755  0.00  0.00    +0.000 C 
ATOM     23  C   UNL     1       6.579   5.342  19.394  0.00  0.00    +0.000 C 
ENDBRANCH  19  21
ENDBRANCH  18  19
ENDBRANCH  15  18
ENDBRANCH  14  15
ENDBRANCH  13  14
ENDBRANCH   5  13
TORSDOF 10
ENDMDL
MODEL 2
REMARK VINA RESULT:      -6.0      2.617      5.497
REMARK  Name = 
REMARK  13 active torsions:
REMARK  status: ('A' for Active; 'I' for Inactive)
REMARK    1  A    between atoms: C_1  and  C_2
REMARK    2  A    between atoms: C_5  and  O_6
REMARK    3  A    between atoms: O_6  and  C_7
REMARK    4  A    between atoms: C_7  and  C_8
REMARK    5  A    between atoms: C_8  and  O_9
REMARK    6  A    between atoms: C_8  and  C_10
REMARK    7  A    between atoms: C_10  and  N_11
REMARK    8  A    between atoms: N_11  and  C_12
REMARK    9  A    between atoms: C_12  and  C_13
REMARK   10  A    between atoms: C_12  and  C_14
REMARK   11  A    between atoms: C_15  and  C_16
REMARK   12  A    between atoms: C_17  and  C_18
REMARK   13  A    between atoms: C_18  and  O_19
REMARK                            x       y       z     vdW  Elec       q    Type
REMARK                         _______ _______ _______ _____ _____    ______ ____
ROOT
ATOM      1  C   UNL     1       8.364   8.373  18.084  0.00  0.00    +0.000 C 
ATOM      2  C   UNL     1       7.417   7.209  17.987  0.00  0.00    +0.000 A 
ATOM      3  C   UNL     1       7.530   6.192  18.916  0.00  0.00    +0.000 A 
ATOM      4  C   UNL     1       6.819   5.018  18.758  0.00  0.00    +0.000 A 
ATOM      5  C   UNL     1       6.000   4.779  17.624  0.00  0.00    +0.000 A 
ATOM      6  C   UNL     1       5.836   5.827  16.702  0.00  0.00    +0.000 A 
ATOM      7  C   UNL     1       6.524   7.046  16.915  0.00  0.00    +0.000 A 
ENDROOT
BRANCH   6   8
ATOM      8  C   UNL     1       5.151   5.693  15.403  0.00  0.00    +0.000 C 
ATOM      9  C   UNL     1       5.407   4.898  14.352  0.00  0.00    +0.000 C 
BRANCH   9  10
ATOM     10  C   UNL     1       6.486   3.901  14.070  0.00  0.00    +0.000 C 
BRANCH  10  11
ATOM     11  O   UNL     1       6.298   3.226  12.837  0.00  0.00    +0.000 OA
ATOM     12  H   UNL     1       6.492   2.291  13.029  0.00  0.00    +0.000 HD
ENDBRANCH  10  11
ENDBRANCH   9  10
ENDBRANCH   6   8
BRANCH   5  13
ATOM     13  O   UNL     1       5.424   3.535  17.388  0.00  0.00    +0.000 OA
BRANCH  13  14
ATOM     14  C   UNL     1       4.296   3.292  18.249  0.00  0.00    +0.000 C 
BRANCH  14  15
ATOM     15  C   UNL     1       3.513   1.984  18.067  0.00  0.00    +0.000 C 
BRANCH  15  16
ATOM     16  O   UNL     1       4.266   0.851  18.512  0.00  0.00    +0.000 OA
ATOM     17  H   UNL     1       5.142   0.880  18.086  0.00  0.00    +0.000 HD
ENDBRANCH  15  16
BRANCH  15  18
ATOM     18  C   UNL     1       2.204   2.082  18.917  0.00  0.00    +0.000 C 
BRANCH  18  19
ATOM     19  N   UNL     1       1.700   3.460  19.006  0.00  0.00    +0.000 NA
ATOM     20  H   UNL     1       1.002   3.600  18.272  0.00  0.00    +0.000 HD
BRANCH  19  21
ATOM     21  C   UNL     1       1.111   3.837  20.297  0.00  0.00    +0.000 C 
ATOM     22  C   UNL     1       1.429   2.855  21.426  0.00  0.00    +0.000 C 
ATOM     23  C   UNL     1       1.669   5.218  20.671  0.00  0.00    +0.000 C 
ENDBRANCH  19  21
ENDBRANCH  18  19
ENDBRANCH  15  18
ENDBRANCH  14  15
ENDBRANCH  13  14
ENDBRANCH   5  13
TORSDOF 10
ENDMDL
MODEL 3
REMARK VINA RESULT:      -6.0      1.273      1.701
REMARK  Name = 
REMARK  13 active torsions:
REMARK  status: ('A' for Active; 'I' for Inactive)
REMARK    1  A    between atoms: C_1  and  C_2
REMARK    2  A    between atoms: C_5  and  O_6
REMARK    3  A    between atoms: O_6  and  C_7
REMARK    4  A    between atoms: C_7  and  C_8
REMARK    5  A    between atoms: C_8  and  O_9
REMARK    6  A    between atoms: C_8  and  C_10
REMARK    7  A    between atoms: C_10  and  N_11
REMARK    8  A    between atoms: N_11  and  C_12
REMARK    9  A    between atoms: C_12  and  C_13
REMARK   10  A    between atoms: C_12  and  C_14
REMARK   11  A    between atoms: C_15  and  C_16
REMARK   12  A    between atoms: C_17  and  C_18
REMARK   13  A    between atoms: C_18  and  O_19
REMARK                            x       y       z     vdW  Elec       q    Type
REMARK                         _______ _______ _______ _____ _____    ______ ____
ROOT
ATOM      1  C   UNL     1       1.155   9.414  18.421  0.00  0.00    +0.000 C 
ATOM      2  C   UNL     1       2.126   8.273  18.540  0.00  0.00    +0.000 A 
ATOM      3  C   UNL     1       3.065   8.104  17.539  0.00  0.00    +0.000 A 
ATOM      4  C   UNL     1       3.850   6.968  17.501  0.00  0.00    +0.000 A 
ATOM      5  C   UNL     1       3.691   5.909  18.432  0.00  0.00    +0.000 A 
ATOM      6  C   UNL     1       2.776   6.094  19.484  0.00  0.00    +0.000 A 
ATOM      7  C   UNL     1       2.027   7.294  19.542  0.00  0.00    +0.000 A 
ENDROOT
BRANCH   6   8
ATOM      8  C   UNL     1       2.381   5.041  20.438  0.00  0.00    +0.000 C 
ATOM      9  C   UNL     1       1.688   3.905  20.256  0.00  0.00    +0.000 C 
BRANCH   9  10
ATOM     10  C   UNL     1       1.020   3.302  19.063  0.00  0.00    +0.000 C 
BRANCH  10  11
ATOM     11  O   UNL     1       1.267   4.029  17.871  0.00  0.00    +0.000 OA
ATOM     12  H   UNL     1       2.143   3.729  17.570  0.00  0.00    +0.000 HD
ENDBRANCH  10  11
ENDBRANCH   9  10
ENDBRANCH   6   8
BRANCH   5  13
ATOM     13  O   UNL     1       4.363   4.700  18.287  0.00  0.00    +0.000 OA
BRANCH  13  14
ATOM     14  C   UNL     1       4.559   4.356  16.903  0.00  0.00    +0.000 C 
BRANCH  14  15
ATOM     15  C   UNL     1       5.995   4.132  16.408  0.00  0.00    +0.000 C 
BRANCH  15  16
ATOM     16  O   UNL     1       6.065   3.065  15.455  0.00  0.00    +0.000 OA
ATOM     17  H   UNL     1       6.719   2.417  15.772  0.00  0.00    +0.000 HD
ENDBRANCH  15  16
BRANCH  15  18
ATOM     18  C   UNL     1       6.480   5.450  15.721  0.00  0.00    +0.000 C 
BRANCH  18  19
ATOM     19  N   UNL     1       7.611   6.065  16.432  0.00  0.00    +0.000 NA
ATOM     20  H   UNL     1       8.060   6.740  15.810  0.00  0.00    +0.000 HD
BRANCH  19  21
ATOM     21  C   UNL     1       7.276   6.736  17.695  0.00  0.00    +0.000 C 
ATOM     22  C   UNL     1       7.791   6.001  18.935  0.00  0.00    +0.000 C 
ATOM     23  C   UNL     1       7.904   8.136  17.652  0.00  0.00    +0.000 C 
ENDBRANCH  19  21
ENDBRANCH  18  19
ENDBRANCH  15  18
ENDBRANCH  14  15
ENDBRANCH  13  14
ENDBRANCH   5  13
TORSDOF 10
ENDMDL
MODEL 4
REMARK VINA RESULT:      -6.0      2.381      4.220
REMARK  Name = 
REMARK  13 active torsions:
REMARK  status: ('A' for Active; 'I' for Inactive)
REMARK    1  A    between atoms: C_1  and  C_2
REMARK    2  A    between atoms: C_5  and  O_6
REMARK    3  A    between atoms: O_6  and  C_7
REMARK    4  A    between atoms: C_7  and  C_8
REMARK    5  A    between atoms: C_8  and  O_9
REMARK    6  A    between atoms: C_8  and  C_10
REMARK    7  A    between atoms: C_10  and  N_11
REMARK    8  A    between atoms: N_11  and  C_12
REMARK    9  A    between atoms: C_12  and  C_13
REMARK   10  A    between atoms: C_12  and  C_14
REMARK   11  A    between atoms: C_15  and  C_16
REMARK   12  A    between atoms: C_17  and  C_18
REMARK   13  A    between atoms: C_18  and  O_19
REMARK                            x       y       z     vdW  Elec       q    Type
REMARK                         _______ _______ _______ _____ _____    ______ ____
ROOT
ATOM      1  C   UNL     1       0.677   2.192  18.579  0.00  0.00    +0.000 C 
ATOM      2  C   UNL     1       1.866   3.109  18.665  0.00  0.00    +0.000 A 
ATOM      3  C   UNL     1       3.042   2.610  19.194  0.00  0.00    +0.000 A 
ATOM      4  C   UNL     1       4.098   3.457  19.472  0.00  0.00    +0.000 A 
ATOM      5  C   UNL     1       4.007   4.862  19.290  0.00  0.00    +0.000 A 
ATOM      6  C   UNL     1       2.836   5.372  18.702  0.00  0.00    +0.000 A 
ATOM      7  C   UNL     1       1.790   4.479  18.365  0.00  0.00    +0.000 A 
ENDROOT
BRANCH   6   8
ATOM      8  C   UNL     1       2.520   6.807  18.587  0.00  0.00    +0.000 C 
ATOM      9  C   UNL     1       1.999   7.667  19.477  0.00  0.00    +0.000 C 
BRANCH   9  10
ATOM     10  C   UNL     1       1.499   7.503  20.877  0.00  0.00    +0.000 C 
BRANCH  10  11
ATOM     11  O   UNL     1       1.788   8.625  21.695  0.00  0.00    +0.000 OA
ATOM     12  H   UNL     1       1.978   8.253  22.575  0.00  0.00    +0.000 HD
ENDBRANCH  10  11
ENDBRANCH   9  10
ENDBRANCH   6   8
BRANCH   5  13
ATOM     13  O   UNL     1       5.008   5.722  19.729  0.00  0.00    +0.000 OA
BRANCH  13  14
ATOM     14  C   UNL     1       6.322   5.214  19.433  0.00  0.00    +0.000 C 
BRANCH  14  15
ATOM     15  C   UNL     1       7.204   6.009  18.460  0.00  0.00    +0.000 C 
BRANCH  15  16
ATOM     16  O   UNL     1       8.416   6.450  19.084  0.00  0.00    +0.000 OA
ATOM     17  H   UNL     1       8.780   5.709  19.600  0.00  0.00    +0.000 HD
ENDBRANCH  15  16
BRANCH  15  18
ATOM     18  C   UNL     1       7.570   5.072  17.263  0.00  0.00    +0.000 C 
BRANCH  18  19
ATOM     19  N   UNL     1       7.288   5.696  15.962  0.00  0.00    +0.000 NA
ATOM     20  H   UNL     1       7.999   5.393  15.293  0.00  0.00    +0.000 HD
BRANCH  19  21
ATOM     21  C   UNL     1       5.960   5.417  15.399  0.00  0.00    +0.000 C 
ATOM     22  C   UNL     1       5.340   4.114  15.909  0.00  0.00    +0.000 C 
ATOM     23  C   UNL     1       5.042   6.586  15.785  0.00  0.00    +0.000 C 
ENDBRANCH  19  21
ENDBRANCH  18  19
ENDBRANCH  15  18
ENDBRANCH  14  15
ENDBRANCH  13  14
ENDBRANCH   5  13
TORSDOF 10
ENDMDL
MODEL 5
REMARK VINA RESULT:      -6.0      1.703      3.795
REMARK  Name = 
REMARK  13 active torsions:
REMARK  status: ('A' for Active; 'I' for Inactive)
REMARK    1  A    between atoms: C_1  and  C_2
REMARK    2  A    between atoms: C_5  and  O_6
REMARK    3  A    between atoms: O_6  and  C_7
REMARK    4  A    between atoms: C_7  and  C_8
REMARK    5  A    between atoms: C_8  and  O_9
REMARK    6  A    between atoms: C_8  and  C_10
REMARK    7  A    between atoms: C_10  and  N_11
REMARK    8  A    between atoms: N_11  and  C_12
REMARK    9  A    between atoms: C_12  and  C_13
REMARK   10  A    between atoms: C_12  and  C_14
REMARK   11  A    between atoms: C_15  and  C_16
REMARK   12  A    between atoms: C_17  and  C_18
REMARK   13  A    between atoms: C_18  and  O_19
REMARK                            x       y       z     vdW  Elec       q    Type
REMARK                         _______ _______ _______ _____ _____    ______ ____
ROOT
ATOM      1  C   UNL     1       1.281   2.732  21.575  0.00  0.00    +0.000 C 
ATOM      2  C   UNL     1       1.731   3.225  20.228  0.00  0.00    +0.000 A 
ATOM      3  C   UNL     1       1.769   2.325  19.179  0.00  0.00    +0.000 A 
ATOM      4  C   UNL     1       2.353   2.675  17.978  0.00  0.00    +0.000 A 
ATOM      5  C   UNL     1       2.987   3.930  17.784  0.00  0.00    +0.000 A 
ATOM      6  C   UNL     1       2.908   4.871  18.825  0.00  0.00    +0.000 A 
ATOM      7  C   UNL     1       2.248   4.515  20.026  0.00  0.00    +0.000 A 
ENDROOT
BRANCH   6   8
ATOM      8  C   UNL     1       3.638   6.152  18.847  0.00  0.00    +0.000 C 
ATOM      9  C   UNL     1       3.254   7.389  18.493  0.00  0.00    +0.000 C 
BRANCH   9  10
ATOM     10  C   UNL     1       1.991   7.933  17.907  0.00  0.00    +0.000 C 
BRANCH  10  11
ATOM     11  O   UNL     1       2.159   9.226  17.349  0.00  0.00    +0.000 OA
ATOM     12  H   UNL     1       1.295   9.662  17.457  0.00  0.00    +0.000 HD
ENDBRANCH  10  11
ENDBRANCH   9  10
ENDBRANCH   6   8
BRANCH   5  13
ATOM     13  O   UNL     1       3.718   4.210  16.635  0.00  0.00    +0.000 OA
BRANCH  13  14
ATOM     14  C   UNL     1       5.011   3.578  16.652  0.00  0.00    +0.000 C 
BRANCH  14  15
ATOM     15  C   UNL     1       6.006   3.933  15.538  0.00  0.00    +0.000 C 
BRANCH  15  16
ATOM     16  O   UNL     1       5.410   4.774  14.544  0.00  0.00    +0.000 OA
ATOM     17  H   UNL     1       4.888   4.214  13.944  0.00  0.00    +0.000 HD
ENDBRANCH  15  16
BRANCH  15  18
ATOM     18  C   UNL     1       7.206   4.696  16.187  0.00  0.00    +0.000 C 
BRANCH  18  19
ATOM     19  N   UNL     1       6.947   6.138  16.311  0.00  0.00    +0.000 NA
ATOM     20  H   UNL     1       6.018   6.336  15.932  0.00  0.00    +0.000 HD
BRANCH  19  21
ATOM     21  C   UNL     1       7.027   6.682  17.673  0.00  0.00    +0.000 C 
ATOM     22  C   UNL     1       7.722   5.747  18.666  0.00  0.00    +0.000 C 
ATOM     23  C   UNL     1       7.816   7.997  17.597  0.00  0.00    +0.000 C 
ENDBRANCH  19  21
ENDBRANCH  18  19
ENDBRANCH  15  18
ENDBRANCH  14  15
ENDBRANCH  13  14
ENDBRANCH   5  13
TORSDOF 10
ENDMDL
MODEL 6
REMARK VINA RESULT:      -5.9      2.824      4.847
REMARK  Name = 
REMARK  13 active torsions:
REMARK  status: ('A' for Active; 'I' for Inactive)
REMARK    1  A    between atoms: C_1  and  C_2
REMARK    2  A    between atoms: C_5  and  O_6
REMARK    3  A    between atoms: O_6  and  C_7
REMARK    4  A    between atoms: C_7  and  C_8
REMARK    5  A    between atoms: C_8  and  O_9
REMARK    6  A    between atoms: C_8  and  C_10
REMARK    7  A    between atoms: C_10  and  N_11
REMARK    8  A    between atoms: N_11  and  C_12
REMARK    9  A    between atoms: C_12  and  C_13
REMARK   10  A    between atoms: C_12  and  C_14
REMARK   11  A    between atoms: C_15  and  C_16
REMARK   12  A    between atoms: C_17  and  C_18
REMARK   13  A    between atoms: C_18  and  O_19
REMARK                            x       y       z     vdW  Elec       q    Type
REMARK                         _______ _______ _______ _____ _____    ______ ____
ROOT
ATOM      1  C   UNL     1       2.078   4.885  20.523  0.00  0.00    +0.000 C 
ATOM      2  C   UNL     1       2.970   4.707  19.325  0.00  0.00    +0.000 A 
ATOM      3  C   UNL     1       2.990   3.475  18.700  0.00  0.00    +0.000 A 
ATOM      4  C   UNL     1       3.928   3.202  17.723  0.00  0.00    +0.000 A 
ATOM      5  C   UNL     1       4.937   4.134  17.363  0.00  0.00    +0.000 A 
ATOM      6  C   UNL     1       4.891   5.409  17.955  0.00  0.00    +0.000 A 
ATOM      7  C   UNL     1       3.883   5.690  18.908  0.00  0.00    +0.000 A 
ENDROOT
BRANCH   6   8
ATOM      8  C   UNL     1       5.944   6.431  17.810  0.00  0.00    +0.000 C 
ATOM      9  C   UNL     1       7.221   6.443  18.225  0.00  0.00    +0.000 C 
BRANCH   9  10
ATOM     10  C   UNL     1       8.041   5.477  19.019  0.00  0.00    +0.000 C 
BRANCH  10  11
ATOM     11  O   UNL     1       7.828   5.597  20.416  0.00  0.00    +0.000 OA
ATOM     12  H   UNL     1       7.183   6.321  20.511  0.00  0.00    +0.000 HD
ENDBRANCH  10  11
ENDBRANCH   9  10
ENDBRANCH   6   8
BRANCH   5  13
ATOM     13  O   UNL     1       5.976   3.792  16.505  0.00  0.00    +0.000 OA
BRANCH  13  14
ATOM     14  C   UNL     1       5.640   4.042  15.127  0.00  0.00    +0.000 C 
BRANCH  14  15
ATOM     15  C   UNL     1       6.513   5.027  14.336  0.00  0.00    +0.000 C 
BRANCH  15  16
ATOM     16  O   UNL     1       7.810   5.175  14.925  0.00  0.00    +0.000 OA
ATOM     17  H   UNL     1       8.453   5.333  14.210  0.00  0.00    +0.000 HD
ENDBRANCH  15  16
BRANCH  15  18
ATOM     18  C   UNL     1       6.681   4.466  12.886  0.00  0.00    +0.000 C 
BRANCH  18  19
ATOM     19  N   UNL     1       6.317   3.045  12.793  0.00  0.00    +0.000 NA
ATOM     20  H   UNL     1       5.573   2.854  13.467  0.00  0.00    +0.000 HD
BRANCH  19  21
ATOM     21  C   UNL     1       5.883   2.587  11.467  0.00  0.00    +0.000 C 
ATOM     22  C   UNL     1       5.980   1.071  11.281  0.00  0.00    +0.000 C 
ATOM     23  C   UNL     1       4.420   3.015  11.288  0.00  0.00    +0.000 C 
ENDBRANCH  19  21
ENDBRANCH  18  19
ENDBRANCH  15  18
ENDBRANCH  14  15
ENDBRANCH  13  14
ENDBRANCH   5  13
TORSDOF 10
ENDMDL
MODEL 7
REMARK VINA RESULT:      -5.9      2.277      4.622
REMARK  Name = 
REMARK  13 active torsions:
REMARK  status: ('A' for Active; 'I' for Inactive)
REMARK    1  A    between atoms: C_1  and  C_2
REMARK    2  A    between atoms: C_5  and  O_6
REMARK    3  A    between atoms: O_6  and  C_7
REMARK    4  A    between atoms: C_7  and  C_8
REMARK    5  A    between atoms: C_8  and  O_9
REMARK    6  A    between atoms: C_8  and  C_10
REMARK    7  A    between atoms: C_10  and  N_11
REMARK    8  A    between atoms: N_11  and  C_12
REMARK    9  A    between atoms: C_12  and  C_13
REMARK   10  A    between atoms: C_12  and  C_14
REMARK   11  A    between atoms: C_15  and  C_16
REMARK   12  A    between atoms: C_17  and  C_18
REMARK   13  A    between atoms: C_18  and  O_19
REMARK                            x       y       z     vdW  Elec       q    Type
REMARK                         _______ _______ _______ _____ _____    ______ ____
ROOT
ATOM      1  C   UNL     1       1.851   9.075  17.773  0.00  0.00    +0.000 C 
ATOM      2  C   UNL     1       2.671   7.841  18.030  0.00  0.00    +0.000 A 
ATOM      3  C   UNL     1       2.448   7.137  19.198  0.00  0.00    +0.000 A 
ATOM      4  C   UNL     1       3.300   6.115  19.572  0.00  0.00    +0.000 A 
ATOM      5  C   UNL     1       4.458   5.784  18.821  0.00  0.00    +0.000 A 
ATOM      6  C   UNL     1       4.663   6.458  17.604  0.00  0.00    +0.000 A 
ATOM      7  C   UNL     1       3.744   7.458  17.207  0.00  0.00    +0.000 A 
ENDROOT
BRANCH   6   8
ATOM      8  C   UNL     1       5.885   6.346  16.788  0.00  0.00    +0.000 C 
ATOM      9  C   UNL     1       7.169   6.607  17.085  0.00  0.00    +0.000 C 
BRANCH   9  10
ATOM     10  C   UNL     1       7.840   7.146  18.308  0.00  0.00    +0.000 C 
BRANCH  10  11
ATOM     11  O   UNL     1       8.104   6.142  19.274  0.00  0.00    +0.000 OA
ATOM     12  H   UNL     1       8.968   6.382  19.656  0.00  0.00    +0.000 HD
ENDBRANCH  10  11
ENDBRANCH   9  10
ENDBRANCH   6   8
BRANCH   5  13
ATOM     13  O   UNL     1       5.398   4.873  19.290  0.00  0.00    +0.000 OA
BRANCH  13  14
ATOM     14  C   UNL     1       4.940   3.514  19.164  0.00  0.00    +0.000 C 
BRANCH  14  15
ATOM     15  C   UNL     1       4.090   3.146  17.939  0.00  0.00    +0.000 C 
BRANCH  15  16
ATOM     16  O   UNL     1       4.904   2.711  16.843  0.00  0.00    +0.000 OA
ATOM     17  H   UNL     1       4.833   1.743  16.776  0.00  0.00    +0.000 HD
ENDBRANCH  15  16
BRANCH  15  18
ATOM     18  C   UNL     1       3.134   1.978  18.347  0.00  0.00    +0.000 C 
BRANCH  18  19
ATOM     19  N   UNL     1       2.792   2.013  19.777  0.00  0.00    +0.000 NA
ATOM     20  H   UNL     1       3.417   2.671  20.246  0.00  0.00    +0.000 HD
BRANCH  19  21
ATOM     21  C   UNL     1       1.403   2.378  20.087  0.00  0.00    +0.000 C 
ATOM     22  C   UNL     1       1.272   3.701  20.845  0.00  0.00    +0.000 C 
ATOM     23  C   UNL     1       0.649   2.494  18.755  0.00  0.00    +0.000 C 
ENDBRANCH  19  21
ENDBRANCH  18  19
ENDBRANCH  15  18
ENDBRANCH  14  15
ENDBRANCH  13  14
ENDBRANCH   5  13
TORSDOF 10
ENDMDL
MODEL 8
REMARK VINA RESULT:      -5.9      2.025      4.050
REMARK  Name = 
REMARK  13 active torsions:
REMARK  status: ('A' for Active; 'I' for Inactive)
REMARK    1  A    between atoms: C_1  and  C_2
REMARK    2  A    between atoms: C_5  and  O_6
REMARK    3  A    between atoms: O_6  and  C_7
REMARK    4  A    between atoms: C_7  and  C_8
REMARK    5  A    between atoms: C_8  and  O_9
REMARK    6  A    between atoms: C_8  and  C_10
REMARK    7  A    between atoms: C_10  and  N_11
REMARK    8  A    between atoms: N_11  and  C_12
REMARK    9  A    between atoms: C_12  and  C_13
REMARK   10  A    between atoms: C_12  and  C_14
REMARK   11  A    between atoms: C_15  and  C_16
REMARK   12  A    between atoms: C_17  and  C_18
REMARK   13  A    between atoms: C_18  and  O_19
REMARK                            x       y       z     vdW  Elec       q    Type
REMARK                         _______ _______ _______ _____ _____    ______ ____
ROOT
ATOM      1  C   UNL     1       0.870   2.281  18.667  0.00  0.00    +0.000 C 
ATOM      2  C   UNL     1       2.057   3.201  18.583  0.00  0.00    +0.000 A 
ATOM      3  C   UNL     1       3.261   2.767  19.105  0.00  0.00    +0.000 A 
ATOM      4  C   UNL     1       4.325   3.640  19.227  0.00  0.00    +0.000 A 
ATOM      5  C   UNL     1       4.218   5.013  18.886  0.00  0.00    +0.000 A 
ATOM      6  C   UNL     1       3.016   5.452  18.305  0.00  0.00    +0.000 A 
ATOM      7  C   UNL     1       1.958   4.527  18.129  0.00  0.00    +0.000 A 
ENDROOT
BRANCH   6   8
ATOM      8  C   UNL     1       2.686   6.864  18.039  0.00  0.00    +0.000 C 
ATOM      9  C   UNL     1       2.236   7.831  18.855  0.00  0.00    +0.000 C 
BRANCH   9  10
ATOM     10  C   UNL     1       1.852   7.844  20.300  0.00  0.00    +0.000 C 
BRANCH  10  11
ATOM     11  O   UNL     1       1.852   6.550  20.878  0.00  0.00    +0.000 OA
ATOM     12  H   UNL     1       2.528   6.053  20.383  0.00  0.00    +0.000 HD
ENDBRANCH  10  11
ENDBRANCH   9  10
ENDBRANCH   6   8
BRANCH   5  13
ATOM     13  O   UNL     1       5.236   5.918  19.168  0.00  0.00    +0.000 OA
BRANCH  13  14
ATOM     14  C   UNL     1       6.040   6.203  18.009  0.00  0.00    +0.000 C 
BRANCH  14  15
ATOM     15  C   UNL     1       7.439   5.576  17.925  0.00  0.00    +0.000 C 
BRANCH  15  16
ATOM     16  O   UNL     1       7.785   4.891  19.135  0.00  0.00    +0.000 OA
ATOM     17  H   UNL     1       7.949   5.556  19.826  0.00  0.00    +0.000 HD
ENDBRANCH  15  16
BRANCH  15  18
ATOM     18  C   UNL     1       7.438   4.547  16.748  0.00  0.00    +0.000 C 
BRANCH  18  19
ATOM     19  N   UNL     1       7.257   5.196  15.442  0.00  0.00    +0.000 NA
ATOM     20  H   UNL     1       8.105   5.058  14.888  0.00  0.00    +0.000 HD
BRANCH  19  21
ATOM     21  C   UNL     1       6.102   4.737  14.660  0.00  0.00    +0.000 C 
ATOM     22  C   UNL     1       6.486   3.988  13.382  0.00  0.00    +0.000 C 
ATOM     23  C   UNL     1       5.284   3.797  15.557  0.00  0.00    +0.000 C 
ENDBRANCH  19  21
ENDBRANCH  18  19
ENDBRANCH  15  18
ENDBRANCH  14  15
ENDBRANCH  13  14
ENDBRANCH   5  13
TORSDOF 10
ENDMDL
MODEL 9
REMARK VINA RESULT:      -5.9      2.498      4.485
REMARK  Name = 
REMARK  13 active torsions:
REMARK  status: ('A' for Active; 'I' for Inactive)
REMARK    1  A    between atoms: C_1  and  C_2
REMARK    2  A    between atoms: C_5  and  O_6
REMARK    3  A    between atoms: O_6  and  C_7
REMARK    4  A    between atoms: C_7  and  C_8
REMARK    5  A    between atoms: C_8  and  O_9
REMARK    6  A    between atoms: C_8  and  C_10
REMARK    7  A    between atoms: C_10  and  N_11
REMARK    8  A    between atoms: N_11  and  C_12
REMARK    9  A    between atoms: C_12  and  C_13
REMARK   10  A    between atoms: C_12  and  C_14
REMARK   11  A    between atoms: C_15  and  C_16
REMARK   12  A    between atoms: C_17  and  C_18
REMARK   13  A    between atoms: C_18  and  O_19
REMARK                            x       y       z     vdW  Elec       q    Type
REMARK                         _______ _______ _______ _____ _____    ______ ____
ROOT
ATOM      1  C   UNL     1       0.792   2.224  18.779  0.00  0.00    +0.000 C 
ATOM      2  C   UNL     1       1.818   3.122  18.145  0.00  0.00    +0.000 A 
ATOM      3  C   UNL     1       2.967   2.547  17.634  0.00  0.00    +0.000 A 
ATOM      4  C   UNL     1       4.020   3.339  17.219  0.00  0.00    +0.000 A 
ATOM      5  C   UNL     1       3.999   4.753  17.351  0.00  0.00    +0.000 A 
ATOM      6  C   UNL     1       2.816   5.350  17.819  0.00  0.00    +0.000 A 
ATOM      7  C   UNL     1       1.724   4.524  18.180  0.00  0.00    +0.000 A 
ENDROOT
BRANCH   6   8
ATOM      8  C   UNL     1       2.682   6.778  18.159  0.00  0.00    +0.000 C 
ATOM      9  C   UNL     1       2.256   7.378  19.282  0.00  0.00    +0.000 C 
BRANCH   9  10
ATOM     10  C   UNL     1       1.717   6.853  20.574  0.00  0.00    +0.000 C 
BRANCH  10  11
ATOM     11  O   UNL     1       2.460   5.752  21.070  0.00  0.00    +0.000 OA
ATOM     12  H   UNL     1       3.322   6.125  21.327  0.00  0.00    +0.000 HD
ENDBRANCH  10  11
ENDBRANCH   9  10
ENDBRANCH   6   8
BRANCH   5  13
ATOM     13  O   UNL     1       5.124   5.527  17.089  0.00  0.00    +0.000 OA
BRANCH  13  14
ATOM     14  C   UNL     1       5.387   5.636  15.678  0.00  0.00    +0.000 C 
BRANCH  14  15
ATOM     15  C   UNL     1       6.693   5.039  15.136  0.00  0.00    +0.000 C 
BRANCH  15  16
ATOM     16  O   UNL     1       7.588   4.677  16.194  0.00  0.00    +0.000 OA
ATOM     17  H   UNL     1       7.082   4.648  17.025  0.00  0.00    +0.000 HD
ENDBRANCH  15  16
BRANCH  15  18
ATOM     18  C   UNL     1       6.336   3.754  14.320  0.00  0.00    +0.000 C 
BRANCH  18  19
ATOM     19  N   UNL     1       5.205   3.971  13.407  0.00  0.00    +0.000 NA
ATOM     20  H   UNL     1       4.957   4.963  13.425  0.00  0.00    +0.000 HD
BRANCH  19  21
ATOM     21  C   UNL     1       5.429   3.565  12.013  0.00  0.00    +0.000 C 
ATOM     22  C   UNL     1       6.272   2.296  11.873  0.00  0.00    +0.000 C 
ATOM     23  C   UNL     1       4.052   3.317  11.380  0.00  0.00    +0.000 C 
ENDBRANCH  19  21
ENDBRANCH  18  19
ENDBRANCH  15  18
ENDBRANCH  14  15
ENDBRANCH  13  14
ENDBRANCH   5  13
TORSDOF 10
ENDMDL
