MODEL 1
REMARK VINA RESULT:      -9.1      0.000      0.000
REMARK  Name = 
REMARK  12 active torsions:
REMARK  status: ('A' for Active; 'I' for Inactive)
REMARK    1  A    between atoms: C_4  and  C_5
REMARK    2  A    between atoms: C_5  and  O_6
REMARK    3  A    between atoms: O_6  and  C_7
REMARK    4  A    between atoms: C_7  and  C_8
REMARK    5  A    between atoms: C_8  and  C_9
REMARK    6  A    between atoms: C_9  and  C_10
REMARK    7  A    between atoms: C_10  and  O_11
REMARK    8  A    between atoms: O_11  and  C_12
REMARK    9  A    between atoms: C_15  and  C_16
REMARK   10  A    between atoms: C_21  and  O_22
REMARK   11  A    between atoms: O_22  and  C_23
REMARK   12  A    between atoms: C_23  and  C_24
REMARK                            x       y       z     vdW  Elec       q    Type
REMARK                         _______ _______ _______ _____ _____    ______ ____
ROOT
ATOM      1  C   UNL     1       6.502   5.511  17.422  0.00  0.00    +0.000 A 
ATOM      2  C   UNL     1       5.565   5.331  16.406  0.00  0.00    +0.000 A 
ATOM      3  C   UNL     1       4.295   4.838  16.692  0.00  0.00    +0.000 A 
ATOM      4  C   UNL     1       3.945   4.503  18.002  0.00  0.00    +0.000 A 
ATOM      5  C   UNL     1       4.940   4.551  18.995  0.00  0.00    +0.000 A 
ATOM      6  C   UNL     1       6.210   5.053  18.704  0.00  0.00    +0.000 A 
ENDROOT
BRANCH   4   7
ATOM      7  C   UNL     1       2.460   4.348  18.334  0.00  0.00    +0.000 C 
ATOM      8  C   UNL     1       1.961   2.906  18.115  0.00  0.00    +0.000 C 
ATOM      9  C   UNL     1       0.674   2.602  18.865  0.00  0.00    +0.000 C 
ATOM     10  N   UNL     1       0.838   2.885  20.286  0.00  0.00    +0.000 NA
ATOM     11  C   UNL     1       1.018   4.321  20.472  0.00  0.00    +0.000 C 
ATOM     12  C   UNL     1       2.265   4.904  19.781  0.00  0.00    +0.000 C 
ATOM     13  H   UNL     1       1.659   2.391  20.640  0.00  0.00    +0.000 HD
BRANCH  12  14
ATOM     14  O   UNL     1       2.175   6.360  19.731  0.00  0.00    +0.000 OA
BRANCH  14  15
ATOM     15  C   UNL     1       1.615   6.896  20.935  0.00  0.00    +0.000 C 
BRANCH  15  16
ATOM     16  C   UNL     1       1.144   8.333  20.864  0.00  0.00    +0.000 A 
ATOM     17  C   UNL     1       1.122   9.063  19.674  0.00  0.00    +0.000 A 
ATOM     18  C   UNL     1       0.385  10.253  19.594  0.00  0.00    +0.000 A 
ATOM     19  C   UNL     1      -0.345  10.739  20.694  0.00  0.00    +0.000 A 
ATOM     20  C   UNL     1      -1.209  11.837  20.589  0.00  0.00    +0.000 A 
ATOM     21  C   UNL     1      -1.926  12.289  21.699  0.00  0.00    +0.000 A 
ATOM     22  C   UNL     1      -1.756  11.684  22.934  0.00  0.00    +0.000 A 
ATOM     23  C   UNL     1      -0.910  10.580  23.052  0.00  0.00    +0.000 A 
ATOM     24  C   UNL     1      -0.234  10.068  21.932  0.00  0.00    +0.000 A 
ATOM     25  C   UNL     1       0.505   8.874  21.999  0.00  0.00    +0.000 A 
ENDBRANCH  15  16
ENDBRANCH  14  15
ENDBRANCH  12  14
ENDBRANCH   4   7
BRANCH   1  26
ATOM     26  O   UNL     1       7.704   6.152  17.269  0.00  0.00    +0.000 OA
BRANCH  26  27
ATOM     27  C   UNL     1       8.018   7.078  18.313  0.00  0.00    +0.000 C 
BRANCH  27  28
ATOM     28  C   UNL     1       8.103   8.495  17.768  0.00  0.00    +0.000 C 
BRANCH  28  29
ATOM     29  C   UNL     1       8.667   9.474  18.797  0.00  0.00    +0.000 C 
BRANCH  29  30
ATOM     30  C   UNL     1       9.240  10.716  18.132  0.00  0.00    +0.000 C 
BRANCH  30  31
ATOM     31  O   UNL     1       9.493  11.698  19.129  0.00  0.00    +0.000 OA
BRANCH  31  32
ATOM     32  C   UNL     1       9.581  11.121  20.429  0.00  0.00    +0.000 C 
BRANCH  32  36
ATOM     33  C   UNL     1       8.680  14.140  23.377  0.00  0.00    +0.000 A 
ATOM     34  C   UNL     1       9.534  14.426  22.314  0.00  0.00    +0.000 A 
ATOM     35  C   UNL     1       9.828  13.441  21.370  0.00  0.00    +0.000 A 
ATOM     36  C   UNL     1       9.280  12.154  21.484  0.00  0.00    +0.000 A 
ATOM     37  C   UNL     1       8.411  11.885  22.551  0.00  0.00    +0.000 A 
ATOM     38  C   UNL     1       8.118  12.871  23.495  0.00  0.00    +0.000 A 
ENDBRANCH  32  36
ENDBRANCH  31  32
ENDBRANCH  30  31
ENDBRANCH  29  30
ENDBRANCH  28  29
ENDBRANCH  27  28
ENDBRANCH  26  27
ENDBRANCH   1  26
TORSDOF 12
ENDMDL
MODEL 2
REMARK VINA RESULT:      -9.0      4.383      8.167
REMARK  Name = 
REMARK  12 active torsions:
REMARK  status: ('A' for Active; 'I' for Inactive)
REMARK    1  A    between atoms: C_4  and  C_5
REMARK    2  A    between atoms: C_5  and  O_6
REMARK    3  A    between atoms: O_6  and  C_7
REMARK    4  A    between atoms: C_7  and  C_8
REMARK    5  A    between atoms: C_8  and  C_9
REMARK    6  A    between atoms: C_9  and  C_10
REMARK    7  A    between atoms: C_10  and  O_11
REMARK    8  A    between atoms: O_11  and  C_12
REMARK    9  A    between atoms: C_15  and  C_16
REMARK   10  A    between atoms: C_21  and  O_22
REMARK   11  A    between atoms: O_22  and  C_23
REMARK   12  A    between atoms: C_23  and  C_24
REMARK                            x       y       z     vdW  Elec       q    Type
REMARK                         _______ _______ _______ _____ _____    ______ ____
ROOT
ATOM      1  C   UNL     1       2.126   6.913  20.085  0.00  0.00    +0.000 A 
ATOM      2  C   UNL     1       1.448   7.798  20.922  0.00  0.00    +0.000 A 
ATOM      3  C   UNL     1       0.964   9.009  20.432  0.00  0.00    +0.000 A 
ATOM      4  C   UNL     1       1.163   9.359  19.094  0.00  0.00    +0.000 A 
ATOM      5  C   UNL     1       1.970   8.529  18.296  0.00  0.00    +0.000 A 
ATOM      6  C   UNL     1       2.447   7.313  18.791  0.00  0.00    +0.000 A 
ENDROOT
BRANCH   4   7
ATOM      7  C   UNL     1       0.299  10.476  18.506  0.00  0.00    +0.000 C 
ATOM      8  C   UNL     1      -0.888   9.926  17.690  0.00  0.00    +0.000 C 
ATOM      9  C   UNL     1      -2.004  10.943  17.505  0.00  0.00    +0.000 C 
ATOM     10  N   UNL     1      -2.450  11.444  18.800  0.00  0.00    +0.000 NA
ATOM     11  C   UNL     1      -1.374  12.216  19.413  0.00  0.00    +0.000 C 
ATOM     12  C   UNL     1      -0.091  11.413  19.694  0.00  0.00    +0.000 C 
ATOM     13  H   UNL     1      -2.693  10.658  19.405  0.00  0.00    +0.000 HD
BRANCH  12  14
ATOM     14  O   UNL     1       1.016  12.320  19.977  0.00  0.00    +0.000 OA
BRANCH  14  15
ATOM     15  C   UNL     1       0.556  13.560  20.525  0.00  0.00    +0.000 C 
BRANCH  15  16
ATOM     16  C   UNL     1       1.005  14.812  19.801  0.00  0.00    +0.000 A 
ATOM     17  C   UNL     1       2.305  14.984  19.324  0.00  0.00    +0.000 A 
ATOM     18  C   UNL     1       2.584  15.993  18.391  0.00  0.00    +0.000 A 
ATOM     19  C   UNL     1       1.573  16.848  17.914  0.00  0.00    +0.000 A 
ATOM     20  C   UNL     1       1.798  17.757  16.870  0.00  0.00    +0.000 A 
ATOM     21  C   UNL     1       0.771  18.587  16.415  0.00  0.00    +0.000 A 
ATOM     22  C   UNL     1      -0.474  18.555  17.022  0.00  0.00    +0.000 A 
ATOM     23  C   UNL     1      -0.718  17.646  18.053  0.00  0.00    +0.000 A 
ATOM     24  C   UNL     1       0.282  16.755  18.478  0.00  0.00    +0.000 A 
ATOM     25  C   UNL     1       0.015  15.737  19.410  0.00  0.00    +0.000 A 
ENDBRANCH  15  16
ENDBRANCH  14  15
ENDBRANCH  12  14
ENDBRANCH   4   7
BRANCH   1  26
ATOM     26  O   UNL     1       2.478   5.634  20.426  0.00  0.00    +0.000 OA
BRANCH  26  27
ATOM     27  C   UNL     1       1.373   4.753  20.646  0.00  0.00    +0.000 C 
BRANCH  27  28
ATOM     28  C   UNL     1       1.784   3.306  20.418  0.00  0.00    +0.000 C 
BRANCH  28  29
ATOM     29  C   UNL     1       1.241   2.755  19.100  0.00  0.00    +0.000 C 
BRANCH  29  30
ATOM     30  C   UNL     1       1.424   3.747  17.961  0.00  0.00    +0.000 C 
BRANCH  30  31
ATOM     31  O   UNL     1       2.236   3.150  16.957  0.00  0.00    +0.000 OA
BRANCH  31  32
ATOM     32  C   UNL     1       3.499   2.740  17.473  0.00  0.00    +0.000 C 
BRANCH  32  36
ATOM     33  C   UNL     1       6.046   6.199  17.875  0.00  0.00    +0.000 A 
ATOM     34  C   UNL     1       5.379   5.951  16.677  0.00  0.00    +0.000 A 
ATOM     35  C   UNL     1       4.565   4.825  16.552  0.00  0.00    +0.000 A 
ATOM     36  C   UNL     1       4.416   3.927  17.620  0.00  0.00    +0.000 A 
ATOM     37  C   UNL     1       5.082   4.197  18.824  0.00  0.00    +0.000 A 
ATOM     38  C   UNL     1       5.898   5.324  18.948  0.00  0.00    +0.000 A 
ENDBRANCH  32  36
ENDBRANCH  31  32
ENDBRANCH  30  31
ENDBRANCH  29  30
ENDBRANCH  28  29
ENDBRANCH  27  28
ENDBRANCH  26  27
ENDBRANCH   1  26
TORSDOF 12
ENDMDL
MODEL 3
REMARK VINA RESULT:      -8.9      4.790      7.911
REMARK  Name = 
REMARK  12 active torsions:
REMARK  status: ('A' for Active; 'I' for Inactive)
REMARK    1  A    between atoms: C_4  and  C_5
REMARK    2  A    between atoms: C_5  and  O_6
REMARK    3  A    between atoms: O_6  and  C_7
REMARK    4  A    between atoms: C_7  and  C_8
REMARK    5  A    between atoms: C_8  and  C_9
REMARK    6  A    between atoms: C_9  and  C_10
REMARK    7  A    between atoms: C_10  and  O_11
REMARK    8  A    between atoms: O_11  and  C_12
REMARK    9  A    between atoms: C_15  and  C_16
REMARK   10  A    between atoms: C_21  and  O_22
REMARK   11  A    between atoms: O_22  and  C_23
REMARK   12  A    between atoms: C_23  and  C_24
REMARK                            x       y       z     vdW  Elec       q    Type
REMARK                         _______ _______ _______ _____ _____    ______ ____
ROOT
ATOM      1  C   UNL     1       2.612   7.468  18.537  0.00  0.00    +0.000 A 
ATOM      2  C   UNL     1       2.378   7.182  19.881  0.00  0.00    +0.000 A 
ATOM      3  C   UNL     1       1.569   8.012  20.653  0.00  0.00    +0.000 A 
ATOM      4  C   UNL     1       0.988   9.152  20.092  0.00  0.00    +0.000 A 
ATOM      5  C   UNL     1       1.345   9.511  18.780  0.00  0.00    +0.000 A 
ATOM      6  C   UNL     1       2.152   8.672  18.009  0.00  0.00    +0.000 A 
ENDROOT
BRANCH   4   7
ATOM      7  C   UNL     1      -0.181   9.803  20.833  0.00  0.00    +0.000 C 
ATOM      8  C   UNL     1      -0.209   9.424  22.327  0.00  0.00    +0.000 C 
ATOM      9  C   UNL     1      -1.025  10.392  23.170  0.00  0.00    +0.000 C 
ATOM     10  N   UNL     1      -0.539  11.755  22.988  0.00  0.00    +0.000 NA
ATOM     11  C   UNL     1      -0.804  12.179  21.617  0.00  0.00    +0.000 C 
ATOM     12  C   UNL     1      -0.100  11.335  20.539  0.00  0.00    +0.000 C 
ATOM     13  H   UNL     1       0.466  11.786  23.165  0.00  0.00    +0.000 HD
BRANCH  12  14
ATOM     14  O   UNL     1      -0.684  11.607  19.229  0.00  0.00    +0.000 OA
BRANCH  14  15
ATOM     15  C   UNL     1      -1.640  12.671  19.288  0.00  0.00    +0.000 C 
BRANCH  15  16
ATOM     16  C   UNL     1      -3.082  12.280  19.047  0.00  0.00    +0.000 A 
ATOM     17  C   UNL     1      -3.470  11.417  18.021  0.00  0.00    +0.000 A 
ATOM     18  C   UNL     1      -4.745  10.833  18.039  0.00  0.00    +0.000 A 
ATOM     19  C   UNL     1      -5.657  11.096  19.077  0.00  0.00    +0.000 A 
ATOM     20  C   UNL     1      -6.872  10.406  19.195  0.00  0.00    +0.000 A 
ATOM     21  C   UNL     1      -7.752  10.685  20.243  0.00  0.00    +0.000 A 
ATOM     22  C   UNL     1      -7.455  11.684  21.156  0.00  0.00    +0.000 A 
ATOM     23  C   UNL     1      -6.244  12.372  21.060  0.00  0.00    +0.000 A 
ATOM     24  C   UNL     1      -5.315  12.057  20.055  0.00  0.00    +0.000 A 
ATOM     25  C   UNL     1      -4.033  12.632  20.028  0.00  0.00    +0.000 A 
ENDBRANCH  15  16
ENDBRANCH  14  15
ENDBRANCH  12  14
ENDBRANCH   4   7
BRANCH   1  26
ATOM     26  O   UNL     1       3.240   6.625  17.659  0.00  0.00    +0.000 OA
BRANCH  26  27
ATOM     27  C   UNL     1       4.495   7.107  17.169  0.00  0.00    +0.000 C 
BRANCH  27  28
ATOM     28  C   UNL     1       5.084   6.140  16.154  0.00  0.00    +0.000 C 
BRANCH  28  29
ATOM     29  C   UNL     1       5.578   4.851  16.808  0.00  0.00    +0.000 C 
BRANCH  29  30
ATOM     30  C   UNL     1       4.865   3.630  16.245  0.00  0.00    +0.000 C 
BRANCH  30  31
ATOM     31  O   UNL     1       4.357   2.855  17.324  0.00  0.00    +0.000 OA
BRANCH  31  32
ATOM     32  C   UNL     1       2.933   2.859  17.353  0.00  0.00    +0.000 C 
BRANCH  32  36
ATOM     33  C   UNL     1       1.602   3.428  21.418  0.00  0.00    +0.000 A 
ATOM     34  C   UNL     1       2.757   2.696  21.151  0.00  0.00    +0.000 A 
ATOM     35  C   UNL     1       3.175   2.508  19.833  0.00  0.00    +0.000 A 
ATOM     36  C   UNL     1       2.437   3.042  18.765  0.00  0.00    +0.000 A 
ATOM     37  C   UNL     1       1.285   3.788  19.050  0.00  0.00    +0.000 A 
ATOM     38  C   UNL     1       0.867   3.974  20.369  0.00  0.00    +0.000 A 
ENDBRANCH  32  36
ENDBRANCH  31  32
ENDBRANCH  30  31
ENDBRANCH  29  30
ENDBRANCH  28  29
ENDBRANCH  27  28
ENDBRANCH  26  27
ENDBRANCH   1  26
TORSDOF 12
ENDMDL
MODEL 4
REMARK VINA RESULT:      -8.7      3.706      7.768
REMARK  Name = 
REMARK  12 active torsions:
REMARK  status: ('A' for Active; 'I' for Inactive)
REMARK    1  A    between atoms: C_4  and  C_5
REMARK    2  A    between atoms: C_5  and  O_6
REMARK    3  A    between atoms: O_6  and  C_7
REMARK    4  A    between atoms: C_7  and  C_8
REMARK    5  A    between atoms: C_8  and  C_9
REMARK    6  A    between atoms: C_9  and  C_10
REMARK    7  A    between atoms: C_10  and  O_11
REMARK    8  A    between atoms: O_11  and  C_12
REMARK    9  A    between atoms: C_15  and  C_16
REMARK   10  A    between atoms: C_21  and  O_22
REMARK   11  A    between atoms: O_22  and  C_23
REMARK   12  A    between atoms: C_23  and  C_24
REMARK                            x       y       z     vdW  Elec       q    Type
REMARK                         _______ _______ _______ _____ _____    ______ ____
ROOT
ATOM      1  C   UNL     1       1.741   9.032  18.708  0.00  0.00    +0.000 A 
ATOM      2  C   UNL     1       2.617   8.252  17.955  0.00  0.00    +0.000 A 
ATOM      3  C   UNL     1       2.960   6.968  18.371  0.00  0.00    +0.000 A 
ATOM      4  C   UNL     1       2.439   6.447  19.558  0.00  0.00    +0.000 A 
ATOM      5  C   UNL     1       1.673   7.292  20.382  0.00  0.00    +0.000 A 
ATOM      6  C   UNL     1       1.328   8.576  19.956  0.00  0.00    +0.000 A 
ENDROOT
BRANCH   4   7
ATOM      7  C   UNL     1       2.515   4.935  19.776  0.00  0.00    +0.000 C 
ATOM      8  C   UNL     1       2.440   4.557  21.269  0.00  0.00    +0.000 C 
ATOM      9  C   UNL     1       2.034   3.109  21.496  0.00  0.00    +0.000 C 
ATOM     10  N   UNL     1       0.771   2.827  20.824  0.00  0.00    +0.000 NA
ATOM     11  C   UNL     1       0.966   2.912  19.380  0.00  0.00    +0.000 C 
ATOM     12  C   UNL     1       1.410   4.297  18.875  0.00  0.00    +0.000 C 
ATOM     13  H   UNL     1       0.070   3.512  21.113  0.00  0.00    +0.000 HD
BRANCH  12  14
ATOM     14  O   UNL     1       1.903   4.197  17.505  0.00  0.00    +0.000 OA
BRANCH  14  15
ATOM     15  C   UNL     1       3.089   3.399  17.428  0.00  0.00    +0.000 C 
BRANCH  15  16
ATOM     16  C   UNL     1       4.380   4.152  17.190  0.00  0.00    +0.000 A 
ATOM     17  C   UNL     1       4.632   4.868  16.019  0.00  0.00    +0.000 A 
ATOM     18  C   UNL     1       5.678   5.802  15.978  0.00  0.00    +0.000 A 
ATOM     19  C   UNL     1       6.491   6.041  17.101  0.00  0.00    +0.000 A 
ATOM     20  C   UNL     1       7.437   7.075  17.130  0.00  0.00    +0.000 A 
ATOM     21  C   UNL     1       8.223   7.291  18.264  0.00  0.00    +0.000 A 
ATOM     22  C   UNL     1       8.110   6.453  19.361  0.00  0.00    +0.000 A 
ATOM     23  C   UNL     1       7.164   5.427  19.354  0.00  0.00    +0.000 A 
ATOM     24  C   UNL     1       6.316   5.238  18.250  0.00  0.00    +0.000 A 
ATOM     25  C   UNL     1       5.262   4.308  18.280  0.00  0.00    +0.000 A 
ENDBRANCH  15  16
ENDBRANCH  14  15
ENDBRANCH  12  14
ENDBRANCH   4   7
BRANCH   1  26
ATOM     26  O   UNL     1       1.208  10.225  18.295  0.00  0.00    +0.000 OA
BRANCH  26  27
ATOM     27  C   UNL     1       2.177  11.226  17.971  0.00  0.00    +0.000 C 
BRANCH  27  28
ATOM     28  C   UNL     1       2.121  12.372  18.969  0.00  0.00    +0.000 C 
BRANCH  28  29
ATOM     29  C   UNL     1       2.205  13.735  18.284  0.00  0.00    +0.000 C 
BRANCH  29  30
ATOM     30  C   UNL     1       1.205  14.719  18.873  0.00  0.00    +0.000 C 
BRANCH  30  31
ATOM     31  O   UNL     1       0.194  13.993  19.561  0.00  0.00    +0.000 OA
BRANCH  31  32
ATOM     32  C   UNL     1      -0.036  14.514  20.866  0.00  0.00    +0.000 C 
BRANCH  32  36
ATOM     33  C   UNL     1      -2.115  11.639  23.322  0.00  0.00    +0.000 A 
ATOM     34  C   UNL     1      -0.990  11.260  22.593  0.00  0.00    +0.000 A 
ATOM     35  C   UNL     1      -0.329  12.193  21.793  0.00  0.00    +0.000 A 
ATOM     36  C   UNL     1      -0.792  13.515  21.705  0.00  0.00    +0.000 A 
ATOM     37  C   UNL     1      -1.917  13.886  22.455  0.00  0.00    +0.000 A 
ATOM     38  C   UNL     1      -2.578  12.951  23.254  0.00  0.00    +0.000 A 
ENDBRANCH  32  36
ENDBRANCH  31  32
ENDBRANCH  30  31
ENDBRANCH  29  30
ENDBRANCH  28  29
ENDBRANCH  27  28
ENDBRANCH  26  27
ENDBRANCH   1  26
TORSDOF 12
ENDMDL
MODEL 5
REMARK VINA RESULT:      -8.7      3.388      7.254
REMARK  Name = 
REMARK  12 active torsions:
REMARK  status: ('A' for Active; 'I' for Inactive)
REMARK    1  A    between atoms: C_4  and  C_5
REMARK    2  A    between atoms: C_5  and  O_6
REMARK    3  A    between atoms: O_6  and  C_7
REMARK    4  A    between atoms: C_7  and  C_8
REMARK    5  A    between atoms: C_8  and  C_9
REMARK    6  A    between atoms: C_9  and  C_10
REMARK    7  A    between atoms: C_10  and  O_11
REMARK    8  A    between atoms: O_11  and  C_12
REMARK    9  A    between atoms: C_15  and  C_16
REMARK   10  A    between atoms: C_21  and  O_22
REMARK   11  A    between atoms: O_22  and  C_23
REMARK   12  A    between atoms: C_23  and  C_24
REMARK                            x       y       z     vdW  Elec       q    Type
REMARK                         _______ _______ _______ _____ _____    ______ ____
ROOT
ATOM      1  C   UNL     1       1.359   9.087  19.236  0.00  0.00    +0.000 A 
ATOM      2  C   UNL     1       2.171   8.400  18.336  0.00  0.00    +0.000 A 
ATOM      3  C   UNL     1       2.615   7.111  18.621  0.00  0.00    +0.000 A 
ATOM      4  C   UNL     1       2.260   6.492  19.822  0.00  0.00    +0.000 A 
ATOM      5  C   UNL     1       1.562   7.244  20.784  0.00  0.00    +0.000 A 
ATOM      6  C   UNL     1       1.115   8.534  20.490  0.00  0.00    +0.000 A 
ENDROOT
BRANCH   4   7
ATOM      7  C   UNL     1       2.424   4.974  19.926  0.00  0.00    +0.000 C 
ATOM      8  C   UNL     1       2.363   4.481  21.386  0.00  0.00    +0.000 C 
ATOM      9  C   UNL     1       2.043   2.998  21.498  0.00  0.00    +0.000 C 
ATOM     10  N   UNL     1       0.802   2.694  20.795  0.00  0.00    +0.000 NA
ATOM     11  C   UNL     1       1.000   2.899  19.364  0.00  0.00    +0.000 C 
ATOM     12  C   UNL     1       1.364   4.342  18.968  0.00  0.00    +0.000 C 
ATOM     13  H   UNL     1       0.060   3.313  21.127  0.00  0.00    +0.000 HD
BRANCH  12  14
ATOM     14  O   UNL     1       1.869   4.375  17.600  0.00  0.00    +0.000 OA
BRANCH  14  15
ATOM     15  C   UNL     1       3.049   3.577  17.454  0.00  0.00    +0.000 C 
BRANCH  15  16
ATOM     16  C   UNL     1       4.337   4.335  17.216  0.00  0.00    +0.000 A 
ATOM     17  C   UNL     1       4.545   5.139  16.094  0.00  0.00    +0.000 A 
ATOM     18  C   UNL     1       5.599   6.064  16.077  0.00  0.00    +0.000 A 
ATOM     19  C   UNL     1       6.465   6.208  17.177  0.00  0.00    +0.000 A 
ATOM     20  C   UNL     1       7.422   7.229  17.243  0.00  0.00    +0.000 A 
ATOM     21  C   UNL     1       8.262   7.349  18.353  0.00  0.00    +0.000 A 
ATOM     22  C   UNL     1       8.189   6.429  19.386  0.00  0.00    +0.000 A 
ATOM     23  C   UNL     1       7.231   5.414  19.342  0.00  0.00    +0.000 A 
ATOM     24  C   UNL     1       6.332   5.319  18.267  0.00  0.00    +0.000 A 
ATOM     25  C   UNL     1       5.269   4.399  18.273  0.00  0.00    +0.000 A 
ENDBRANCH  15  16
ENDBRANCH  14  15
ENDBRANCH  12  14
ENDBRANCH   4   7
BRANCH   1  26
ATOM     26  O   UNL     1       0.732  10.275  18.969  0.00  0.00    +0.000 OA
BRANCH  26  27
ATOM     27  C   UNL     1      -0.267  10.647  19.923  0.00  0.00    +0.000 C 
BRANCH  27  28
ATOM     28  C   UNL     1      -0.252  12.149  20.161  0.00  0.00    +0.000 C 
BRANCH  28  29
ATOM     29  C   UNL     1       1.056  12.617  20.799  0.00  0.00    +0.000 C 
BRANCH  29  30
ATOM     30  C   UNL     1       0.900  13.978  21.459  0.00  0.00    +0.000 C 
BRANCH  30  31
ATOM     31  O   UNL     1       2.149  14.365  22.019  0.00  0.00    +0.000 OA
BRANCH  31  32
ATOM     32  C   UNL     1       2.550  15.658  21.576  0.00  0.00    +0.000 C 
BRANCH  32  36
ATOM     33  C   UNL     1       3.643  15.646  17.402  0.00  0.00    +0.000 A 
ATOM     34  C   UNL     1       2.695  16.548  17.879  0.00  0.00    +0.000 A 
ATOM     35  C   UNL     1       2.339  16.539  19.228  0.00  0.00    +0.000 A 
ATOM     36  C   UNL     1       2.921  15.620  20.115  0.00  0.00    +0.000 A 
ATOM     37  C   UNL     1       3.884  14.727  19.624  0.00  0.00    +0.000 A 
ATOM     38  C   UNL     1       4.238  14.736  18.273  0.00  0.00    +0.000 A 
ENDBRANCH  32  36
ENDBRANCH  31  32
ENDBRANCH  30  31
ENDBRANCH  29  30
ENDBRANCH  28  29
ENDBRANCH  27  28
ENDBRANCH  26  27
ENDBRANCH   1  26
TORSDOF 12
ENDMDL
MODEL 6
REMARK VINA RESULT:      -8.7      3.723      8.412
REMARK  Name = 
REMARK  12 active torsions:
REMARK  status: ('A' for Active; 'I' for Inactive)
REMARK    1  A    between atoms: C_4  and  C_5
REMARK    2  A    between atoms: C_5  and  O_6
REMARK    3  A    between atoms: O_6  and  C_7
REMARK    4  A    between atoms: C_7  and  C_8
REMARK    5  A    between atoms: C_8  and  C_9
REMARK    6  A    between atoms: C_9  and  C_10
REMARK    7  A    between atoms: C_10  and  O_11
REMARK    8  A    between atoms: O_11  and  C_12
REMARK    9  A    between atoms: C_15  and  C_16
REMARK   10  A    between atoms: C_21  and  O_22
REMARK   11  A    between atoms: O_22  and  C_23
REMARK   12  A    between atoms: C_23  and  C_24
REMARK                            x       y       z     vdW  Elec       q    Type
REMARK                         _______ _______ _______ _____ _____    ______ ____
ROOT
ATOM      1  C   UNL     1       2.226   7.139  19.540  0.00  0.00    +0.000 A 
ATOM      2  C   UNL     1       1.582   7.877  20.532  0.00  0.00    +0.000 A 
ATOM      3  C   UNL     1       1.028   9.122  20.244  0.00  0.00    +0.000 A 
ATOM      4  C   UNL     1       1.122   9.655  18.956  0.00  0.00    +0.000 A 
ATOM      5  C   UNL     1       1.896   8.973  18.001  0.00  0.00    +0.000 A 
ATOM      6  C   UNL     1       2.443   7.722  18.294  0.00  0.00    +0.000 A 
ENDROOT
BRANCH   4   7
ATOM      7  C   UNL     1       0.185  10.806  18.584  0.00  0.00    +0.000 C 
ATOM      8  C   UNL     1      -1.211  10.306  18.160  0.00  0.00    +0.000 C 
ATOM      9  C   UNL     1      -2.280  11.385  18.249  0.00  0.00    +0.000 C 
ATOM     10  N   UNL     1      -2.316  11.951  19.592  0.00  0.00    +0.000 NA
ATOM     11  C   UNL     1      -1.073  12.672  19.842  0.00  0.00    +0.000 C 
ATOM     12  C   UNL     1       0.195  11.800  19.789  0.00  0.00    +0.000 C 
ATOM     13  H   UNL     1      -2.417  11.199  20.277  0.00  0.00    +0.000 HD
BRANCH  12  14
ATOM     14  O   UNL     1       1.382  12.645  19.707  0.00  0.00    +0.000 OA
BRANCH  14  15
ATOM     15  C   UNL     1       1.518  13.241  18.412  0.00  0.00    +0.000 C 
BRANCH  15  16
ATOM     16  C   UNL     1       2.514  14.375  18.306  0.00  0.00    +0.000 A 
ATOM     17  C   UNL     1       2.235  15.669  18.750  0.00  0.00    +0.000 A 
ATOM     18  C   UNL     1       3.278  16.589  18.932  0.00  0.00    +0.000 A 
ATOM     19  C   UNL     1       4.617  16.239  18.677  0.00  0.00    +0.000 A 
ATOM     20  C   UNL     1       5.684  17.089  19.000  0.00  0.00    +0.000 A 
ATOM     21  C   UNL     1       7.002  16.708  18.741  0.00  0.00    +0.000 A 
ATOM     22  C   UNL     1       7.270  15.500  18.118  0.00  0.00    +0.000 A 
ATOM     23  C   UNL     1       6.220  14.636  17.803  0.00  0.00    +0.000 A 
ATOM     24  C   UNL     1       4.893  14.971  18.118  0.00  0.00    +0.000 A 
ATOM     25  C   UNL     1       3.839  14.057  17.944  0.00  0.00    +0.000 A 
ENDBRANCH  15  16
ENDBRANCH  14  15
ENDBRANCH  12  14
ENDBRANCH   4   7
BRANCH   1  26
ATOM     26  O   UNL     1       2.641   5.841  19.680  0.00  0.00    +0.000 OA
BRANCH  26  27
ATOM     27  C   UNL     1       2.035   5.139  20.769  0.00  0.00    +0.000 C 
BRANCH  27  28
ATOM     28  C   UNL     1       0.868   4.294  20.282  0.00  0.00    +0.000 C 
BRANCH  28  29
ATOM     29  C   UNL     1       1.273   3.352  19.149  0.00  0.00    +0.000 C 
BRANCH  29  30
ATOM     30  C   UNL     1       2.322   2.349  19.605  0.00  0.00    +0.000 C 
BRANCH  30  31
ATOM     31  O   UNL     1       3.398   2.351  18.674  0.00  0.00    +0.000 OA
BRANCH  31  32
ATOM     32  C   UNL     1       4.577   2.925  19.231  0.00  0.00    +0.000 C 
BRANCH  32  36
ATOM     33  C   UNL     1       5.809   6.290  16.828  0.00  0.00    +0.000 A 
ATOM     34  C   UNL     1       4.868   5.385  16.342  0.00  0.00    +0.000 A 
ATOM     35  C   UNL     1       4.482   4.294  17.122  0.00  0.00    +0.000 A 
ATOM     36  C   UNL     1       5.041   4.089  18.393  0.00  0.00    +0.000 A 
ATOM     37  C   UNL     1       5.976   5.016  18.874  0.00  0.00    +0.000 A 
ATOM     38  C   UNL     1       6.362   6.107  18.093  0.00  0.00    +0.000 A 
ENDBRANCH  32  36
ENDBRANCH  31  32
ENDBRANCH  30  31
ENDBRANCH  29  30
ENDBRANCH  28  29
ENDBRANCH  27  28
ENDBRANCH  26  27
ENDBRANCH   1  26
TORSDOF 12
ENDMDL
MODEL 7
REMARK VINA RESULT:      -8.7      3.715      8.682
REMARK  Name = 
REMARK  12 active torsions:
REMARK  status: ('A' for Active; 'I' for Inactive)
REMARK    1  A    between atoms: C_4  and  C_5
REMARK    2  A    between atoms: C_5  and  O_6
REMARK    3  A    between atoms: O_6  and  C_7
REMARK    4  A    between atoms: C_7  and  C_8
REMARK    5  A    between atoms: C_8  and  C_9
REMARK    6  A    between atoms: C_9  and  C_10
REMARK    7  A    between atoms: C_10  and  O_11
REMARK    8  A    between atoms: O_11  and  C_12
REMARK    9  A    between atoms: C_15  and  C_16
REMARK   10  A    between atoms: C_21  and  O_22
REMARK   11  A    between atoms: O_22  and  C_23
REMARK   12  A    between atoms: C_23  and  C_24
REMARK                            x       y       z     vdW  Elec       q    Type
REMARK                         _______ _______ _______ _____ _____    ______ ____
ROOT
ATOM      1  C   UNL     1       1.590   9.056  18.717  0.00  0.00    +0.000 A 
ATOM      2  C   UNL     1       2.369   8.258  17.881  0.00  0.00    +0.000 A 
ATOM      3  C   UNL     1       2.757   6.981  18.278  0.00  0.00    +0.000 A 
ATOM      4  C   UNL     1       2.379   6.485  19.528  0.00  0.00    +0.000 A 
ATOM      5  C   UNL     1       1.718   7.348  20.421  0.00  0.00    +0.000 A 
ATOM      6  C   UNL     1       1.326   8.625  20.014  0.00  0.00    +0.000 A 
ENDROOT
BRANCH   4   7
ATOM      7  C   UNL     1       2.477   4.977  19.765  0.00  0.00    +0.000 C 
ATOM      8  C   UNL     1       2.378   4.614  21.260  0.00  0.00    +0.000 C 
ATOM      9  C   UNL     1       1.993   3.161  21.494  0.00  0.00    +0.000 C 
ATOM     10  N   UNL     1       0.750   2.849  20.799  0.00  0.00    +0.000 NA
ATOM     11  C   UNL     1       0.974   2.922  19.359  0.00  0.00    +0.000 C 
ATOM     12  C   UNL     1       1.403   4.309  18.847  0.00  0.00    +0.000 C 
ATOM     13  H   UNL     1       0.031   3.524  21.066  0.00  0.00    +0.000 HD
BRANCH  12  14
ATOM     14  O   UNL     1       1.927   4.203  17.489  0.00  0.00    +0.000 OA
BRANCH  14  15
ATOM     15  C   UNL     1       3.130   3.427  17.447  0.00  0.00    +0.000 C 
BRANCH  15  16
ATOM     16  C   UNL     1       4.409   4.199  17.205  0.00  0.00    +0.000 A 
ATOM     17  C   UNL     1       4.633   4.947  16.048  0.00  0.00    +0.000 A 
ATOM     18  C   UNL     1       5.668   5.893  16.011  0.00  0.00    +0.000 A 
ATOM     19  C   UNL     1       6.498   6.113  17.125  0.00  0.00    +0.000 A 
ATOM     20  C   UNL     1       7.433   7.157  17.163  0.00  0.00    +0.000 A 
ATOM     21  C   UNL     1       8.237   7.353  18.288  0.00  0.00    +0.000 A 
ATOM     22  C   UNL     1       8.153   6.488  19.366  0.00  0.00    +0.000 A 
ATOM     23  C   UNL     1       7.217   5.452  19.350  0.00  0.00    +0.000 A 
ATOM     24  C   UNL     1       6.352   5.280  18.257  0.00  0.00    +0.000 A 
ATOM     25  C   UNL     1       5.308   4.339  18.282  0.00  0.00    +0.000 A 
ENDBRANCH  15  16
ENDBRANCH  14  15
ENDBRANCH  12  14
ENDBRANCH   4   7
BRANCH   1  26
ATOM     26  O   UNL     1       1.014  10.243  18.347  0.00  0.00    +0.000 OA
BRANCH  26  27
ATOM     27  C   UNL     1       0.231  10.866  19.369  0.00  0.00    +0.000 C 
BRANCH  27  28
ATOM     28  C   UNL     1       0.669  12.307  19.579  0.00  0.00    +0.000 C 
BRANCH  28  29
ATOM     29  C   UNL     1       0.122  12.889  20.882  0.00  0.00    +0.000 C 
BRANCH  29  30
ATOM     30  C   UNL     1      -1.069  12.093  21.394  0.00  0.00    +0.000 C 
BRANCH  30  31
ATOM     31  O   UNL     1      -1.074  12.134  22.816  0.00  0.00    +0.000 OA
BRANCH  31  32
ATOM     32  C   UNL     1      -2.336  11.747  23.351  0.00  0.00    +0.000 C 
BRANCH  32  36
ATOM     33  C   UNL     1      -4.829  15.246  23.748  0.00  0.00    +0.000 A 
ATOM     34  C   UNL     1      -3.543  15.234  24.283  0.00  0.00    +0.000 A 
ATOM     35  C   UNL     1      -2.747  14.095  24.159  0.00  0.00    +0.000 A 
ATOM     36  C   UNL     1      -3.231  12.950  23.507  0.00  0.00    +0.000 A 
ATOM     37  C   UNL     1      -4.522  12.983  22.961  0.00  0.00    +0.000 A 
ATOM     38  C   UNL     1      -5.318  14.122  23.087  0.00  0.00    +0.000 A 
ENDBRANCH  32  36
ENDBRANCH  31  32
ENDBRANCH  30  31
ENDBRANCH  29  30
ENDBRANCH  28  29
ENDBRANCH  27  28
ENDBRANCH  26  27
ENDBRANCH   1  26
TORSDOF 12
ENDMDL
MODEL 8
REMARK VINA RESULT:      -8.6      3.771      7.640
REMARK  Name = 
REMARK  12 active torsions:
REMARK  status: ('A' for Active; 'I' for Inactive)
REMARK    1  A    between atoms: C_4  and  C_5
REMARK    2  A    between atoms: C_5  and  O_6
REMARK    3  A    between atoms: O_6  and  C_7
REMARK    4  A    between atoms: C_7  and  C_8
REMARK    5  A    between atoms: C_8  and  C_9
REMARK    6  A    between atoms: C_9  and  C_10
REMARK    7  A    between atoms: C_10  and  O_11
REMARK    8  A    between atoms: O_11  and  C_12
REMARK    9  A    between atoms: C_15  and  C_16
REMARK   10  A    between atoms: C_21  and  O_22
REMARK   11  A    between atoms: O_22  and  C_23
REMARK   12  A    between atoms: C_23  and  C_24
REMARK                            x       y       z     vdW  Elec       q    Type
REMARK                         _______ _______ _______ _____ _____    ______ ____
ROOT
ATOM      1  C   UNL     1       2.084   7.603  19.571  0.00  0.00    +0.000 A 
ATOM      2  C   UNL     1       1.265   8.265  20.484  0.00  0.00    +0.000 A 
ATOM      3  C   UNL     1       0.505   9.364  20.090  0.00  0.00    +0.000 A 
ATOM      4  C   UNL     1       0.563   9.826  18.773  0.00  0.00    +0.000 A 
ATOM      5  C   UNL     1       1.497   9.244  17.897  0.00  0.00    +0.000 A 
ATOM      6  C   UNL     1       2.252   8.139  18.297  0.00  0.00    +0.000 A 
ENDROOT
BRANCH   4   7
ATOM      7  C   UNL     1      -0.551  10.754  18.286  0.00  0.00    +0.000 C 
ATOM      8  C   UNL     1      -1.438  10.088  17.214  0.00  0.00    +0.000 C 
ATOM      9  C   UNL     1      -2.793  10.762  17.063  0.00  0.00    +0.000 C 
ATOM     10  N   UNL     1      -3.479  10.811  18.348  0.00  0.00    +0.000 NA
ATOM     11  C   UNL     1      -2.749  11.698  19.248  0.00  0.00    +0.000 C 
ATOM     12  C   UNL     1      -1.309  11.251  19.558  0.00  0.00    +0.000 C 
ATOM     13  H   UNL     1      -3.517   9.874  18.752  0.00  0.00    +0.000 HD
BRANCH  12  14
ATOM     14  O   UNL     1      -0.563  12.347  20.167  0.00  0.00    +0.000 OA
BRANCH  14  15
ATOM     15  C   UNL     1      -0.974  13.617  19.649  0.00  0.00    +0.000 C 
BRANCH  15  16
ATOM     16  C   UNL     1       0.106  14.442  18.983  0.00  0.00    +0.000 A 
ATOM     17  C   UNL     1      -0.008  15.819  18.786  0.00  0.00    +0.000 A 
ATOM     18  C   UNL     1       1.127  16.581  18.473  0.00  0.00    +0.000 A 
ATOM     19  C   UNL     1       2.397  15.987  18.350  0.00  0.00    +0.000 A 
ATOM     20  C   UNL     1       3.563  16.748  18.193  0.00  0.00    +0.000 A 
ATOM     21  C   UNL     1       4.810  16.127  18.082  0.00  0.00    +0.000 A 
ATOM     22  C   UNL     1       4.904  14.745  18.081  0.00  0.00    +0.000 A 
ATOM     23  C   UNL     1       3.753  13.973  18.251  0.00  0.00    +0.000 A 
ATOM     24  C   UNL     1       2.500  14.580  18.434  0.00  0.00    +0.000 A 
ATOM     25  C   UNL     1       1.355  13.829  18.752  0.00  0.00    +0.000 A 
ENDBRANCH  15  16
ENDBRANCH  14  15
ENDBRANCH  12  14
ENDBRANCH   4   7
BRANCH   1  26
ATOM     26  O   UNL     1       2.724   6.417  19.816  0.00  0.00    +0.000 OA
BRANCH  26  27
ATOM     27  C   UNL     1       1.974   5.491  20.606  0.00  0.00    +0.000 C 
BRANCH  27  28
ATOM     28  C   UNL     1       1.330   4.430  19.726  0.00  0.00    +0.000 C 
BRANCH  28  29
ATOM     29  C   UNL     1       1.898   4.438  18.308  0.00  0.00    +0.000 C 
BRANCH  29  30
ATOM     30  C   UNL     1       2.849   3.274  18.080  0.00  0.00    +0.000 C 
BRANCH  30  31
ATOM     31  O   UNL     1       4.188   3.751  18.155  0.00  0.00    +0.000 OA
BRANCH  31  32
ATOM     32  C   UNL     1       4.419   4.822  17.246  0.00  0.00    +0.000 C 
BRANCH  32  36
ATOM     33  C   UNL     1       7.968   6.988  18.398  0.00  0.00    +0.000 A 
ATOM     34  C   UNL     1       7.653   5.777  19.010  0.00  0.00    +0.000 A 
ATOM     35  C   UNL     1       6.498   5.087  18.638  0.00  0.00    +0.000 A 
ATOM     36  C   UNL     1       5.639   5.606  17.658  0.00  0.00    +0.000 A 
ATOM     37  C   UNL     1       5.976   6.819  17.041  0.00  0.00    +0.000 A 
ATOM     38  C   UNL     1       7.131   7.509  17.414  0.00  0.00    +0.000 A 
ENDBRANCH  32  36
ENDBRANCH  31  32
ENDBRANCH  30  31
ENDBRANCH  29  30
ENDBRANCH  28  29
ENDBRANCH  27  28
ENDBRANCH  26  27
ENDBRANCH   1  26
TORSDOF 12
ENDMDL
MODEL 9
REMARK VINA RESULT:      -8.6      3.642      8.530
REMARK  Name = 
REMARK  12 active torsions:
REMARK  status: ('A' for Active; 'I' for Inactive)
REMARK    1  A    between atoms: C_4  and  C_5
REMARK    2  A    between atoms: C_5  and  O_6
REMARK    3  A    between atoms: O_6  and  C_7
REMARK    4  A    between atoms: C_7  and  C_8
REMARK    5  A    between atoms: C_8  and  C_9
REMARK    6  A    between atoms: C_9  and  C_10
REMARK    7  A    between atoms: C_10  and  O_11
REMARK    8  A    between atoms: O_11  and  C_12
REMARK    9  A    between atoms: C_15  and  C_16
REMARK   10  A    between atoms: C_21  and  O_22
REMARK   11  A    between atoms: O_22  and  C_23
REMARK   12  A    between atoms: C_23  and  C_24
REMARK                            x       y       z     vdW  Elec       q    Type
REMARK                         _______ _______ _______ _____ _____    ______ ____
ROOT
ATOM      1  C   UNL     1       1.929   9.141  18.611  0.00  0.00    +0.000 A 
ATOM      2  C   UNL     1       1.471   8.672  19.841  0.00  0.00    +0.000 A 
ATOM      3  C   UNL     1       1.508   7.312  20.140  0.00  0.00    +0.000 A 
ATOM      4  C   UNL     1       1.995   6.396  19.204  0.00  0.00    +0.000 A 
ATOM      5  C   UNL     1       2.320   6.860  17.917  0.00  0.00    +0.000 A 
ATOM      6  C   UNL     1       2.287   8.226  17.625  0.00  0.00    +0.000 A 
ENDROOT
BRANCH   4   7
ATOM      7  C   UNL     1       2.384   5.002  19.697  0.00  0.00    +0.000 C 
ATOM      8  C   UNL     1       2.282   4.876  21.230  0.00  0.00    +0.000 C 
ATOM      9  C   UNL     1       2.189   3.433  21.703  0.00  0.00    +0.000 C 
ATOM     10  N   UNL     1       1.073   2.759  21.050  0.00  0.00    +0.000 NA
ATOM     11  C   UNL     1       1.352   2.640  19.623  0.00  0.00    +0.000 C 
ATOM     12  C   UNL     1       1.518   3.983  18.889  0.00  0.00    +0.000 C 
ATOM     13  H   UNL     1       0.219   3.303  21.185  0.00  0.00    +0.000 HD
BRANCH  12  14
ATOM     14  O   UNL     1       2.122   3.768  17.579  0.00  0.00    +0.000 OA
BRANCH  14  15
ATOM     15  C   UNL     1       3.430   3.196  17.688  0.00  0.00    +0.000 C 
BRANCH  15  16
ATOM     16  C   UNL     1       4.585   4.108  17.333  0.00  0.00    +0.000 A 
ATOM     17  C   UNL     1       4.607   4.880  16.171  0.00  0.00    +0.000 A 
ATOM     18  C   UNL     1       5.521   5.937  16.046  0.00  0.00    +0.000 A 
ATOM     19  C   UNL     1       6.429   6.245  17.077  0.00  0.00    +0.000 A 
ATOM     20  C   UNL     1       7.240   7.388  17.037  0.00  0.00    +0.000 A 
ATOM     21  C   UNL     1       8.125   7.670  18.081  0.00  0.00    +0.000 A 
ATOM     22  C   UNL     1       8.245   6.797  19.149  0.00  0.00    +0.000 A 
ATOM     23  C   UNL     1       7.434   5.662  19.210  0.00  0.00    +0.000 A 
ATOM     24  C   UNL     1       6.489   5.398  18.205  0.00  0.00    +0.000 A 
ATOM     25  C   UNL     1       5.565   4.345  18.319  0.00  0.00    +0.000 A 
ENDBRANCH  15  16
ENDBRANCH  14  15
ENDBRANCH  12  14
ENDBRANCH   4   7
BRANCH   1  26
ATOM     26  O   UNL     1       2.099  10.464  18.296  0.00  0.00    +0.000 OA
BRANCH  26  27
ATOM     27  C   UNL     1       1.534  11.376  19.243  0.00  0.00    +0.000 C 
BRANCH  27  28
ATOM     28  C   UNL     1       1.320  12.743  18.612  0.00  0.00    +0.000 C 
BRANCH  28  29
ATOM     29  C   UNL     1      -0.101  13.260  18.830  0.00  0.00    +0.000 C 
BRANCH  29  30
ATOM     30  C   UNL     1      -1.140  12.274  18.317  0.00  0.00    +0.000 C 
BRANCH  30  31
ATOM     31  O   UNL     1      -2.209  12.202  19.252  0.00  0.00    +0.000 OA
BRANCH  31  32
ATOM     32  C   UNL     1      -1.735  12.027  20.585  0.00  0.00    +0.000 C 
BRANCH  32  36
ATOM     33  C   UNL     1      -4.580  13.504  23.472  0.00  0.00    +0.000 A 
ATOM     34  C   UNL     1      -3.549  12.656  23.870  0.00  0.00    +0.000 A 
ATOM     35  C   UNL     1      -2.639  12.175  22.928  0.00  0.00    +0.000 A 
ATOM     36  C   UNL     1      -2.755  12.528  21.575  0.00  0.00    +0.000 A 
ATOM     37  C   UNL     1      -3.789  13.394  21.192  0.00  0.00    +0.000 A 
ATOM     38  C   UNL     1      -4.700  13.874  22.134  0.00  0.00    +0.000 A 
ENDBRANCH  32  36
ENDBRANCH  31  32
ENDBRANCH  30  31
ENDBRANCH  29  30
ENDBRANCH  28  29
ENDBRANCH  27  28
ENDBRANCH  26  27
ENDBRANCH   1  26
TORSDOF 12
ENDMDL
