MODEL 1
REMARK VINA RESULT:      -8.2      0.000      0.000
REMARK  Name = 
REMARK  14 active torsions:
REMARK  status: ('A' for Active; 'I' for Inactive)
REMARK    1  A    between atoms: C_1  and  C_2
REMARK    2  A    between atoms: C_2  and  C_3
REMARK    3  A    between atoms: C_3  and  N_4
REMARK    4  A    between atoms: N_4  and  C_5
REMARK    5  A    between atoms: N_4  and  C_20
REMARK    6  A    between atoms: C_5  and  C_6
REMARK    7  A    between atoms: C_6  and  C_7
REMARK    8  A    between atoms: C_7  and  C_8
REMARK    9  A    between atoms: C_8  and  N_9
REMARK   10  A    between atoms: C_10  and  C_12
REMARK   11  A    between atoms: C_17  and  O_18
REMARK   12  A    between atoms: O_18  and  C_19
REMARK   13  A    between atoms: C_27  and  O_28
REMARK   14  A    between atoms: O_28  and  C_29
REMARK                            x       y       z     vdW  Elec       q    Type
REMARK                         _______ _______ _______ _____ _____    ______ ____
ROOT
ATOM      1  N   UNL     1       6.642   4.609  17.232  0.00  0.00    +0.000 NA
ENDROOT
BRANCH   1   2
ATOM      2  C   UNL     1       5.433   4.005  17.874  0.00  0.00    +0.000 C 
ATOM      3  C   UNL     1       4.148   3.798  17.051  0.00  0.00    +0.000 C 
ATOM      4  O   UNL     1       3.356   2.787  17.780  0.00  0.00    +0.000 OA
ATOM      5  C   UNL     1       2.934   3.303  18.988  0.00  0.00    +0.000 A 
ATOM      6  C   UNL     1       1.767   2.843  19.578  0.00  0.00    +0.000 A 
ATOM      7  C   UNL     1       1.051   3.722  20.388  0.00  0.00    +0.000 A 
ATOM      8  C   UNL     1       1.452   5.058  20.446  0.00  0.00    +0.000 A 
ATOM      9  C   UNL     1       2.687   5.426  19.913  0.00  0.00    +0.000 A 
ATOM     10  C   UNL     1       3.546   4.452  19.456  0.00  0.00    +0.000 A 
ATOM     11  C   UNL     1       5.030   4.550  19.261  0.00  0.00    +0.000 C 
BRANCH   9  12
ATOM     12  O   UNL     1       2.954   6.736  19.578  0.00  0.00    +0.000 OA
ATOM     13  C   UNL     1       1.908   7.593  20.086  0.00  0.00    +0.000 C 
ENDBRANCH   9  12
ENDBRANCH   1   2
BRANCH   1  14
ATOM     14  C   UNL     1       6.851   4.066  15.864  0.00  0.00    +0.000 C 
BRANCH  14  16
ATOM     15  C   UNL     1       5.722   4.094  13.551  0.00  0.00    +0.000 C 
ATOM     16  C   UNL     1       6.377   4.896  14.657  0.00  0.00    +0.000 C 
ENDBRANCH  14  16
ENDBRANCH   1  14
BRANCH   1  17
ATOM     17  C   UNL     1       6.527   6.093  17.212  0.00  0.00    +0.000 C 
BRANCH  17  18
ATOM     18  C   UNL     1       7.560   6.855  18.081  0.00  0.00    +0.000 C 
BRANCH  18  19
ATOM     19  C   UNL     1       7.841   8.286  17.605  0.00  0.00    +0.000 C 
BRANCH  19  20
ATOM     20  C   UNL     1       8.641   9.092  18.632  0.00  0.00    +0.000 C 
BRANCH  20  21
ATOM     21  N   UNL     1       9.035  10.392  18.146  0.00  0.00    +0.000 N 
ATOM     22  C   UNL     1       9.610  11.329  18.982  0.00  0.00    +0.000 C 
ATOM     23  O   UNL     1       9.706  11.179  20.196  0.00  0.00    +0.000 OA
ATOM     24  H   UNL     1       9.032  10.554  17.144  0.00  0.00    +0.000 HD
BRANCH  22  25
ATOM     25  C   UNL     1      10.071  12.571  18.305  0.00  0.00    +0.000 A 
ATOM     26  C   UNL     1      11.142  12.388  17.403  0.00  0.00    +0.000 A 
ATOM     27  C   UNL     1      11.737  13.462  16.743  0.00  0.00    +0.000 A 
ATOM     28  C   UNL     1      11.234  14.749  16.956  0.00  0.00    +0.000 A 
ATOM     29  C   UNL     1      10.161  14.937  17.826  0.00  0.00    +0.000 A 
ATOM     30  C   UNL     1       9.556  13.861  18.509  0.00  0.00    +0.000 A 
BRANCH  30  31
ATOM     31  O   UNL     1       8.621  14.295  19.407  0.00  0.00    +0.000 OA
ATOM     32  C   UNL     1       9.069  14.849  20.640  0.00  0.00    +0.000 C 
ENDBRANCH  30  31
ENDBRANCH  22  25
ENDBRANCH  20  21
ENDBRANCH  19  20
ENDBRANCH  18  19
ENDBRANCH  17  18
ENDBRANCH   1  17
TORSDOF 11
ENDMDL
MODEL 2
REMARK VINA RESULT:      -8.2      0.950      2.020
REMARK  Name = 
REMARK  14 active torsions:
REMARK  status: ('A' for Active; 'I' for Inactive)
REMARK    1  A    between atoms: C_1  and  C_2
REMARK    2  A    between atoms: C_2  and  C_3
REMARK    3  A    between atoms: C_3  and  N_4
REMARK    4  A    between atoms: N_4  and  C_5
REMARK    5  A    between atoms: N_4  and  C_20
REMARK    6  A    between atoms: C_5  and  C_6
REMARK    7  A    between atoms: C_6  and  C_7
REMARK    8  A    between atoms: C_7  and  C_8
REMARK    9  A    between atoms: C_8  and  N_9
REMARK   10  A    between atoms: C_10  and  C_12
REMARK   11  A    between atoms: C_17  and  O_18
REMARK   12  A    between atoms: O_18  and  C_19
REMARK   13  A    between atoms: C_27  and  O_28
REMARK   14  A    between atoms: O_28  and  C_29
REMARK                            x       y       z     vdW  Elec       q    Type
REMARK                         _______ _______ _______ _____ _____    ______ ____
ROOT
ATOM      1  N   UNL     1       6.150   4.562  16.606  0.00  0.00    +0.000 NA
ENDROOT
BRANCH   1   2
ATOM      2  C   UNL     1       5.120   4.868  17.646  0.00  0.00    +0.000 C 
ATOM      3  C   UNL     1       5.305   4.356  19.086  0.00  0.00    +0.000 C 
ATOM      4  O   UNL     1       4.432   5.195  19.932  0.00  0.00    +0.000 OA
ATOM      5  C   UNL     1       3.109   4.951  19.628  0.00  0.00    +0.000 A 
ATOM      6  C   UNL     1       2.125   5.129  20.588  0.00  0.00    +0.000 A 
ATOM      7  C   UNL     1       0.979   4.341  20.506  0.00  0.00    +0.000 A 
ATOM      8  C   UNL     1       0.939   3.312  19.563  0.00  0.00    +0.000 A 
ATOM      9  C   UNL     1       1.914   3.257  18.567  0.00  0.00    +0.000 A 
ATOM     10  C   UNL     1       2.823   4.285  18.450  0.00  0.00    +0.000 A 
ATOM     11  C   UNL     1       3.641   4.659  17.250  0.00  0.00    +0.000 C 
BRANCH   9  12
ATOM     12  O   UNL     1       2.166   2.088  17.884  0.00  0.00    +0.000 OA
ATOM     13  C   UNL     1       3.302   1.415  18.470  0.00  0.00    +0.000 C 
ENDBRANCH   9  12
ENDBRANCH   1   2
BRANCH   1  14
ATOM     14  C   UNL     1       5.588   4.696  15.237  0.00  0.00    +0.000 C 
BRANCH  14  16
ATOM     15  C   UNL     1       7.209   4.804  13.240  0.00  0.00    +0.000 C 
ATOM     16  C   UNL     1       6.275   3.953  14.077  0.00  0.00    +0.000 C 
ENDBRANCH  14  16
ENDBRANCH   1  14
BRANCH   1  17
ATOM     17  C   UNL     1       7.342   5.435  16.788  0.00  0.00    +0.000 C 
BRANCH  17  18
ATOM     18  C   UNL     1       7.178   6.584  17.816  0.00  0.00    +0.000 C 
BRANCH  18  19
ATOM     19  C   UNL     1       7.728   7.933  17.337  0.00  0.00    +0.000 C 
BRANCH  19  20
ATOM     20  C   UNL     1       8.324   8.756  18.482  0.00  0.00    +0.000 C 
BRANCH  20  21
ATOM     21  N   UNL     1       8.753  10.070  18.069  0.00  0.00    +0.000 N 
ATOM     22  C   UNL     1       9.456  10.899  18.922  0.00  0.00    +0.000 C 
ATOM     23  O   UNL     1       9.649  10.639  20.106  0.00  0.00    +0.000 OA
ATOM     24  H   UNL     1       8.672  10.318  17.089  0.00  0.00    +0.000 HD
BRANCH  22  25
ATOM     25  C   UNL     1       9.931  12.168  18.309  0.00  0.00    +0.000 A 
ATOM     26  C   UNL     1      11.114  12.048  17.547  0.00  0.00    +0.000 A 
ATOM     27  C   UNL     1      11.729  13.156  16.966  0.00  0.00    +0.000 A 
ATOM     28  C   UNL     1      11.136  14.414  17.116  0.00  0.00    +0.000 A 
ATOM     29  C   UNL     1       9.955  14.539  17.847  0.00  0.00    +0.000 A 
ATOM     30  C   UNL     1       9.328  13.428  18.448  0.00  0.00    +0.000 A 
BRANCH  30  31
ATOM     31  O   UNL     1       8.267  13.806  19.223  0.00  0.00    +0.000 OA
ATOM     32  C   UNL     1       8.523  14.555  20.407  0.00  0.00    +0.000 C 
ENDBRANCH  30  31
ENDBRANCH  22  25
ENDBRANCH  20  21
ENDBRANCH  19  20
ENDBRANCH  18  19
ENDBRANCH  17  18
ENDBRANCH   1  17
TORSDOF 11
ENDMDL
MODEL 3
REMARK VINA RESULT:      -8.2      1.384      2.475
REMARK  Name = 
REMARK  14 active torsions:
REMARK  status: ('A' for Active; 'I' for Inactive)
REMARK    1  A    between atoms: C_1  and  C_2
REMARK    2  A    between atoms: C_2  and  C_3
REMARK    3  A    between atoms: C_3  and  N_4
REMARK    4  A    between atoms: N_4  and  C_5
REMARK    5  A    between atoms: N_4  and  C_20
REMARK    6  A    between atoms: C_5  and  C_6
REMARK    7  A    between atoms: C_6  and  C_7
REMARK    8  A    between atoms: C_7  and  C_8
REMARK    9  A    between atoms: C_8  and  N_9
REMARK   10  A    between atoms: C_10  and  C_12
REMARK   11  A    between atoms: C_17  and  O_18
REMARK   12  A    between atoms: O_18  and  C_19
REMARK   13  A    between atoms: C_27  and  O_28
REMARK   14  A    between atoms: O_28  and  C_29
REMARK                            x       y       z     vdW  Elec       q    Type
REMARK                         _______ _______ _______ _____ _____    ______ ____
ROOT
ATOM      1  N   UNL     1       6.106   5.398  16.919  0.00  0.00    +0.000 NA
ENDROOT
BRANCH   1   2
ATOM      2  C   UNL     1       4.947   5.408  17.865  0.00  0.00    +0.000 C 
ATOM      3  C   UNL     1       5.103   4.814  19.276  0.00  0.00    +0.000 C 
ATOM      4  O   UNL     1       4.010   5.392  20.084  0.00  0.00    +0.000 OA
ATOM      5  C   UNL     1       2.793   4.928  19.628  0.00  0.00    +0.000 A 
ATOM      6  C   UNL     1       1.712   4.827  20.490  0.00  0.00    +0.000 A 
ATOM      7  C   UNL     1       0.758   3.845  20.234  0.00  0.00    +0.000 A 
ATOM      8  C   UNL     1       1.006   2.917  19.221  0.00  0.00    +0.000 A 
ATOM      9  C   UNL     1       2.057   3.139  18.331  0.00  0.00    +0.000 A 
ATOM     10  C   UNL     1       2.750   4.327  18.382  0.00  0.00    +0.000 A 
ATOM     11  C   UNL     1       3.581   4.956  17.304  0.00  0.00    +0.000 C 
BRANCH   9  12
ATOM     12  O   UNL     1       2.596   2.105  17.597  0.00  0.00    +0.000 OA
ATOM     13  C   UNL     1       3.594   1.416  18.383  0.00  0.00    +0.000 C 
ENDBRANCH   9  12
ENDBRANCH   1   2
BRANCH   1  14
ATOM     14  C   UNL     1       5.740   4.756  15.629  0.00  0.00    +0.000 C 
BRANCH  14  16
ATOM     15  C   UNL     1       6.368   3.887  13.289  0.00  0.00    +0.000 C 
ATOM     16  C   UNL     1       6.822   4.603  14.544  0.00  0.00    +0.000 C 
ENDBRANCH  14  16
ENDBRANCH   1  14
BRANCH   1  17
ATOM     17  C   UNL     1       6.611   6.783  16.708  0.00  0.00    +0.000 C 
BRANCH  17  18
ATOM     18  C   UNL     1       7.596   7.306  17.785  0.00  0.00    +0.000 C 
BRANCH  18  19
ATOM     19  C   UNL     1       7.811   8.824  17.750  0.00  0.00    +0.000 C 
BRANCH  19  20
ATOM     20  C   UNL     1       8.942   9.272  18.678  0.00  0.00    +0.000 C 
BRANCH  20  21
ATOM     21  N   UNL     1       9.133  10.702  18.687  0.00  0.00    +0.000 N 
ATOM     22  C   UNL     1       9.388  11.386  19.860  0.00  0.00    +0.000 C 
ATOM     23  O   UNL     1       9.342  10.862  20.969  0.00  0.00    +0.000 OA
ATOM     24  H   UNL     1       9.236  11.180  17.799  0.00  0.00    +0.000 HD
BRANCH  22  25
ATOM     25  C   UNL     1       9.681  12.835  19.686  0.00  0.00    +0.000 A 
ATOM     26  C   UNL     1      10.467  13.404  20.712  0.00  0.00    +0.000 A 
ATOM     27  C   UNL     1      10.770  14.764  20.736  0.00  0.00    +0.000 A 
ATOM     28  C   UNL     1      10.308  15.577  19.696  0.00  0.00    +0.000 A 
ATOM     29  C   UNL     1       9.551  15.020  18.667  0.00  0.00    +0.000 A 
ATOM     30  C   UNL     1       9.229  13.648  18.636  0.00  0.00    +0.000 A 
BRANCH  30  31
ATOM     31  O   UNL     1       8.368  13.355  17.614  0.00  0.00    +0.000 OA
ATOM     32  C   UNL     1       7.077  13.955  17.621  0.00  0.00    +0.000 C 
ENDBRANCH  30  31
ENDBRANCH  22  25
ENDBRANCH  20  21
ENDBRANCH  19  20
ENDBRANCH  18  19
ENDBRANCH  17  18
ENDBRANCH   1  17
TORSDOF 11
ENDMDL
MODEL 4
REMARK VINA RESULT:      -7.9      1.191      1.362
REMARK  Name = 
REMARK  14 active torsions:
REMARK  status: ('A' for Active; 'I' for Inactive)
REMARK    1  A    between atoms: C_1  and  C_2
REMARK    2  A    between atoms: C_2  and  C_3
REMARK    3  A    between atoms: C_3  and  N_4
REMARK    4  A    between atoms: N_4  and  C_5
REMARK    5  A    between atoms: N_4  and  C_20
REMARK    6  A    between atoms: C_5  and  C_6
REMARK    7  A    between atoms: C_6  and  C_7
REMARK    8  A    between atoms: C_7  and  C_8
REMARK    9  A    between atoms: C_8  and  N_9
REMARK   10  A    between atoms: C_10  and  C_12
REMARK   11  A    between atoms: C_17  and  O_18
REMARK   12  A    between atoms: O_18  and  C_19
REMARK   13  A    between atoms: C_27  and  O_28
REMARK   14  A    between atoms: O_28  and  C_29
REMARK                            x       y       z     vdW  Elec       q    Type
REMARK                         _______ _______ _______ _____ _____    ______ ____
ROOT
ATOM      1  N   UNL     1       6.564   5.676  16.875  0.00  0.00    +0.000 NA
ENDROOT
BRANCH   1   2
ATOM      2  C   UNL     1       5.705   4.832  17.762  0.00  0.00    +0.000 C 
ATOM      3  C   UNL     1       4.472   4.116  17.183  0.00  0.00    +0.000 C 
ATOM      4  O   UNL     1       4.146   3.032  18.133  0.00  0.00    +0.000 OA
ATOM      5  C   UNL     1       3.723   3.570  19.331  0.00  0.00    +0.000 A 
ATOM      6  C   UNL     1       2.850   2.867  20.146  0.00  0.00    +0.000 A 
ATOM      7  C   UNL     1       1.985   3.593  20.961  0.00  0.00    +0.000 A 
ATOM      8  C   UNL     1       1.929   4.980  20.812  0.00  0.00    +0.000 A 
ATOM      9  C   UNL     1       2.904   5.627  20.052  0.00  0.00    +0.000 A 
ATOM     10  C   UNL     1       3.975   4.909  19.569  0.00  0.00    +0.000 A 
ATOM     11  C   UNL     1       5.311   5.431  19.131  0.00  0.00    +0.000 C 
BRANCH   9  12
ATOM     12  O   UNL     1       2.685   6.888  19.542  0.00  0.00    +0.000 OA
ATOM     13  C   UNL     1       2.227   6.789  18.175  0.00  0.00    +0.000 C 
ENDBRANCH   9  12
ENDBRANCH   1   2
BRANCH   1  14
ATOM     14  C   UNL     1       6.174   5.524  15.449  0.00  0.00    +0.000 C 
BRANCH  14  16
ATOM     15  C   UNL     1       6.174   3.852  13.492  0.00  0.00    +0.000 C 
ATOM     16  C   UNL     1       6.983   4.564  14.557  0.00  0.00    +0.000 C 
ENDBRANCH  14  16
ENDBRANCH   1  14
BRANCH   1  17
ATOM     17  C   UNL     1       6.503   7.101  17.302  0.00  0.00    +0.000 C 
BRANCH  17  18
ATOM     18  C   UNL     1       7.852   7.723  17.747  0.00  0.00    +0.000 C 
BRANCH  18  19
ATOM     19  C   UNL     1       7.878   9.255  17.699  0.00  0.00    +0.000 C 
BRANCH  19  20
ATOM     20  C   UNL     1       8.960   9.846  18.606  0.00  0.00    +0.000 C 
BRANCH  20  21
ATOM     21  N   UNL     1       9.104  11.273  18.459  0.00  0.00    +0.000 N 
ATOM     22  C   UNL     1      10.267  11.833  17.966  0.00  0.00    +0.000 C 
ATOM     23  O   UNL     1      11.285  11.185  17.746  0.00  0.00    +0.000 OA
ATOM     24  H   UNL     1       8.280  11.855  18.571  0.00  0.00    +0.000 HD
BRANCH  22  25
ATOM     25  C   UNL     1      10.213  13.306  17.760  0.00  0.00    +0.000 A 
ATOM     26  C   UNL     1      11.432  13.888  17.350  0.00  0.00    +0.000 A 
ATOM     27  C   UNL     1      11.568  15.265  17.183  0.00  0.00    +0.000 A 
ATOM     28  C   UNL     1      10.456  16.085  17.396  0.00  0.00    +0.000 A 
ATOM     29  C   UNL     1       9.241  15.516  17.778  0.00  0.00    +0.000 A 
ATOM     30  C   UNL     1       9.092  14.126  17.960  0.00  0.00    +0.000 A 
BRANCH  30  31
ATOM     31  O   UNL     1       7.861  13.813  18.465  0.00  0.00    +0.000 OA
ATOM     32  C   UNL     1       6.707  14.348  17.826  0.00  0.00    +0.000 C 
ENDBRANCH  30  31
ENDBRANCH  22  25
ENDBRANCH  20  21
ENDBRANCH  19  20
ENDBRANCH  18  19
ENDBRANCH  17  18
ENDBRANCH   1  17
TORSDOF 11
ENDMDL
MODEL 5
REMARK VINA RESULT:      -7.8      1.206      2.252
REMARK  Name = 
REMARK  14 active torsions:
REMARK  status: ('A' for Active; 'I' for Inactive)
REMARK    1  A    between atoms: C_1  and  C_2
REMARK    2  A    between atoms: C_2  and  C_3
REMARK    3  A    between atoms: C_3  and  N_4
REMARK    4  A    between atoms: N_4  and  C_5
REMARK    5  A    between atoms: N_4  and  C_20
REMARK    6  A    between atoms: C_5  and  C_6
REMARK    7  A    between atoms: C_6  and  C_7
REMARK    8  A    between atoms: C_7  and  C_8
REMARK    9  A    between atoms: C_8  and  N_9
REMARK   10  A    between atoms: C_10  and  C_12
REMARK   11  A    between atoms: C_17  and  O_18
REMARK   12  A    between atoms: O_18  and  C_19
REMARK   13  A    between atoms: C_27  and  O_28
REMARK   14  A    between atoms: O_28  and  C_29
REMARK                            x       y       z     vdW  Elec       q    Type
REMARK                         _______ _______ _______ _____ _____    ______ ____
ROOT
ATOM      1  N   UNL     1       6.177   5.536  17.449  0.00  0.00    +0.000 NA
ENDROOT
BRANCH   1   2
ATOM      2  C   UNL     1       4.867   5.420  18.162  0.00  0.00    +0.000 C 
ATOM      3  C   UNL     1       4.816   4.836  19.585  0.00  0.00    +0.000 C 
ATOM      4  O   UNL     1       3.537   5.293  20.167  0.00  0.00    +0.000 OA
ATOM      5  C   UNL     1       2.482   4.709  19.497  0.00  0.00    +0.000 A 
ATOM      6  C   UNL     1       1.275   4.492  20.144  0.00  0.00    +0.000 A 
ATOM      7  C   UNL     1       0.491   3.418  19.727  0.00  0.00    +0.000 A 
ATOM      8  C   UNL     1       1.019   2.527  18.791  0.00  0.00    +0.000 A 
ATOM      9  C   UNL     1       2.189   2.861  18.110  0.00  0.00    +0.000 A 
ATOM     10  C   UNL     1       2.735   4.115  18.274  0.00  0.00    +0.000 A 
ATOM     11  C   UNL     1       3.683   4.833  17.361  0.00  0.00    +0.000 C 
BRANCH   9  12
ATOM     12  O   UNL     1       2.959   1.893  17.504  0.00  0.00    +0.000 OA
ATOM     13  C   UNL     1       3.848   1.297  18.474  0.00  0.00    +0.000 C 
ENDBRANCH   9  12
ENDBRANCH   1   2
BRANCH   1  14
ATOM     14  C   UNL     1       6.240   4.610  16.289  0.00  0.00    +0.000 C 
BRANCH  14  16
ATOM     15  C   UNL     1       6.469   4.204  13.757  0.00  0.00    +0.000 C 
ATOM     16  C   UNL     1       6.200   5.200  14.867  0.00  0.00    +0.000 C 
ENDBRANCH  14  16
ENDBRANCH   1  14
BRANCH   1  17
ATOM     17  C   UNL     1       6.413   6.945  17.029  0.00  0.00    +0.000 C 
BRANCH  17  18
ATOM     18  C   UNL     1       7.762   7.560  17.482  0.00  0.00    +0.000 C 
BRANCH  18  19
ATOM     19  C   UNL     1       7.745   9.090  17.590  0.00  0.00    +0.000 C 
BRANCH  19  20
ATOM     20  C   UNL     1       8.739   9.609  18.632  0.00  0.00    +0.000 C 
BRANCH  20  21
ATOM     21  N   UNL     1       8.924  11.038  18.572  0.00  0.00    +0.000 N 
ATOM     22  C   UNL     1      10.055  11.595  18.007  0.00  0.00    +0.000 C 
ATOM     23  O   UNL     1      11.021  10.932  17.642  0.00  0.00    +0.000 OA
ATOM     24  H   UNL     1       8.139  11.637  18.807  0.00  0.00    +0.000 HD
BRANCH  22  25
ATOM     25  C   UNL     1      10.040  13.080  17.913  0.00  0.00    +0.000 A 
ATOM     26  C   UNL     1      10.980  13.623  17.010  0.00  0.00    +0.000 A 
ATOM     27  C   UNL     1      11.143  14.999  16.859  0.00  0.00    +0.000 A 
ATOM     28  C   UNL     1      10.328  15.861  17.598  0.00  0.00    +0.000 A 
ATOM     29  C   UNL     1       9.380  15.334  18.475  0.00  0.00    +0.000 A 
ATOM     30  C   UNL     1       9.211  13.945  18.645  0.00  0.00    +0.000 A 
BRANCH  30  31
ATOM     31  O   UNL     1       8.328  13.664  19.650  0.00  0.00    +0.000 OA
ATOM     32  C   UNL     1       7.476  14.704  20.117  0.00  0.00    +0.000 C 
ENDBRANCH  30  31
ENDBRANCH  22  25
ENDBRANCH  20  21
ENDBRANCH  19  20
ENDBRANCH  18  19
ENDBRANCH  17  18
ENDBRANCH   1  17
TORSDOF 11
ENDMDL
MODEL 6
REMARK VINA RESULT:      -7.8      1.410      2.763
REMARK  Name = 
REMARK  14 active torsions:
REMARK  status: ('A' for Active; 'I' for Inactive)
REMARK    1  A    between atoms: C_1  and  C_2
REMARK    2  A    between atoms: C_2  and  C_3
REMARK    3  A    between atoms: C_3  and  N_4
REMARK    4  A    between atoms: N_4  and  C_5
REMARK    5  A    between atoms: N_4  and  C_20
REMARK    6  A    between atoms: C_5  and  C_6
REMARK    7  A    between atoms: C_6  and  C_7
REMARK    8  A    between atoms: C_7  and  C_8
REMARK    9  A    between atoms: C_8  and  N_9
REMARK   10  A    between atoms: C_10  and  C_12
REMARK   11  A    between atoms: C_17  and  O_18
REMARK   12  A    between atoms: O_18  and  C_19
REMARK   13  A    between atoms: C_27  and  O_28
REMARK   14  A    between atoms: O_28  and  C_29
REMARK                            x       y       z     vdW  Elec       q    Type
REMARK                         _______ _______ _______ _____ _____    ______ ____
ROOT
ATOM      1  N   UNL     1       6.140   5.059  16.647  0.00  0.00    +0.000 NA
ENDROOT
BRANCH   1   2
ATOM      2  C   UNL     1       5.104   5.185  17.718  0.00  0.00    +0.000 C 
ATOM      3  C   UNL     1       5.340   4.538  19.095  0.00  0.00    +0.000 C 
ATOM      4  O   UNL     1       4.424   5.224  20.030  0.00  0.00    +0.000 OA
ATOM      5  C   UNL     1       3.116   4.924  19.709  0.00  0.00    +0.000 A 
ATOM      6  C   UNL     1       2.134   4.933  20.687  0.00  0.00    +0.000 A 
ATOM      7  C   UNL     1       1.042   4.083  20.528  0.00  0.00    +0.000 A 
ATOM      8  C   UNL     1       1.059   3.158  19.482  0.00  0.00    +0.000 A 
ATOM      9  C   UNL     1       2.024   3.274  18.481  0.00  0.00    +0.000 A 
ATOM     10  C   UNL     1       2.861   4.367  18.468  0.00  0.00    +0.000 A 
ATOM     11  C   UNL     1       3.638   4.919  17.311  0.00  0.00    +0.000 C 
BRANCH   9  12
ATOM     12  O   UNL     1       2.345   2.202  17.677  0.00  0.00    +0.000 OA
ATOM     13  C   UNL     1       3.456   1.477  18.250  0.00  0.00    +0.000 C 
ENDBRANCH   9  12
ENDBRANCH   1   2
BRANCH   1  14
ATOM     14  C   UNL     1       5.542   5.239  15.299  0.00  0.00    +0.000 C 
BRANCH  14  16
ATOM     15  C   UNL     1       7.113   4.518  13.392  0.00  0.00    +0.000 C 
ATOM     16  C   UNL     1       5.869   4.211  14.199  0.00  0.00    +0.000 C 
ENDBRANCH  14  16
ENDBRANCH   1  14
BRANCH   1  17
ATOM     17  C   UNL     1       7.244   6.030  16.881  0.00  0.00    +0.000 C 
BRANCH  17  18
ATOM     18  C   UNL     1       6.826   7.373  17.534  0.00  0.00    +0.000 C 
BRANCH  18  19
ATOM     19  C   UNL     1       7.987   8.143  18.174  0.00  0.00    +0.000 C 
BRANCH  19  20
ATOM     20  C   UNL     1       8.295   9.448  17.436  0.00  0.00    +0.000 C 
BRANCH  20  21
ATOM     21  N   UNL     1       8.985  10.413  18.257  0.00  0.00    +0.000 N 
ATOM     22  C   UNL     1       8.762  11.769  18.117  0.00  0.00    +0.000 C 
ATOM     23  O   UNL     1       8.078  12.249  17.218  0.00  0.00    +0.000 OA
ATOM     24  H   UNL     1       9.519  10.076  19.051  0.00  0.00    +0.000 HD
BRANCH  22  25
ATOM     25  C   UNL     1       9.456  12.623  19.118  0.00  0.00    +0.000 A 
ATOM     26  C   UNL     1       9.193  12.286  20.464  0.00  0.00    +0.000 A 
ATOM     27  C   UNL     1       9.709  13.033  21.521  0.00  0.00    +0.000 A 
ATOM     28  C   UNL     1      10.535  14.125  21.239  0.00  0.00    +0.000 A 
ATOM     29  C   UNL     1      10.820  14.451  19.913  0.00  0.00    +0.000 A 
ATOM     30  C   UNL     1      10.297  13.710  18.833  0.00  0.00    +0.000 A 
BRANCH  30  31
ATOM     31  O   UNL     1      10.594  14.292  17.632  0.00  0.00    +0.000 OA
ATOM     32  C   UNL     1      11.624  13.718  16.834  0.00  0.00    +0.000 C 
ENDBRANCH  30  31
ENDBRANCH  22  25
ENDBRANCH  20  21
ENDBRANCH  19  20
ENDBRANCH  18  19
ENDBRANCH  17  18
ENDBRANCH   1  17
TORSDOF 11
ENDMDL
MODEL 7
REMARK VINA RESULT:      -7.8      0.977      2.096
REMARK  Name = 
REMARK  14 active torsions:
REMARK  status: ('A' for Active; 'I' for Inactive)
REMARK    1  A    between atoms: C_1  and  C_2
REMARK    2  A    between atoms: C_2  and  C_3
REMARK    3  A    between atoms: C_3  and  N_4
REMARK    4  A    between atoms: N_4  and  C_5
REMARK    5  A    between atoms: N_4  and  C_20
REMARK    6  A    between atoms: C_5  and  C_6
REMARK    7  A    between atoms: C_6  and  C_7
REMARK    8  A    between atoms: C_7  and  C_8
REMARK    9  A    between atoms: C_8  and  N_9
REMARK   10  A    between atoms: C_10  and  C_12
REMARK   11  A    between atoms: C_17  and  O_18
REMARK   12  A    between atoms: O_18  and  C_19
REMARK   13  A    between atoms: C_27  and  O_28
REMARK   14  A    between atoms: O_28  and  C_29
REMARK                            x       y       z     vdW  Elec       q    Type
REMARK                         _______ _______ _______ _____ _____    ______ ____
ROOT
ATOM      1  N   UNL     1       5.980   5.303  17.006  0.00  0.00    +0.000 NA
ENDROOT
BRANCH   1   2
ATOM      2  C   UNL     1       4.713   5.297  17.799  0.00  0.00    +0.000 C 
ATOM      3  C   UNL     1       4.766   5.418  19.333  0.00  0.00    +0.000 C 
ATOM      4  O   UNL     1       3.421   5.860  19.754  0.00  0.00    +0.000 OA
ATOM      5  C   UNL     1       2.500   4.864  19.501  0.00  0.00    +0.000 A 
ATOM      6  C   UNL     1       1.353   4.757  20.272  0.00  0.00    +0.000 A 
ATOM      7  C   UNL     1       0.790   3.493  20.439  0.00  0.00    +0.000 A 
ATOM      8  C   UNL     1       1.484   2.382  19.957  0.00  0.00    +0.000 A 
ATOM      9  C   UNL     1       2.572   2.570  19.105  0.00  0.00    +0.000 A 
ATOM     10  C   UNL     1       2.868   3.836  18.651  0.00  0.00    +0.000 A 
ATOM     11  C   UNL     1       3.667   4.217  17.441  0.00  0.00    +0.000 C 
BRANCH   9  12
ATOM     12  O   UNL     1       3.516   1.582  18.931  0.00  0.00    +0.000 OA
ATOM     13  C   UNL     1       4.563   1.726  19.916  0.00  0.00    +0.000 C 
ENDBRANCH   9  12
ENDBRANCH   1   2
BRANCH   1  14
ATOM     14  C   UNL     1       5.775   5.925  15.672  0.00  0.00    +0.000 C 
BRANCH  14  16
ATOM     15  C   UNL     1       6.095   3.653  14.506  0.00  0.00    +0.000 C 
ATOM     16  C   UNL     1       6.233   5.159  14.417  0.00  0.00    +0.000 C 
ENDBRANCH  14  16
ENDBRANCH   1  14
BRANCH   1  17
ATOM     17  C   UNL     1       7.060   5.995  17.763  0.00  0.00    +0.000 C 
BRANCH  17  18
ATOM     18  C   UNL     1       7.696   7.217  17.054  0.00  0.00    +0.000 C 
BRANCH  18  19
ATOM     19  C   UNL     1       7.415   8.557  17.746  0.00  0.00    +0.000 C 
BRANCH  19  20
ATOM     20  C   UNL     1       8.626   9.070  18.529  0.00  0.00    +0.000 C 
BRANCH  20  21
ATOM     21  N   UNL     1       9.065  10.375  18.097  0.00  0.00    +0.000 N 
ATOM     22  C   UNL     1       9.491  11.327  19.003  0.00  0.00    +0.000 C 
ATOM     23  O   UNL     1       9.405  11.185  20.219  0.00  0.00    +0.000 OA
ATOM     24  H   UNL     1       9.209  10.532  17.105  0.00  0.00    +0.000 HD
BRANCH  22  25
ATOM     25  C   UNL     1      10.025  12.575  18.393  0.00  0.00    +0.000 A 
ATOM     26  C   UNL     1      10.981  12.369  17.374  0.00  0.00    +0.000 A 
ATOM     27  C   UNL     1      11.631  13.434  16.752  0.00  0.00    +0.000 A 
ATOM     28  C   UNL     1      11.300  14.740  17.127  0.00  0.00    +0.000 A 
ATOM     29  C   UNL     1      10.340  14.953  18.115  0.00  0.00    +0.000 A 
ATOM     30  C   UNL     1       9.682  13.885  18.760  0.00  0.00    +0.000 A 
BRANCH  30  31
ATOM     31  O   UNL     1       8.890  14.325  19.783  0.00  0.00    +0.000 OA
ATOM     32  C   UNL     1       7.550  14.709  19.490  0.00  0.00    +0.000 C 
ENDBRANCH  30  31
ENDBRANCH  22  25
ENDBRANCH  20  21
ENDBRANCH  19  20
ENDBRANCH  18  19
ENDBRANCH  17  18
ENDBRANCH   1  17
TORSDOF 11
ENDMDL
MODEL 8
REMARK VINA RESULT:      -7.8      1.511      2.737
REMARK  Name = 
REMARK  14 active torsions:
REMARK  status: ('A' for Active; 'I' for Inactive)
REMARK    1  A    between atoms: C_1  and  C_2
REMARK    2  A    between atoms: C_2  and  C_3
REMARK    3  A    between atoms: C_3  and  N_4
REMARK    4  A    between atoms: N_4  and  C_5
REMARK    5  A    between atoms: N_4  and  C_20
REMARK    6  A    between atoms: C_5  and  C_6
REMARK    7  A    between atoms: C_6  and  C_7
REMARK    8  A    between atoms: C_7  and  C_8
REMARK    9  A    between atoms: C_8  and  N_9
REMARK   10  A    between atoms: C_10  and  C_12
REMARK   11  A    between atoms: C_17  and  O_18
REMARK   12  A    between atoms: O_18  and  C_19
REMARK   13  A    between atoms: C_27  and  O_28
REMARK   14  A    between atoms: O_28  and  C_29
REMARK                            x       y       z     vdW  Elec       q    Type
REMARK                         _______ _______ _______ _____ _____    ______ ____
ROOT
ATOM      1  N   UNL     1       6.286   5.689  16.791  0.00  0.00    +0.000 NA
ENDROOT
BRANCH   1   2
ATOM      2  C   UNL     1       5.264   5.652  17.882  0.00  0.00    +0.000 C 
ATOM      3  C   UNL     1       5.434   4.678  19.062  0.00  0.00    +0.000 C 
ATOM      4  O   UNL     1       4.584   5.203  20.150  0.00  0.00    +0.000 OA
ATOM      5  C   UNL     1       3.254   5.111  19.793  0.00  0.00    +0.000 A 
ATOM      6  C   UNL     1       2.275   4.979  20.764  0.00  0.00    +0.000 A 
ATOM      7  C   UNL     1       1.108   4.295  20.430  0.00  0.00    +0.000 A 
ATOM      8  C   UNL     1       1.040   3.648  19.195  0.00  0.00    +0.000 A 
ATOM      9  C   UNL     1       2.014   3.908  18.231  0.00  0.00    +0.000 A 
ATOM     10  C   UNL     1       2.951   4.891  18.461  0.00  0.00    +0.000 A 
ATOM     11  C   UNL     1       3.780   5.627  17.452  0.00  0.00    +0.000 C 
BRANCH   9  12
ATOM     12  O   UNL     1       2.235   3.033  17.191  0.00  0.00    +0.000 OA
ATOM     13  C   UNL     1       3.100   1.961  17.628  0.00  0.00    +0.000 C 
ENDBRANCH   9  12
ENDBRANCH   1   2
BRANCH   1  14
ATOM     14  C   UNL     1       5.674   6.082  15.495  0.00  0.00    +0.000 C 
BRANCH  14  16
ATOM     15  C   UNL     1       6.246   3.707  14.683  0.00  0.00    +0.000 C 
ATOM     16  C   UNL     1       5.665   5.064  14.340  0.00  0.00    +0.000 C 
ENDBRANCH  14  16
ENDBRANCH   1  14
BRANCH   1  17
ATOM     17  C   UNL     1       7.401   6.603  17.160  0.00  0.00    +0.000 C 
BRANCH  17  18
ATOM     18  C   UNL     1       6.975   7.979  17.734  0.00  0.00    +0.000 C 
BRANCH  18  19
ATOM     19  C   UNL     1       8.047   9.068  17.605  0.00  0.00    +0.000 C 
BRANCH  19  20
ATOM     20  C   UNL     1       8.855   9.243  18.893  0.00  0.00    +0.000 C 
BRANCH  20  21
ATOM     21  N   UNL     1       9.392  10.572  19.047  0.00  0.00    +0.000 N 
ATOM     22  C   UNL     1       9.504  11.164  20.291  0.00  0.00    +0.000 C 
ATOM     23  O   UNL     1       9.046  10.669  21.316  0.00  0.00    +0.000 OA
ATOM     24  H   UNL     1       9.837  11.009  18.247  0.00  0.00    +0.000 HD
BRANCH  22  25
ATOM     25  C   UNL     1      10.189  12.485  20.294  0.00  0.00    +0.000 A 
ATOM     26  C   UNL     1       9.796  13.349  21.340  0.00  0.00    +0.000 A 
ATOM     27  C   UNL     1      10.290  14.649  21.443  0.00  0.00    +0.000 A 
ATOM     28  C   UNL     1      11.223  15.094  20.502  0.00  0.00    +0.000 A 
ATOM     29  C   UNL     1      11.635  14.239  19.479  0.00  0.00    +0.000 A 
ATOM     30  C   UNL     1      11.136  12.926  19.358  0.00  0.00    +0.000 A 
BRANCH  30  31
ATOM     31  O   UNL     1      11.572  12.326  18.209  0.00  0.00    +0.000 OA
ATOM     32  C   UNL     1      11.250  12.931  16.961  0.00  0.00    +0.000 C 
ENDBRANCH  30  31
ENDBRANCH  22  25
ENDBRANCH  20  21
ENDBRANCH  19  20
ENDBRANCH  18  19
ENDBRANCH  17  18
ENDBRANCH   1  17
TORSDOF 11
ENDMDL
MODEL 9
REMARK VINA RESULT:      -7.8      1.469      2.647
REMARK  Name = 
REMARK  14 active torsions:
REMARK  status: ('A' for Active; 'I' for Inactive)
REMARK    1  A    between atoms: C_1  and  C_2
REMARK    2  A    between atoms: C_2  and  C_3
REMARK    3  A    between atoms: C_3  and  N_4
REMARK    4  A    between atoms: N_4  and  C_5
REMARK    5  A    between atoms: N_4  and  C_20
REMARK    6  A    between atoms: C_5  and  C_6
REMARK    7  A    between atoms: C_6  and  C_7
REMARK    8  A    between atoms: C_7  and  C_8
REMARK    9  A    between atoms: C_8  and  N_9
REMARK   10  A    between atoms: C_10  and  C_12
REMARK   11  A    between atoms: C_17  and  O_18
REMARK   12  A    between atoms: O_18  and  C_19
REMARK   13  A    between atoms: C_27  and  O_28
REMARK   14  A    between atoms: O_28  and  C_29
REMARK                            x       y       z     vdW  Elec       q    Type
REMARK                         _______ _______ _______ _____ _____    ______ ____
ROOT
ATOM      1  N   UNL     1       6.483   5.036  16.808  0.00  0.00    +0.000 NA
ENDROOT
BRANCH   1   2
ATOM      2  C   UNL     1       5.378   5.211  17.800  0.00  0.00    +0.000 C 
ATOM      3  C   UNL     1       5.492   4.577  19.198  0.00  0.00    +0.000 C 
ATOM      4  O   UNL     1       4.535   5.306  20.056  0.00  0.00    +0.000 OA
ATOM      5  C   UNL     1       3.244   5.045  19.644  0.00  0.00    +0.000 A 
ATOM      6  C   UNL     1       2.195   5.101  20.548  0.00  0.00    +0.000 A 
ATOM      7  C   UNL     1       1.089   4.285  20.321  0.00  0.00    +0.000 A 
ATOM      8  C   UNL     1       1.150   3.346  19.290  0.00  0.00    +0.000 A 
ATOM      9  C   UNL     1       2.187   3.415  18.360  0.00  0.00    +0.000 A 
ATOM     10  C   UNL     1       3.060   4.480  18.395  0.00  0.00    +0.000 A 
ATOM     11  C   UNL     1       3.937   4.989  17.291  0.00  0.00    +0.000 C 
BRANCH   9  12
ATOM     12  O   UNL     1       2.528   2.322  17.594  0.00  0.00    +0.000 OA
ATOM     13  C   UNL     1       3.519   1.531  18.287  0.00  0.00    +0.000 C 
ENDBRANCH   9  12
ENDBRANCH   1   2
BRANCH   1  14
ATOM     14  C   UNL     1       5.965   5.064  15.416  0.00  0.00    +0.000 C 
BRANCH  14  16
ATOM     15  C   UNL     1       6.635   4.041  13.151  0.00  0.00    +0.000 C 
ATOM     16  C   UNL     1       6.101   3.800  14.548  0.00  0.00    +0.000 C 
ENDBRANCH  14  16
ENDBRANCH   1  14
BRANCH   1  17
ATOM     17  C   UNL     1       7.531   6.074  17.015  0.00  0.00    +0.000 C 
BRANCH  17  18
ATOM     18  C   UNL     1       7.034   7.414  17.617  0.00  0.00    +0.000 C 
BRANCH  18  19
ATOM     19  C   UNL     1       8.134   8.236  18.300  0.00  0.00    +0.000 C 
BRANCH  19  20
ATOM     20  C   UNL     1       8.307   9.617  17.663  0.00  0.00    +0.000 C 
BRANCH  20  21
ATOM     21  N   UNL     1       8.698  10.631  18.610  0.00  0.00    +0.000 N 
ATOM     22  C   UNL     1       9.788  11.449  18.381  0.00  0.00    +0.000 C 
ATOM     23  O   UNL     1      10.563  11.291  17.443  0.00  0.00    +0.000 OA
ATOM     24  H   UNL     1       8.067  10.846  19.375  0.00  0.00    +0.000 HD
BRANCH  22  25
ATOM     25  C   UNL     1       9.987  12.523  19.392  0.00  0.00    +0.000 A 
ATOM     26  C   UNL     1      10.618  13.686  18.899  0.00  0.00    +0.000 A 
ATOM     27  C   UNL     1      10.942  14.755  19.734  0.00  0.00    +0.000 A 
ATOM     28  C   UNL     1      10.600  14.683  21.088  0.00  0.00    +0.000 A 
ATOM     29  C   UNL     1       9.955  13.548  21.578  0.00  0.00    +0.000 A 
ATOM     30  C   UNL     1       9.631  12.455  20.748  0.00  0.00    +0.000 A 
BRANCH  30  31
ATOM     31  O   UNL     1       9.132  11.405  21.468  0.00  0.00    +0.000 OA
ATOM     32  C   UNL     1       8.193  11.676  22.503  0.00  0.00    +0.000 C 
ENDBRANCH  30  31
ENDBRANCH  22  25
ENDBRANCH  20  21
ENDBRANCH  19  20
ENDBRANCH  18  19
ENDBRANCH  17  18
ENDBRANCH   1  17
TORSDOF 11
ENDMDL
