MODEL 1
REMARK VINA RESULT:      -8.3      0.000      0.000
REMARK  Name = 
REMARK  12 active torsions:
REMARK  status: ('A' for Active; 'I' for Inactive)
REMARK    1  A    between atoms: C_1  and  C_2
REMARK    2  A    between atoms: C_4  and  C_5
REMARK    3  A    between atoms: C_6  and  C_7
REMARK    4  A    between atoms: C_7  and  N_8
REMARK    5  A    between atoms: N_8  and  C_9
REMARK    6  A    between atoms: N_12  and  C_13
REMARK    7  A    between atoms: C_13  and  C_14
REMARK    8  A    between atoms: C_14  and  C_15
REMARK    9  A    between atoms: C_14  and  C_16
REMARK   10  A    between atoms: C_14  and  C_17
REMARK   11  A    between atoms: C_17  and  C_18
REMARK   12  A    between atoms: C_27  and  C_28
REMARK                            x       y       z     vdW  Elec       q    Type
REMARK                         _______ _______ _______ _____ _____    ______ ____
ROOT
ATOM      1  C   UNL     1       2.896   4.371  18.360  0.00  0.00    +0.000 A 
ATOM      2  N   UNL     1       2.815   5.676  18.672  0.00  0.00    +0.000 NA
ATOM      3  C   UNL     1       2.319   6.017  19.867  0.00  0.00    +0.000 A 
ATOM      4  N   UNL     1       2.312   7.352  20.164  0.00  0.00    +0.000 N 
ATOM      5  N   UNL     1       1.862   5.139  20.752  0.00  0.00    +0.000 NA
ATOM      6  C   UNL     1       1.946   3.848  20.408  0.00  0.00    +0.000 A 
ATOM      7 CL   UNL     1       1.267   2.824  21.616  0.00  0.00    +0.000 Cl
ATOM      8  C   UNL     1       2.485   3.375  19.233  0.00  0.00    +0.000 A 
ATOM      9  C   UNL     1       2.518   1.927  18.859  0.00  0.00    +0.000 C 
ATOM     10  H   UNL     1       2.581   7.949  19.397  0.00  0.00    +0.000 HD
ENDROOT
BRANCH   1  11
ATOM     11  N   UNL     1       3.423   4.002  17.111  0.00  0.00    +0.000 N 
ATOM     12  H   UNL     1       2.801   3.327  16.672  0.00  0.00    +0.000 HD
BRANCH  11  13
ATOM     13  C   UNL     1       4.807   3.533  17.106  0.00  0.00    +0.000 C 
BRANCH  13  19
ATOM     14  C   UNL     1       7.992   7.735  17.898  0.00  0.00    +0.000 C 
ATOM     15  C   UNL     1       7.234   6.583  17.337  0.00  0.00    +0.000 A 
ATOM     16  N   UNL     1       7.296   6.203  16.080  0.00  0.00    +0.000 NA
ATOM     17  C   UNL     1       6.475   5.106  15.872  0.00  0.00    +0.000 A 
ATOM     18  C   UNL     1       6.404   4.527  14.504  0.00  0.00    +0.000 C 
ATOM     19  C   UNL     1       5.790   4.664  16.994  0.00  0.00    +0.000 A 
ATOM     20  S   UNL     1       6.196   5.650  18.339  0.00  0.00    +0.000 S 
ENDBRANCH  13  19
ENDBRANCH  11  13
ENDBRANCH   1  11
BRANCH   4  21
ATOM     21  C   UNL     1       1.684   7.888  21.353  0.00  0.00    +0.000 C 
BRANCH  21  22
ATOM     22  C   UNL     1       0.625   8.986  21.044  0.00  0.00    +0.000 C 
ATOM     23  C   UNL     1      -0.785   8.447  21.356  0.00  0.00    +0.000 C 
ATOM     24  C   UNL     1       0.903  10.237  21.898  0.00  0.00    +0.000 C 
BRANCH  22  25
ATOM     25  C   UNL     1       0.758   9.320  19.525  0.00  0.00    +0.000 C 
BRANCH  25  26
ATOM     26  C   UNL     1       0.321  10.700  19.088  0.00  0.00    +0.000 A 
ATOM     27  C   UNL     1      -1.021  10.972  18.816  0.00  0.00    +0.000 A 
ATOM     28  C   UNL     1      -1.378  12.258  18.422  0.00  0.00    +0.000 A 
ATOM     29  C   UNL     1      -0.399  13.239  18.320  0.00  0.00    +0.000 A 
ATOM     30  C   UNL     1       0.905  12.886  18.613  0.00  0.00    +0.000 A 
ATOM     31  N   UNL     1       1.283  11.648  18.995  0.00  0.00    +0.000 NA
ENDBRANCH  25  26
ENDBRANCH  22  25
ENDBRANCH  21  22
ENDBRANCH   4  21
TORSDOF 7
ENDMDL
MODEL 2
REMARK VINA RESULT:      -8.2      3.430      8.720
REMARK  Name = 
REMARK  12 active torsions:
REMARK  status: ('A' for Active; 'I' for Inactive)
REMARK    1  A    between atoms: C_1  and  C_2
REMARK    2  A    between atoms: C_4  and  C_5
REMARK    3  A    between atoms: C_6  and  C_7
REMARK    4  A    between atoms: C_7  and  N_8
REMARK    5  A    between atoms: N_8  and  C_9
REMARK    6  A    between atoms: N_12  and  C_13
REMARK    7  A    between atoms: C_13  and  C_14
REMARK    8  A    between atoms: C_14  and  C_15
REMARK    9  A    between atoms: C_14  and  C_16
REMARK   10  A    between atoms: C_14  and  C_17
REMARK   11  A    between atoms: C_17  and  C_18
REMARK   12  A    between atoms: C_27  and  C_28
REMARK                            x       y       z     vdW  Elec       q    Type
REMARK                         _______ _______ _______ _____ _____    ______ ____
ROOT
ATOM      1  C   UNL     1       0.333   9.829  18.781  0.00  0.00    +0.000 A 
ATOM      2  N   UNL     1       1.178   8.961  18.199  0.00  0.00    +0.000 NA
ATOM      3  C   UNL     1       1.921   8.170  18.980  0.00  0.00    +0.000 A 
ATOM      4  N   UNL     1       2.719   7.261  18.342  0.00  0.00    +0.000 N 
ATOM      5  N   UNL     1       1.903   8.220  20.307  0.00  0.00    +0.000 NA
ATOM      6  C   UNL     1       1.061   9.102  20.858  0.00  0.00    +0.000 A 
ATOM      7 CL   UNL     1       1.181   9.106  22.578  0.00  0.00    +0.000 Cl
ATOM      8  C   UNL     1       0.210   9.929  20.159  0.00  0.00    +0.000 A 
ATOM      9  C   UNL     1      -0.683  10.939  20.807  0.00  0.00    +0.000 C 
ATOM     10  H   UNL     1       2.745   7.364  17.340  0.00  0.00    +0.000 HD
ENDROOT
BRANCH   1  11
ATOM     11  N   UNL     1      -0.457  10.658  17.969  0.00  0.00    +0.000 N 
ATOM     12  H   UNL     1      -0.910  11.362  18.549  0.00  0.00    +0.000 HD
BRANCH  11  13
ATOM     13  C   UNL     1      -1.420   9.985  17.100  0.00  0.00    +0.000 C 
BRANCH  13  19
ATOM     14  C   UNL     1      -5.896  12.653  18.230  0.00  0.00    +0.000 C 
ATOM     15  C   UNL     1      -4.799  11.882  17.584  0.00  0.00    +0.000 A 
ATOM     16  N   UNL     1      -4.827  11.464  16.338  0.00  0.00    +0.000 NA
ATOM     17  C   UNL     1      -3.662  10.777  16.038  0.00  0.00    +0.000 A 
ATOM     18  C   UNL     1      -3.504  10.218  14.669  0.00  0.00    +0.000 C 
ATOM     19  C   UNL     1      -2.752  10.682  17.080  0.00  0.00    +0.000 A 
ATOM     20  S   UNL     1      -3.378  11.482  18.463  0.00  0.00    +0.000 S 
ENDBRANCH  13  19
ENDBRANCH  11  13
ENDBRANCH   1  11
BRANCH   4  21
ATOM     21  C   UNL     1       3.680   6.434  19.041  0.00  0.00    +0.000 C 
BRANCH  21  22
ATOM     22  C   UNL     1       4.519   5.532  18.089  0.00  0.00    +0.000 C 
ATOM     23  C   UNL     1       4.686   6.232  16.726  0.00  0.00    +0.000 C 
ATOM     24  C   UNL     1       5.904   5.264  18.708  0.00  0.00    +0.000 C 
BRANCH  22  25
ATOM     25  C   UNL     1       3.727   4.198  17.926  0.00  0.00    +0.000 C 
BRANCH  25  26
ATOM     26  C   UNL     1       2.889   3.751  19.102  0.00  0.00    +0.000 A 
ATOM     27  C   UNL     1       3.454   3.004  20.138  0.00  0.00    +0.000 A 
ATOM     28  C   UNL     1       2.645   2.619  21.204  0.00  0.00    +0.000 A 
ATOM     29  C   UNL     1       1.308   2.995  21.218  0.00  0.00    +0.000 A 
ATOM     30  C   UNL     1       0.831   3.739  20.155  0.00  0.00    +0.000 A 
ATOM     31  N   UNL     1       1.588   4.124  19.106  0.00  0.00    +0.000 NA
ENDBRANCH  25  26
ENDBRANCH  22  25
ENDBRANCH  21  22
ENDBRANCH   4  21
TORSDOF 7
ENDMDL
MODEL 3
REMARK VINA RESULT:      -8.2      1.788      2.639
REMARK  Name = 
REMARK  12 active torsions:
REMARK  status: ('A' for Active; 'I' for Inactive)
REMARK    1  A    between atoms: C_1  and  C_2
REMARK    2  A    between atoms: C_4  and  C_5
REMARK    3  A    between atoms: C_6  and  C_7
REMARK    4  A    between atoms: C_7  and  N_8
REMARK    5  A    between atoms: N_8  and  C_9
REMARK    6  A    between atoms: N_12  and  C_13
REMARK    7  A    between atoms: C_13  and  C_14
REMARK    8  A    between atoms: C_14  and  C_15
REMARK    9  A    between atoms: C_14  and  C_16
REMARK   10  A    between atoms: C_14  and  C_17
REMARK   11  A    between atoms: C_17  and  C_18
REMARK   12  A    between atoms: C_27  and  C_28
REMARK                            x       y       z     vdW  Elec       q    Type
REMARK                         _______ _______ _______ _____ _____    ______ ____
ROOT
ATOM      1  C   UNL     1       4.013   3.882  19.400  0.00  0.00    +0.000 A 
ATOM      2  N   UNL     1       3.723   5.086  19.923  0.00  0.00    +0.000 NA
ATOM      3  C   UNL     1       2.442   5.388  20.162  0.00  0.00    +0.000 A 
ATOM      4  N   UNL     1       2.202   6.599  20.750  0.00  0.00    +0.000 N 
ATOM      5  N   UNL     1       1.430   4.580  19.873  0.00  0.00    +0.000 NA
ATOM      6  C   UNL     1       1.748   3.392  19.343  0.00  0.00    +0.000 A 
ATOM      7 CL   UNL     1       0.343   2.469  18.964  0.00  0.00    +0.000 Cl
ATOM      8  C   UNL     1       3.029   2.950  19.104  0.00  0.00    +0.000 A 
ATOM      9  C   UNL     1       3.347   1.635  18.464  0.00  0.00    +0.000 C 
ATOM     10  H   UNL     1       3.017   7.186  20.838  0.00  0.00    +0.000 HD
ENDROOT
BRANCH   1  11
ATOM     11  N   UNL     1       5.355   3.552  19.154  0.00  0.00    +0.000 N 
ATOM     12  H   UNL     1       5.706   2.983  19.922  0.00  0.00    +0.000 HD
BRANCH  11  13
ATOM     13  C   UNL     1       6.253   4.668  18.865  0.00  0.00    +0.000 C 
BRANCH  13  19
ATOM     14  C   UNL     1       6.507   4.214  13.559  0.00  0.00    +0.000 C 
ATOM     15  C   UNL     1       6.599   4.661  14.976  0.00  0.00    +0.000 A 
ATOM     16  N   UNL     1       7.155   5.789  15.358  0.00  0.00    +0.000 NA
ATOM     17  C   UNL     1       7.084   5.915  16.736  0.00  0.00    +0.000 A 
ATOM     18  C   UNL     1       7.667   7.130  17.365  0.00  0.00    +0.000 C 
ATOM     19  C   UNL     1       6.465   4.860  17.390  0.00  0.00    +0.000 A 
ATOM     20  S   UNL     1       5.957   3.691  16.241  0.00  0.00    +0.000 S 
ENDBRANCH  13  19
ENDBRANCH  11  13
ENDBRANCH   1  11
BRANCH   4  21
ATOM     21  C   UNL     1       0.869   7.127  20.944  0.00  0.00    +0.000 C 
BRANCH  21  22
ATOM     22  C   UNL     1       0.833   8.679  21.050  0.00  0.00    +0.000 C 
ATOM     23  C   UNL     1       1.755   9.142  22.194  0.00  0.00    +0.000 C 
ATOM     24  C   UNL     1       1.298   9.306  19.722  0.00  0.00    +0.000 C 
BRANCH  22  25
ATOM     25  C   UNL     1      -0.648   9.072  21.349  0.00  0.00    +0.000 C 
BRANCH  25  26
ATOM     26  C   UNL     1      -0.932  10.537  21.590  0.00  0.00    +0.000 A 
ATOM     27  C   UNL     1      -1.047  11.039  22.888  0.00  0.00    +0.000 A 
ATOM     28  C   UNL     1      -1.303  12.396  23.061  0.00  0.00    +0.000 A 
ATOM     29  C   UNL     1      -1.426  13.217  21.947  0.00  0.00    +0.000 A 
ATOM     30  C   UNL     1      -1.292  12.640  20.698  0.00  0.00    +0.000 A 
ATOM     31  N   UNL     1      -1.047  11.328  20.497  0.00  0.00    +0.000 NA
ENDBRANCH  25  26
ENDBRANCH  22  25
ENDBRANCH  21  22
ENDBRANCH   4  21
TORSDOF 7
ENDMDL
MODEL 4
REMARK VINA RESULT:      -8.0      3.581      6.248
REMARK  Name = 
REMARK  12 active torsions:
REMARK  status: ('A' for Active; 'I' for Inactive)
REMARK    1  A    between atoms: C_1  and  C_2
REMARK    2  A    between atoms: C_4  and  C_5
REMARK    3  A    between atoms: C_6  and  C_7
REMARK    4  A    between atoms: C_7  and  N_8
REMARK    5  A    between atoms: N_8  and  C_9
REMARK    6  A    between atoms: N_12  and  C_13
REMARK    7  A    between atoms: C_13  and  C_14
REMARK    8  A    between atoms: C_14  and  C_15
REMARK    9  A    between atoms: C_14  and  C_16
REMARK   10  A    between atoms: C_14  and  C_17
REMARK   11  A    between atoms: C_17  and  C_18
REMARK   12  A    between atoms: C_27  and  C_28
REMARK                            x       y       z     vdW  Elec       q    Type
REMARK                         _______ _______ _______ _____ _____    ______ ____
ROOT
ATOM      1  C   UNL     1       0.778   9.210  20.472  0.00  0.00    +0.000 A 
ATOM      2  N   UNL     1       0.360   9.487  19.225  0.00  0.00    +0.000 NA
ATOM      3  C   UNL     1      -0.589  10.416  19.060  0.00  0.00    +0.000 A 
ATOM      4  N   UNL     1      -0.938  10.707  17.771  0.00  0.00    +0.000 N 
ATOM      5  N   UNL     1      -1.175  11.054  20.066  0.00  0.00    +0.000 NA
ATOM      6  C   UNL     1      -0.746  10.750  21.296  0.00  0.00    +0.000 A 
ATOM      7 CL   UNL     1      -1.628  11.604  22.506  0.00  0.00    +0.000 Cl
ATOM      8  C   UNL     1       0.259   9.854  21.585  0.00  0.00    +0.000 A 
ATOM      9  C   UNL     1       0.680   9.500  22.976  0.00  0.00    +0.000 C 
ATOM     10  H   UNL     1      -0.518  10.103  17.081  0.00  0.00    +0.000 HD
ENDROOT
BRANCH   1  11
ATOM     11  N   UNL     1       1.780   8.243  20.654  0.00  0.00    +0.000 N 
ATOM     12  H   UNL     1       2.524   8.636  21.227  0.00  0.00    +0.000 HD
BRANCH  11  13
ATOM     13  C   UNL     1       2.312   7.626  19.441  0.00  0.00    +0.000 C 
BRANCH  13  19
ATOM     14  C   UNL     1       2.467   2.533  21.011  0.00  0.00    +0.000 C 
ATOM     15  C   UNL     1       2.678   3.842  20.336  0.00  0.00    +0.000 A 
ATOM     16  N   UNL     1       3.551   4.043  19.373  0.00  0.00    +0.000 NA
ATOM     17  C   UNL     1       3.508   5.364  18.957  0.00  0.00    +0.000 A 
ATOM     18  C   UNL     1       4.430   5.793  17.872  0.00  0.00    +0.000 C 
ATOM     19  C   UNL     1       2.588   6.160  19.623  0.00  0.00    +0.000 A 
ATOM     20  S   UNL     1       1.756   5.219  20.792  0.00  0.00    +0.000 S 
ENDBRANCH  13  19
ENDBRANCH  11  13
ENDBRANCH   1  11
BRANCH   4  21
ATOM     21  C   UNL     1      -2.040  11.583  17.435  0.00  0.00    +0.000 C 
BRANCH  21  22
ATOM     22  C   UNL     1      -3.250  10.833  16.806  0.00  0.00    +0.000 C 
ATOM     23  C   UNL     1      -2.957  10.528  15.324  0.00  0.00    +0.000 C 
ATOM     24  C   UNL     1      -3.503   9.517  17.566  0.00  0.00    +0.000 C 
BRANCH  22  25
ATOM     25  C   UNL     1      -4.481  11.784  16.935  0.00  0.00    +0.000 C 
BRANCH  25  26
ATOM     26  C   UNL     1      -5.264  11.717  18.227  0.00  0.00    +0.000 A 
ATOM     27  C   UNL     1      -6.447  10.979  18.308  0.00  0.00    +0.000 A 
ATOM     28  C   UNL     1      -7.131  10.942  19.520  0.00  0.00    +0.000 A 
ATOM     29  C   UNL     1      -6.619  11.624  20.616  0.00  0.00    +0.000 A 
ATOM     30  C   UNL     1      -5.439  12.325  20.451  0.00  0.00    +0.000 A 
ATOM     31  N   UNL     1      -4.754  12.384  19.289  0.00  0.00    +0.000 NA
ENDBRANCH  25  26
ENDBRANCH  22  25
ENDBRANCH  21  22
ENDBRANCH   4  21
TORSDOF 7
ENDMDL
MODEL 5
REMARK VINA RESULT:      -7.9      1.207      1.219
REMARK  Name = 
REMARK  12 active torsions:
REMARK  status: ('A' for Active; 'I' for Inactive)
REMARK    1  A    between atoms: C_1  and  C_2
REMARK    2  A    between atoms: C_4  and  C_5
REMARK    3  A    between atoms: C_6  and  C_7
REMARK    4  A    between atoms: C_7  and  N_8
REMARK    5  A    between atoms: N_8  and  C_9
REMARK    6  A    between atoms: N_12  and  C_13
REMARK    7  A    between atoms: C_13  and  C_14
REMARK    8  A    between atoms: C_14  and  C_15
REMARK    9  A    between atoms: C_14  and  C_16
REMARK   10  A    between atoms: C_14  and  C_17
REMARK   11  A    between atoms: C_17  and  C_18
REMARK   12  A    between atoms: C_27  and  C_28
REMARK                            x       y       z     vdW  Elec       q    Type
REMARK                         _______ _______ _______ _____ _____    ______ ____
ROOT
ATOM      1  C   UNL     1       4.072   3.870  19.406  0.00  0.00    +0.000 A 
ATOM      2  N   UNL     1       3.761   5.082  19.897  0.00  0.00    +0.000 NA
ATOM      3  C   UNL     1       2.477   5.357  20.155  0.00  0.00    +0.000 A 
ATOM      4  N   UNL     1       2.217   6.580  20.710  0.00  0.00    +0.000 N 
ATOM      5  N   UNL     1       1.482   4.513  19.915  0.00  0.00    +0.000 NA
ATOM      6  C   UNL     1       1.820   3.318  19.417  0.00  0.00    +0.000 A 
ATOM      7 CL   UNL     1       0.433   2.346  19.099  0.00  0.00    +0.000 Cl
ATOM      8  C   UNL     1       3.108   2.902  19.162  0.00  0.00    +0.000 A 
ATOM      9  C   UNL     1       3.448   1.577  18.557  0.00  0.00    +0.000 C 
ATOM     10  H   UNL     1       3.017   7.191  20.760  0.00  0.00    +0.000 HD
ENDROOT
BRANCH   1  11
ATOM     11  N   UNL     1       5.417   3.568  19.140  0.00  0.00    +0.000 N 
ATOM     12  H   UNL     1       6.011   4.115  19.759  0.00  0.00    +0.000 HD
BRANCH  11  13
ATOM     13  C   UNL     1       5.844   3.691  17.747  0.00  0.00    +0.000 C 
BRANCH  13  19
ATOM     14  C   UNL     1       8.236   8.447  18.022  0.00  0.00    +0.000 C 
ATOM     15  C   UNL     1       7.608   7.171  17.586  0.00  0.00    +0.000 A 
ATOM     16  N   UNL     1       7.442   6.823  16.329  0.00  0.00    +0.000 NA
ATOM     17  C   UNL     1       6.827   5.584  16.254  0.00  0.00    +0.000 A 
ATOM     18  C   UNL     1       6.547   5.015  14.908  0.00  0.00    +0.000 C 
ATOM     19  C   UNL     1       6.530   5.000  17.476  0.00  0.00    +0.000 A 
ATOM     20  S   UNL     1       7.044   6.035  18.745  0.00  0.00    +0.000 S 
ENDBRANCH  13  19
ENDBRANCH  11  13
ENDBRANCH   1  11
BRANCH   4  21
ATOM     21  C   UNL     1       0.874   7.077  20.917  0.00  0.00    +0.000 C 
BRANCH  21  22
ATOM     22  C   UNL     1       0.815   8.621  21.110  0.00  0.00    +0.000 C 
ATOM     23  C   UNL     1      -0.592   9.029  21.589  0.00  0.00    +0.000 C 
ATOM     24  C   UNL     1       1.865   9.060  22.148  0.00  0.00    +0.000 C 
BRANCH  22  25
ATOM     25  C   UNL     1       1.124   9.256  19.718  0.00  0.00    +0.000 C 
BRANCH  25  26
ATOM     26  C   UNL     1       0.297  10.456  19.315  0.00  0.00    +0.000 A 
ATOM     27  C   UNL     1      -0.755  10.326  18.406  0.00  0.00    +0.000 A 
ATOM     28  C   UNL     1      -1.492  11.457  18.069  0.00  0.00    +0.000 A 
ATOM     29  C   UNL     1      -1.175  12.679  18.650  0.00  0.00    +0.000 A 
ATOM     30  C   UNL     1      -0.122  12.718  19.545  0.00  0.00    +0.000 A 
ATOM     31  N   UNL     1       0.614  11.641  19.889  0.00  0.00    +0.000 NA
ENDBRANCH  25  26
ENDBRANCH  22  25
ENDBRANCH  21  22
ENDBRANCH   4  21
TORSDOF 7
ENDMDL
MODEL 6
REMARK VINA RESULT:      -7.9      3.416      8.842
REMARK  Name = 
REMARK  12 active torsions:
REMARK  status: ('A' for Active; 'I' for Inactive)
REMARK    1  A    between atoms: C_1  and  C_2
REMARK    2  A    between atoms: C_4  and  C_5
REMARK    3  A    between atoms: C_6  and  C_7
REMARK    4  A    between atoms: C_7  and  N_8
REMARK    5  A    between atoms: N_8  and  C_9
REMARK    6  A    between atoms: N_12  and  C_13
REMARK    7  A    between atoms: C_13  and  C_14
REMARK    8  A    between atoms: C_14  and  C_15
REMARK    9  A    between atoms: C_14  and  C_16
REMARK   10  A    between atoms: C_14  and  C_17
REMARK   11  A    between atoms: C_17  and  C_18
REMARK   12  A    between atoms: C_27  and  C_28
REMARK                            x       y       z     vdW  Elec       q    Type
REMARK                         _______ _______ _______ _____ _____    ______ ____
ROOT
ATOM      1  C   UNL     1       0.170  10.205  19.169  0.00  0.00    +0.000 A 
ATOM      2  N   UNL     1       0.945   9.283  18.573  0.00  0.00    +0.000 NA
ATOM      3  C   UNL     1       1.586   8.394  19.341  0.00  0.00    +0.000 A 
ATOM      4  N   UNL     1       2.313   7.438  18.687  0.00  0.00    +0.000 N 
ATOM      5  N   UNL     1       1.533   8.394  20.667  0.00  0.00    +0.000 NA
ATOM      6  C   UNL     1       0.762   9.331  21.233  0.00  0.00    +0.000 A 
ATOM      7 CL   UNL     1       0.830   9.256  22.953  0.00  0.00    +0.000 Cl
ATOM      8  C   UNL     1       0.015  10.262  20.546  0.00  0.00    +0.000 A 
ATOM      9  C   UNL     1      -0.798  11.327  21.212  0.00  0.00    +0.000 C 
ATOM     10  H   UNL     1       2.379   7.577  17.691  0.00  0.00    +0.000 HD
ENDROOT
BRANCH   1  11
ATOM     11  N   UNL     1      -0.513  11.138  18.372  0.00  0.00    +0.000 N 
ATOM     12  H   UNL     1      -1.084  11.733  18.968  0.00  0.00    +0.000 HD
BRANCH  11  13
ATOM     13  C   UNL     1      -1.293  10.592  17.263  0.00  0.00    +0.000 C 
BRANCH  13  19
ATOM     14  C   UNL     1      -6.110  12.478  18.553  0.00  0.00    +0.000 C 
ATOM     15  C   UNL     1      -4.923  11.899  17.867  0.00  0.00    +0.000 A 
ATOM     16  N   UNL     1      -4.924  11.476  16.623  0.00  0.00    +0.000 NA
ATOM     17  C   UNL     1      -3.671  10.992  16.281  0.00  0.00    +0.000 A 
ATOM     18  C   UNL     1      -3.471  10.461  14.907  0.00  0.00    +0.000 C 
ATOM     19  C   UNL     1      -2.722  11.056  17.290  0.00  0.00    +0.000 A 
ATOM     20  S   UNL     1      -3.425  11.746  18.695  0.00  0.00    +0.000 S 
ENDBRANCH  13  19
ENDBRANCH  11  13
ENDBRANCH   1  11
BRANCH   4  21
ATOM     21  C   UNL     1       3.169   6.496  19.375  0.00  0.00    +0.000 C 
BRANCH  21  22
ATOM     22  C   UNL     1       2.652   5.030  19.301  0.00  0.00    +0.000 C 
ATOM     23  C   UNL     1       1.649   4.776  20.442  0.00  0.00    +0.000 C 
ATOM     24  C   UNL     1       1.968   4.784  17.943  0.00  0.00    +0.000 C 
BRANCH  22  25
ATOM     25  C   UNL     1       3.902   4.108  19.457  0.00  0.00    +0.000 C 
BRANCH  25  26
ATOM     26  C   UNL     1       5.135   4.489  18.670  0.00  0.00    +0.000 A 
ATOM     27  C   UNL     1       6.179   5.192  19.275  0.00  0.00    +0.000 A 
ATOM     28  C   UNL     1       7.298   5.516  18.513  0.00  0.00    +0.000 A 
ATOM     29  C   UNL     1       7.356   5.125  17.181  0.00  0.00    +0.000 A 
ATOM     30  C   UNL     1       6.281   4.427  16.663  0.00  0.00    +0.000 A 
ATOM     31  N   UNL     1       5.182   4.100  17.374  0.00  0.00    +0.000 NA
ENDBRANCH  25  26
ENDBRANCH  22  25
ENDBRANCH  21  22
ENDBRANCH   4  21
TORSDOF 7
ENDMDL
MODEL 7
REMARK VINA RESULT:      -7.9      1.876      2.359
REMARK  Name = 
REMARK  12 active torsions:
REMARK  status: ('A' for Active; 'I' for Inactive)
REMARK    1  A    between atoms: C_1  and  C_2
REMARK    2  A    between atoms: C_4  and  C_5
REMARK    3  A    between atoms: C_6  and  C_7
REMARK    4  A    between atoms: C_7  and  N_8
REMARK    5  A    between atoms: N_8  and  C_9
REMARK    6  A    between atoms: N_12  and  C_13
REMARK    7  A    between atoms: C_13  and  C_14
REMARK    8  A    between atoms: C_14  and  C_15
REMARK    9  A    between atoms: C_14  and  C_16
REMARK   10  A    between atoms: C_14  and  C_17
REMARK   11  A    between atoms: C_17  and  C_18
REMARK   12  A    between atoms: C_27  and  C_28
REMARK                            x       y       z     vdW  Elec       q    Type
REMARK                         _______ _______ _______ _____ _____    ______ ____
ROOT
ATOM      1  C   UNL     1       4.205   4.084  19.289  0.00  0.00    +0.000 A 
ATOM      2  N   UNL     1       3.884   5.325  19.695  0.00  0.00    +0.000 NA
ATOM      3  C   UNL     1       2.595   5.616  19.903  0.00  0.00    +0.000 A 
ATOM      4  N   UNL     1       2.323   6.871  20.373  0.00  0.00    +0.000 N 
ATOM      5  N   UNL     1       1.604   4.758  19.693  0.00  0.00    +0.000 NA
ATOM      6  C   UNL     1       1.953   3.534  19.278  0.00  0.00    +0.000 A 
ATOM      7 CL   UNL     1       0.573   2.544  18.988  0.00  0.00    +0.000 Cl
ATOM      8  C   UNL     1       3.247   3.104  19.082  0.00  0.00    +0.000 A 
ATOM      9  C   UNL     1       3.599   1.743  18.571  0.00  0.00    +0.000 C 
ATOM     10  H   UNL     1       3.123   7.484  20.405  0.00  0.00    +0.000 HD
ENDROOT
BRANCH   1  11
ATOM     11  N   UNL     1       5.556   3.767  19.076  0.00  0.00    +0.000 N 
ATOM     12  H   UNL     1       6.123   4.220  19.790  0.00  0.00    +0.000 HD
BRANCH  11  13
ATOM     13  C   UNL     1       6.079   4.029  17.736  0.00  0.00    +0.000 C 
BRANCH  13  19
ATOM     14  C   UNL     1       8.523   8.740  18.240  0.00  0.00    +0.000 C 
ATOM     15  C   UNL     1       7.681   7.589  17.814  0.00  0.00    +0.000 A 
ATOM     16  N   UNL     1       6.838   7.625  16.806  0.00  0.00    +0.000 NA
ATOM     17  C   UNL     1       6.206   6.400  16.668  0.00  0.00    +0.000 A 
ATOM     18  C   UNL     1       5.206   6.240  15.579  0.00  0.00    +0.000 C 
ATOM     19  C   UNL     1       6.586   5.436  17.589  0.00  0.00    +0.000 A 
ATOM     20  S   UNL     1       7.769   6.089  18.647  0.00  0.00    +0.000 S 
ENDBRANCH  13  19
ENDBRANCH  11  13
ENDBRANCH   1  11
BRANCH   4  21
ATOM     21  C   UNL     1       0.976   7.381  20.516  0.00  0.00    +0.000 C 
BRANCH  21  22
ATOM     22  C   UNL     1       0.859   8.901  20.201  0.00  0.00    +0.000 C 
ATOM     23  C   UNL     1       1.835   9.271  19.068  0.00  0.00    +0.000 C 
ATOM     24  C   UNL     1      -0.583   9.238  19.776  0.00  0.00    +0.000 C 
BRANCH  22  25
ATOM     25  C   UNL     1       1.232   9.658  21.514  0.00  0.00    +0.000 C 
BRANCH  25  26
ATOM     26  C   UNL     1       0.291  10.752  21.963  0.00  0.00    +0.000 A 
ATOM     27  C   UNL     1      -0.791  10.465  22.798  0.00  0.00    +0.000 A 
ATOM     28  C   UNL     1      -1.628  11.506  23.191  0.00  0.00    +0.000 A 
ATOM     29  C   UNL     1      -1.363  12.798  22.757  0.00  0.00    +0.000 A 
ATOM     30  C   UNL     1      -0.267  12.996  21.938  0.00  0.00    +0.000 A 
ATOM     31  N   UNL     1       0.561  12.008  21.537  0.00  0.00    +0.000 NA
ENDBRANCH  25  26
ENDBRANCH  22  25
ENDBRANCH  21  22
ENDBRANCH   4  21
TORSDOF 7
ENDMDL
MODEL 8
REMARK VINA RESULT:      -7.9      2.102      7.400
REMARK  Name = 
REMARK  12 active torsions:
REMARK  status: ('A' for Active; 'I' for Inactive)
REMARK    1  A    between atoms: C_1  and  C_2
REMARK    2  A    between atoms: C_4  and  C_5
REMARK    3  A    between atoms: C_6  and  C_7
REMARK    4  A    between atoms: C_7  and  N_8
REMARK    5  A    between atoms: N_8  and  C_9
REMARK    6  A    between atoms: N_12  and  C_13
REMARK    7  A    between atoms: C_13  and  C_14
REMARK    8  A    between atoms: C_14  and  C_15
REMARK    9  A    between atoms: C_14  and  C_16
REMARK   10  A    between atoms: C_14  and  C_17
REMARK   11  A    between atoms: C_17  and  C_18
REMARK   12  A    between atoms: C_27  and  C_28
REMARK                            x       y       z     vdW  Elec       q    Type
REMARK                         _______ _______ _______ _____ _____    ______ ____
ROOT
ATOM      1  C   UNL     1       2.344   5.027  19.721  0.00  0.00    +0.000 A 
ATOM      2  N   UNL     1       2.751   5.217  18.453  0.00  0.00    +0.000 NA
ATOM      3  C   UNL     1       3.578   4.319  17.906  0.00  0.00    +0.000 A 
ATOM      4  N   UNL     1       3.915   4.521  16.597  0.00  0.00    +0.000 N 
ATOM      5  N   UNL     1       4.056   3.266  18.559  0.00  0.00    +0.000 NA
ATOM      6  C   UNL     1       3.642   3.109  19.822  0.00  0.00    +0.000 A 
ATOM      7 CL   UNL     1       4.382   1.743  20.568  0.00  0.00    +0.000 Cl
ATOM      8  C   UNL     1       2.753   3.936  20.472  0.00  0.00    +0.000 A 
ATOM      9  C   UNL     1       2.350   3.759  21.902  0.00  0.00    +0.000 C 
ATOM     10  H   UNL     1       3.590   5.396  16.215  0.00  0.00    +0.000 HD
ENDROOT
BRANCH   1  11
ATOM     11  N   UNL     1       1.469   5.960  20.301  0.00  0.00    +0.000 N 
ATOM     12  H   UNL     1       0.674   6.103  19.681  0.00  0.00    +0.000 HD
BRANCH  11  13
ATOM     13  C   UNL     1       2.059   7.232  20.712  0.00  0.00    +0.000 C 
BRANCH  13  19
ATOM     14  C   UNL     1      -1.225  11.346  19.867  0.00  0.00    +0.000 C 
ATOM     15  C   UNL     1      -0.195  10.277  19.765  0.00  0.00    +0.000 A 
ATOM     16  N   UNL     1       0.542  10.063  18.697  0.00  0.00    +0.000 NA
ATOM     17  C   UNL     1       1.402   8.999  18.916  0.00  0.00    +0.000 A 
ATOM     18  C   UNL     1       2.320   8.596  17.817  0.00  0.00    +0.000 C 
ATOM     19  C   UNL     1       1.303   8.411  20.168  0.00  0.00    +0.000 A 
ATOM     20  S   UNL     1       0.104   9.223  21.089  0.00  0.00    +0.000 S 
ENDBRANCH  13  19
ENDBRANCH  11  13
ENDBRANCH   1  11
BRANCH   4  21
ATOM     21  C   UNL     1       4.905   3.720  15.909  0.00  0.00    +0.000 C 
BRANCH  21  22
ATOM     22  C   UNL     1       5.786   4.544  14.925  0.00  0.00    +0.000 C 
ATOM     23  C   UNL     1       5.763   3.884  13.533  0.00  0.00    +0.000 C 
ATOM     24  C   UNL     1       5.251   5.985  14.826  0.00  0.00    +0.000 C 
BRANCH  22  25
ATOM     25  C   UNL     1       7.233   4.537  15.510  0.00  0.00    +0.000 C 
BRANCH  25  26
ATOM     26  C   UNL     1       7.481   5.394  16.731  0.00  0.00    +0.000 A 
ATOM     27  C   UNL     1       7.614   4.815  17.995  0.00  0.00    +0.000 A 
ATOM     28  C   UNL     1       7.848   5.642  19.089  0.00  0.00    +0.000 A 
ATOM     29  C   UNL     1       7.954   7.014  18.900  0.00  0.00    +0.000 A 
ATOM     30  C   UNL     1       7.816   7.504  17.614  0.00  0.00    +0.000 A 
ATOM     31  N   UNL     1       7.585   6.729  16.534  0.00  0.00    +0.000 NA
ENDBRANCH  25  26
ENDBRANCH  22  25
ENDBRANCH  21  22
ENDBRANCH   4  21
TORSDOF 7
ENDMDL
MODEL 9
REMARK VINA RESULT:      -7.8      1.538      1.817
REMARK  Name = 
REMARK  12 active torsions:
REMARK  status: ('A' for Active; 'I' for Inactive)
REMARK    1  A    between atoms: C_1  and  C_2
REMARK    2  A    between atoms: C_4  and  C_5
REMARK    3  A    between atoms: C_6  and  C_7
REMARK    4  A    between atoms: C_7  and  N_8
REMARK    5  A    between atoms: N_8  and  C_9
REMARK    6  A    between atoms: N_12  and  C_13
REMARK    7  A    between atoms: C_13  and  C_14
REMARK    8  A    between atoms: C_14  and  C_15
REMARK    9  A    between atoms: C_14  and  C_16
REMARK   10  A    between atoms: C_14  and  C_17
REMARK   11  A    between atoms: C_17  and  C_18
REMARK   12  A    between atoms: C_27  and  C_28
REMARK                            x       y       z     vdW  Elec       q    Type
REMARK                         _______ _______ _______ _____ _____    ______ ____
ROOT
ATOM      1  C   UNL     1       4.183   3.932  19.215  0.00  0.00    +0.000 A 
ATOM      2  N   UNL     1       3.893   5.141  19.726  0.00  0.00    +0.000 NA
ATOM      3  C   UNL     1       2.616   5.429  20.001  0.00  0.00    +0.000 A 
ATOM      4  N   UNL     1       2.378   6.647  20.576  0.00  0.00    +0.000 N 
ATOM      5  N   UNL     1       1.607   4.602  19.759  0.00  0.00    +0.000 NA
ATOM      6  C   UNL     1       1.925   3.410  19.239  0.00  0.00    +0.000 A 
ATOM      7 CL   UNL     1       0.522   2.461  18.921  0.00  0.00    +0.000 Cl
ATOM      8  C   UNL     1       3.204   2.981  18.966  0.00  0.00    +0.000 A 
ATOM      9  C   UNL     1       3.520   1.660  18.339  0.00  0.00    +0.000 C 
ATOM     10  H   UNL     1       3.187   7.247  20.627  0.00  0.00    +0.000 HD
ENDROOT
BRANCH   1  11
ATOM     11  N   UNL     1       5.522   3.616  18.931  0.00  0.00    +0.000 N 
ATOM     12  H   UNL     1       6.121   4.026  19.645  0.00  0.00    +0.000 HD
BRANCH  11  13
ATOM     13  C   UNL     1       5.994   3.946  17.588  0.00  0.00    +0.000 C 
BRANCH  13  19
ATOM     14  C   UNL     1       8.438   8.628  18.320  0.00  0.00    +0.000 C 
ATOM     15  C   UNL     1       7.612   7.493  17.827  0.00  0.00    +0.000 A 
ATOM     16  N   UNL     1       6.818   7.558  16.782  0.00  0.00    +0.000 NA
ATOM     17  C   UNL     1       6.186   6.341  16.584  0.00  0.00    +0.000 A 
ATOM     18  C   UNL     1       5.238   6.214  15.445  0.00  0.00    +0.000 C 
ATOM     19  C   UNL     1       6.516   5.353  17.499  0.00  0.00    +0.000 A 
ATOM     20  S   UNL     1       7.650   5.972  18.628  0.00  0.00    +0.000 S 
ENDBRANCH  13  19
ENDBRANCH  11  13
ENDBRANCH   1  11
BRANCH   4  21
ATOM     21  C   UNL     1       1.044   7.159  20.804  0.00  0.00    +0.000 C 
BRANCH  21  22
ATOM     22  C   UNL     1       0.987   8.713  20.874  0.00  0.00    +0.000 C 
ATOM     23  C   UNL     1       1.660   9.198  22.173  0.00  0.00    +0.000 C 
ATOM     24  C   UNL     1       1.711   9.319  19.657  0.00  0.00    +0.000 C 
BRANCH  22  25
ATOM     25  C   UNL     1      -0.523   9.106  20.862  0.00  0.00    +0.000 C 
BRANCH  25  26
ATOM     26  C   UNL     1      -0.866  10.490  20.360  0.00  0.00    +0.000 A 
ATOM     27  C   UNL     1      -0.699  11.609  21.179  0.00  0.00    +0.000 A 
ATOM     28  C   UNL     1      -1.022  12.864  20.672  0.00  0.00    +0.000 A 
ATOM     29  C   UNL     1      -1.489  12.976  19.369  0.00  0.00    +0.000 A 
ATOM     30  C   UNL     1      -1.620  11.819  18.624  0.00  0.00    +0.000 A 
ATOM     31  N   UNL     1      -1.318  10.588  19.087  0.00  0.00    +0.000 NA
ENDBRANCH  25  26
ENDBRANCH  22  25
ENDBRANCH  21  22
ENDBRANCH   4  21
TORSDOF 7
ENDMDL
