MODEL 1
REMARK VINA RESULT:      -7.0      0.000      0.000
REMARK  Name = 
REMARK  5 active torsions:
REMARK  status: ('A' for Active; 'I' for Inactive)
REMARK    1  A    between atoms: C_1  and  C_2
REMARK    2  A    between atoms: N_4  and  C_5
REMARK    3  A    between atoms: C_5  and  C_6
REMARK    4  A    between atoms: C_14  and  C_15
REMARK    5  A    between atoms: C_15  and  O_17
REMARK                            x       y       z     vdW  Elec       q    Type
REMARK                         _______ _______ _______ _____ _____    ______ ____
ROOT
ATOM      1  C   UNL     1       7.941   6.382  18.751  0.00  0.00    +0.000 C 
ATOM      2  C   UNL     1       6.806   5.465  18.463  0.00  0.00    +0.000 A 
ATOM      3  N   UNL     1       6.285   4.726  19.453  0.00  0.00    +0.000 NA
ATOM      4  N   UNL     1       5.284   4.032  18.863  0.00  0.00    +0.000 N 
ATOM      5  C   UNL     1       5.148   4.356  17.543  0.00  0.00    +0.000 A 
ATOM      6 CL   UNL     1       3.895   3.672  16.609  0.00  0.00    +0.000 Cl
ATOM      7  C   UNL     1       6.160   5.231  17.212  0.00  0.00    +0.000 A 
ENDROOT
BRANCH   7   8
ATOM      8  C   UNL     1       6.514   5.799  15.924  0.00  0.00    +0.000 C 
ATOM      9  O   UNL     1       7.605   5.631  15.397  0.00  0.00    +0.000 OA
BRANCH   8  10
ATOM     10  O   UNL     1       5.539   6.508  15.299  0.00  0.00    +0.000 OA
ATOM     11  H   UNL     1       5.381   7.384  15.701  0.00  0.00    +0.000 HD
ENDBRANCH   8  10
ENDBRANCH   7   8
BRANCH   4  12
ATOM     12  C   UNL     1       4.657   2.939  19.598  0.00  0.00    +0.000 C 
BRANCH  12  13
ATOM     13  C   UNL     1       3.182   3.134  19.842  0.00  0.00    +0.000 A 
ATOM     14  C   UNL     1       2.717   4.301  20.470  0.00  0.00    +0.000 A 
ATOM     15  C   UNL     1       1.347   4.546  20.587  0.00  0.00    +0.000 A 
ATOM     16  C   UNL     1       0.427   3.628  20.082  0.00  0.00    +0.000 A 
ATOM     17  C   UNL     1       0.876   2.456  19.477  0.00  0.00    +0.000 A 
ATOM     18  C   UNL     1       2.245   2.209  19.359  0.00  0.00    +0.000 A 
ENDBRANCH  12  13
ENDBRANCH   4  12
TORSDOF 4
ENDMDL
MODEL 2
REMARK VINA RESULT:      -6.8      3.231      5.939
REMARK  Name = 
REMARK  5 active torsions:
REMARK  status: ('A' for Active; 'I' for Inactive)
REMARK    1  A    between atoms: C_1  and  C_2
REMARK    2  A    between atoms: N_4  and  C_5
REMARK    3  A    between atoms: C_5  and  C_6
REMARK    4  A    between atoms: C_14  and  C_15
REMARK    5  A    between atoms: C_15  and  O_17
REMARK                            x       y       z     vdW  Elec       q    Type
REMARK                         _______ _______ _______ _____ _____    ______ ____
ROOT
ATOM      1  C   UNL     1       1.530   6.146  20.823  0.00  0.00    +0.000 C 
ATOM      2  C   UNL     1       2.268   5.269  19.875  0.00  0.00    +0.000 A 
ATOM      3  N   UNL     1       3.223   5.794  19.093  0.00  0.00    +0.000 NA
ATOM      4  N   UNL     1       3.689   4.742  18.380  0.00  0.00    +0.000 N 
ATOM      5  C   UNL     1       3.074   3.574  18.732  0.00  0.00    +0.000 A 
ATOM      6 CL   UNL     1       3.556   2.096  18.030  0.00  0.00    +0.000 Cl
ATOM      7  C   UNL     1       2.089   3.870  19.649  0.00  0.00    +0.000 A 
ENDROOT
BRANCH   7   8
ATOM      8  C   UNL     1       1.097   3.004  20.261  0.00  0.00    +0.000 C 
ATOM      9  O   UNL     1       1.128   2.683  21.441  0.00  0.00    +0.000 OA
BRANCH   8  10
ATOM     10  O   UNL     1       0.089   2.592  19.452  0.00  0.00    +0.000 OA
ATOM     11  H   UNL     1       0.375   1.946  18.777  0.00  0.00    +0.000 HD
ENDBRANCH   8  10
ENDBRANCH   7   8
BRANCH   4  12
ATOM     12  C   UNL     1       4.574   4.995  17.248  0.00  0.00    +0.000 C 
BRANCH  12  13
ATOM     13  C   UNL     1       5.860   5.687  17.622  0.00  0.00    +0.000 A 
ATOM     14  C   UNL     1       6.197   6.919  17.039  0.00  0.00    +0.000 A 
ATOM     15  C   UNL     1       7.322   7.625  17.472  0.00  0.00    +0.000 A 
ATOM     16  C   UNL     1       8.125   7.106  18.486  0.00  0.00    +0.000 A 
ATOM     17  C   UNL     1       7.815   5.873  19.056  0.00  0.00    +0.000 A 
ATOM     18  C   UNL     1       6.690   5.166  18.626  0.00  0.00    +0.000 A 
ENDBRANCH  12  13
ENDBRANCH   4  12
TORSDOF 4
ENDMDL
MODEL 3
REMARK VINA RESULT:      -6.7      3.138      5.950
REMARK  Name = 
REMARK  5 active torsions:
REMARK  status: ('A' for Active; 'I' for Inactive)
REMARK    1  A    between atoms: C_1  and  C_2
REMARK    2  A    between atoms: N_4  and  C_5
REMARK    3  A    between atoms: C_5  and  C_6
REMARK    4  A    between atoms: C_14  and  C_15
REMARK    5  A    between atoms: C_15  and  O_17
REMARK                            x       y       z     vdW  Elec       q    Type
REMARK                         _______ _______ _______ _____ _____    ______ ____
ROOT
ATOM      1  C   UNL     1       1.692   5.931  20.681  0.00  0.00    +0.000 C 
ATOM      2  C   UNL     1       2.422   5.043  19.737  0.00  0.00    +0.000 A 
ATOM      3  N   UNL     1       3.514   5.501  19.108  0.00  0.00    +0.000 NA
ATOM      4  N   UNL     1       3.928   4.457  18.352  0.00  0.00    +0.000 N 
ATOM      5  C   UNL     1       3.142   3.354  18.531  0.00  0.00    +0.000 A 
ATOM      6 CL   UNL     1       3.520   1.886  17.749  0.00  0.00    +0.000 Cl
ATOM      7  C   UNL     1       2.104   3.701  19.367  0.00  0.00    +0.000 A 
ENDROOT
BRANCH   7   8
ATOM      8  C   UNL     1       0.953   2.925  19.793  0.00  0.00    +0.000 C 
ATOM      9  O   UNL     1       0.215   2.341  19.012  0.00  0.00    +0.000 OA
BRANCH   8  10
ATOM     10  O   UNL     1       0.754   2.844  21.133  0.00  0.00    +0.000 OA
ATOM     11  H   UNL     1       1.288   3.485  21.642  0.00  0.00    +0.000 HD
ENDBRANCH   8  10
ENDBRANCH   7   8
BRANCH   4  12
ATOM     12  C   UNL     1       4.958   4.682  17.344  0.00  0.00    +0.000 C 
BRANCH  12  13
ATOM     13  C   UNL     1       6.026   5.657  17.769  0.00  0.00    +0.000 A 
ATOM     14  C   UNL     1       6.961   5.299  18.753  0.00  0.00    +0.000 A 
ATOM     15  C   UNL     1       8.027   6.147  19.061  0.00  0.00    +0.000 A 
ATOM     16  C   UNL     1       8.168   7.363  18.395  0.00  0.00    +0.000 A 
ATOM     17  C   UNL     1       7.234   7.741  17.433  0.00  0.00    +0.000 A 
ATOM     18  C   UNL     1       6.167   6.894  17.122  0.00  0.00    +0.000 A 
ENDBRANCH  12  13
ENDBRANCH   4  12
TORSDOF 4
ENDMDL
MODEL 4
REMARK VINA RESULT:      -6.6      3.914      5.234
REMARK  Name = 
REMARK  5 active torsions:
REMARK  status: ('A' for Active; 'I' for Inactive)
REMARK    1  A    between atoms: C_1  and  C_2
REMARK    2  A    between atoms: N_4  and  C_5
REMARK    3  A    between atoms: C_5  and  C_6
REMARK    4  A    between atoms: C_14  and  C_15
REMARK    5  A    between atoms: C_15  and  O_17
REMARK                            x       y       z     vdW  Elec       q    Type
REMARK                         _______ _______ _______ _____ _____    ______ ____
ROOT
ATOM      1  C   UNL     1       1.219   2.307  18.580  0.00  0.00    +0.000 C 
ATOM      2  C   UNL     1       2.272   3.357  18.616  0.00  0.00    +0.000 A 
ATOM      3  N   UNL     1       1.981   4.600  18.209  0.00  0.00    +0.000 NA
ATOM      4  N   UNL     1       3.134   5.289  18.382  0.00  0.00    +0.000 N 
ATOM      5  C   UNL     1       4.117   4.511  18.924  0.00  0.00    +0.000 A 
ATOM      6 CL   UNL     1       5.636   5.181  19.315  0.00  0.00    +0.000 Cl
ATOM      7  C   UNL     1       3.632   3.225  19.030  0.00  0.00    +0.000 A 
ENDROOT
BRANCH   7   8
ATOM      8  C   UNL     1       4.305   2.010  19.454  0.00  0.00    +0.000 C 
ATOM      9  O   UNL     1       4.885   1.907  20.526  0.00  0.00    +0.000 OA
BRANCH   8  10
ATOM     10  O   UNL     1       4.222   0.957  18.602  0.00  0.00    +0.000 OA
ATOM     11  H   UNL     1       3.766   1.172  17.766  0.00  0.00    +0.000 HD
ENDBRANCH   8  10
ENDBRANCH   7   8
BRANCH   4  12
ATOM     12  C   UNL     1       3.249   6.625  17.808  0.00  0.00    +0.000 C 
BRANCH  12  13
ATOM     13  C   UNL     1       2.448   7.674  18.536  0.00  0.00    +0.000 A 
ATOM     14  C   UNL     1       1.882   8.749  17.832  0.00  0.00    +0.000 A 
ATOM     15  C   UNL     1       1.035   9.653  18.477  0.00  0.00    +0.000 A 
ATOM     16  C   UNL     1       0.749   9.497  19.832  0.00  0.00    +0.000 A 
ATOM     17  C   UNL     1       1.322   8.448  20.548  0.00  0.00    +0.000 A 
ATOM     18  C   UNL     1       2.168   7.542  19.905  0.00  0.00    +0.000 A 
ENDBRANCH  12  13
ENDBRANCH   4  12
TORSDOF 4
ENDMDL
MODEL 5
REMARK VINA RESULT:      -6.6      1.884      2.104
REMARK  Name = 
REMARK  5 active torsions:
REMARK  status: ('A' for Active; 'I' for Inactive)
REMARK    1  A    between atoms: C_1  and  C_2
REMARK    2  A    between atoms: N_4  and  C_5
REMARK    3  A    between atoms: C_5  and  C_6
REMARK    4  A    between atoms: C_14  and  C_15
REMARK    5  A    between atoms: C_15  and  O_17
REMARK                            x       y       z     vdW  Elec       q    Type
REMARK                         _______ _______ _______ _____ _____    ______ ____
ROOT
ATOM      1  C   UNL     1       7.040   7.594  17.424  0.00  0.00    +0.000 C 
ATOM      2  C   UNL     1       5.874   6.675  17.347  0.00  0.00    +0.000 A 
ATOM      3  N   UNL     1       4.663   7.107  17.728  0.00  0.00    +0.000 NA
ATOM      4  N   UNL     1       3.847   6.047  17.520  0.00  0.00    +0.000 N 
ATOM      5  C   UNL     1       4.517   4.985  16.982  0.00  0.00    +0.000 A 
ATOM      6 CL   UNL     1       3.681   3.562  16.552  0.00  0.00    +0.000 Cl
ATOM      7  C   UNL     1       5.853   5.314  16.915  0.00  0.00    +0.000 A 
ENDROOT
BRANCH   7   8
ATOM      8  C   UNL     1       6.991   4.507  16.510  0.00  0.00    +0.000 C 
ATOM      9  O   UNL     1       7.966   4.322  17.224  0.00  0.00    +0.000 OA
BRANCH   8  10
ATOM     10  O   UNL     1       6.899   3.922  15.289  0.00  0.00    +0.000 OA
ATOM     11  H   UNL     1       7.543   4.272  14.644  0.00  0.00    +0.000 HD
ENDBRANCH   8  10
ENDBRANCH   7   8
BRANCH   4  12
ATOM     12  C   UNL     1       2.492   6.085  18.060  0.00  0.00    +0.000 C 
BRANCH  12  13
ATOM     13  C   UNL     1       2.203   4.997  19.061  0.00  0.00    +0.000 A 
ATOM     14  C   UNL     1       2.718   5.078  20.365  0.00  0.00    +0.000 A 
ATOM     15  C   UNL     1       2.352   4.140  21.333  0.00  0.00    +0.000 A 
ATOM     16  C   UNL     1       1.473   3.108  21.009  0.00  0.00    +0.000 A 
ATOM     17  C   UNL     1       0.973   3.002  19.712  0.00  0.00    +0.000 A 
ATOM     18  C   UNL     1       1.337   3.940  18.743  0.00  0.00    +0.000 A 
ENDBRANCH  12  13
ENDBRANCH   4  12
TORSDOF 4
ENDMDL
MODEL 6
REMARK VINA RESULT:      -6.6      3.329      6.055
REMARK  Name = 
REMARK  5 active torsions:
REMARK  status: ('A' for Active; 'I' for Inactive)
REMARK    1  A    between atoms: C_1  and  C_2
REMARK    2  A    between atoms: N_4  and  C_5
REMARK    3  A    between atoms: C_5  and  C_6
REMARK    4  A    between atoms: C_14  and  C_15
REMARK    5  A    between atoms: C_15  and  O_17
REMARK                            x       y       z     vdW  Elec       q    Type
REMARK                         _______ _______ _______ _____ _____    ______ ____
ROOT
ATOM      1  C   UNL     1       1.710   6.255  20.558  0.00  0.00    +0.000 C 
ATOM      2  C   UNL     1       2.665   5.193  20.143  0.00  0.00    +0.000 A 
ATOM      3  N   UNL     1       3.744   5.520  19.417  0.00  0.00    +0.000 NA
ATOM      4  N   UNL     1       4.390   4.346  19.229  0.00  0.00    +0.000 N 
ATOM      5  C   UNL     1       3.759   3.309  19.856  0.00  0.00    +0.000 A 
ATOM      6 CL   UNL     1       4.435   1.743  19.834  0.00  0.00    +0.000 Cl
ATOM      7  C   UNL     1       2.592   3.792  20.406  0.00  0.00    +0.000 A 
ENDROOT
BRANCH   7   8
ATOM      8  C   UNL     1       1.526   3.085  21.093  0.00  0.00    +0.000 C 
ATOM      9  O   UNL     1       1.663   2.580  22.199  0.00  0.00    +0.000 OA
BRANCH   8  10
ATOM     10  O   UNL     1       0.330   3.044  20.452  0.00  0.00    +0.000 OA
ATOM     11  H   UNL     1      -0.296   2.405  20.843  0.00  0.00    +0.000 HD
ENDBRANCH   8  10
ENDBRANCH   7   8
BRANCH   4  12
ATOM     12  C   UNL     1       5.485   4.291  18.266  0.00  0.00    +0.000 C 
BRANCH  12  13
ATOM     13  C   UNL     1       6.307   5.553  18.203  0.00  0.00    +0.000 A 
ATOM     14  C   UNL     1       7.403   5.729  19.063  0.00  0.00    +0.000 A 
ATOM     15  C   UNL     1       8.243   6.836  18.926  0.00  0.00    +0.000 A 
ATOM     16  C   UNL     1       7.995   7.782  17.933  0.00  0.00    +0.000 A 
ATOM     17  C   UNL     1       6.897   7.632  17.088  0.00  0.00    +0.000 A 
ATOM     18  C   UNL     1       6.056   6.525  17.223  0.00  0.00    +0.000 A 
ENDBRANCH  12  13
ENDBRANCH   4  12
TORSDOF 4
ENDMDL
MODEL 7
REMARK VINA RESULT:      -6.5      1.160      1.445
REMARK  Name = 
REMARK  5 active torsions:
REMARK  status: ('A' for Active; 'I' for Inactive)
REMARK    1  A    between atoms: C_1  and  C_2
REMARK    2  A    between atoms: N_4  and  C_5
REMARK    3  A    between atoms: C_5  and  C_6
REMARK    4  A    between atoms: C_14  and  C_15
REMARK    5  A    between atoms: C_15  and  O_17
REMARK                            x       y       z     vdW  Elec       q    Type
REMARK                         _______ _______ _______ _____ _____    ______ ____
ROOT
ATOM      1  C   UNL     1       7.571   5.696  19.595  0.00  0.00    +0.000 C 
ATOM      2  C   UNL     1       6.588   5.081  18.664  0.00  0.00    +0.000 A 
ATOM      3  N   UNL     1       5.692   4.201  19.133  0.00  0.00    +0.000 NA
ATOM      4  N   UNL     1       4.960   3.855  18.048  0.00  0.00    +0.000 N 
ATOM      5  C   UNL     1       5.356   4.532  16.929  0.00  0.00    +0.000 A 
ATOM      6 CL   UNL     1       4.523   4.328  15.455  0.00  0.00    +0.000 Cl
ATOM      7  C   UNL     1       6.459   5.290  17.257  0.00  0.00    +0.000 A 
ENDROOT
BRANCH   7   8
ATOM      8  C   UNL     1       7.306   6.113  16.413  0.00  0.00    +0.000 C 
ATOM      9  O   UNL     1       7.702   7.222  16.742  0.00  0.00    +0.000 OA
BRANCH   8  10
ATOM     10  O   UNL     1       7.680   5.562  15.230  0.00  0.00    +0.000 OA
ATOM     11  H   UNL     1       8.067   4.670  15.325  0.00  0.00    +0.000 HD
ENDBRANCH   8  10
ENDBRANCH   7   8
BRANCH   4  12
ATOM     12  C   UNL     1       4.046   2.723  18.147  0.00  0.00    +0.000 C 
BRANCH  12  13
ATOM     13  C   UNL     1       3.021   2.859  19.243  0.00  0.00    +0.000 A 
ATOM     14  C   UNL     1       3.315   2.425  20.546  0.00  0.00    +0.000 A 
ATOM     15  C   UNL     1       2.420   2.662  21.592  0.00  0.00    +0.000 A 
ATOM     16  C   UNL     1       1.221   3.330  21.348  0.00  0.00    +0.000 A 
ATOM     17  C   UNL     1       0.907   3.745  20.056  0.00  0.00    +0.000 A 
ATOM     18  C   UNL     1       1.800   3.510  19.008  0.00  0.00    +0.000 A 
ENDBRANCH  12  13
ENDBRANCH   4  12
TORSDOF 4
ENDMDL
MODEL 8
REMARK VINA RESULT:      -6.5      3.120      5.916
REMARK  Name = 
REMARK  5 active torsions:
REMARK  status: ('A' for Active; 'I' for Inactive)
REMARK    1  A    between atoms: C_1  and  C_2
REMARK    2  A    between atoms: N_4  and  C_5
REMARK    3  A    between atoms: C_5  and  C_6
REMARK    4  A    between atoms: C_14  and  C_15
REMARK    5  A    between atoms: C_15  and  O_17
REMARK                            x       y       z     vdW  Elec       q    Type
REMARK                         _______ _______ _______ _____ _____    ______ ____
ROOT
ATOM      1  C   UNL     1       2.740   1.669  19.073  0.00  0.00    +0.000 C 
ATOM      2  C   UNL     1       2.984   3.054  18.589  0.00  0.00    +0.000 A 
ATOM      3  N   UNL     1       3.869   3.265  17.604  0.00  0.00    +0.000 NA
ATOM      4  N   UNL     1       3.836   4.604  17.405  0.00  0.00    +0.000 N 
ATOM      5  C   UNL     1       2.923   5.218  18.214  0.00  0.00    +0.000 A 
ATOM      6 CL   UNL     1       2.640   6.895  18.084  0.00  0.00    +0.000 Cl
ATOM      7  C   UNL     1       2.391   4.266  19.056  0.00  0.00    +0.000 A 
ENDROOT
BRANCH   7   8
ATOM      8  C   UNL     1       1.455   4.416  20.157  0.00  0.00    +0.000 C 
ATOM      9  O   UNL     1       1.533   5.316  20.981  0.00  0.00    +0.000 OA
BRANCH   8  10
ATOM     10  O   UNL     1       0.445   3.511  20.204  0.00  0.00    +0.000 OA
ATOM     11  H   UNL     1      -0.418   3.908  20.431  0.00  0.00    +0.000 HD
ENDBRANCH   8  10
ENDBRANCH   7   8
BRANCH   4  12
ATOM     12  C   UNL     1       4.861   5.216  16.566  0.00  0.00    +0.000 C 
BRANCH  12  13
ATOM     13  C   UNL     1       5.969   5.880  17.343  0.00  0.00    +0.000 A 
ATOM     14  C   UNL     1       6.598   5.203  18.399  0.00  0.00    +0.000 A 
ATOM     15  C   UNL     1       7.707   5.760  19.040  0.00  0.00    +0.000 A 
ATOM     16  C   UNL     1       8.196   7.001  18.636  0.00  0.00    +0.000 A 
ATOM     17  C   UNL     1       7.567   7.694  17.605  0.00  0.00    +0.000 A 
ATOM     18  C   UNL     1       6.458   7.139  16.962  0.00  0.00    +0.000 A 
ENDBRANCH  12  13
ENDBRANCH   4  12
TORSDOF 4
ENDMDL
MODEL 9
REMARK VINA RESULT:      -6.4      1.155      1.408
REMARK  Name = 
REMARK  5 active torsions:
REMARK  status: ('A' for Active; 'I' for Inactive)
REMARK    1  A    between atoms: C_1  and  C_2
REMARK    2  A    between atoms: N_4  and  C_5
REMARK    3  A    between atoms: C_5  and  C_6
REMARK    4  A    between atoms: C_14  and  C_15
REMARK    5  A    between atoms: C_15  and  O_17
REMARK                            x       y       z     vdW  Elec       q    Type
REMARK                         _______ _______ _______ _____ _____    ______ ____
ROOT
ATOM      1  C   UNL     1       7.683   5.762  19.460  0.00  0.00    +0.000 C 
ATOM      2  C   UNL     1       6.672   5.130  18.571  0.00  0.00    +0.000 A 
ATOM      3  N   UNL     1       5.773   4.281  19.089  0.00  0.00    +0.000 NA
ATOM      4  N   UNL     1       5.014   3.909  18.032  0.00  0.00    +0.000 N 
ATOM      5  C   UNL     1       5.397   4.539  16.882  0.00  0.00    +0.000 A 
ATOM      6 CL   UNL     1       4.532   4.296  15.432  0.00  0.00    +0.000 Cl
ATOM      7  C   UNL     1       6.518   5.290  17.161  0.00  0.00    +0.000 A 
ENDROOT
BRANCH   7   8
ATOM      8  C   UNL     1       7.361   6.068  16.271  0.00  0.00    +0.000 C 
ATOM      9  O   UNL     1       7.725   5.665  15.175  0.00  0.00    +0.000 OA
BRANCH   8  10
ATOM     10  O   UNL     1       7.701   7.308  16.707  0.00  0.00    +0.000 OA
ATOM     11  H   UNL     1       6.981   7.757  17.190  0.00  0.00    +0.000 HD
ENDBRANCH   8  10
ENDBRANCH   7   8
BRANCH   4  12
ATOM     12  C   UNL     1       4.084   2.796  18.189  0.00  0.00    +0.000 C 
BRANCH  12  13
ATOM     13  C   UNL     1       3.093   2.981  19.309  0.00  0.00    +0.000 A 
ATOM     14  C   UNL     1       1.812   3.490  19.044  0.00  0.00    +0.000 A 
ATOM     15  C   UNL     1       0.847   3.547  20.053  0.00  0.00    +0.000 A 
ATOM     16  C   UNL     1       1.153   3.101  21.337  0.00  0.00    +0.000 A 
ATOM     17  C   UNL     1       2.428   2.615  21.619  0.00  0.00    +0.000 A 
ATOM     18  C   UNL     1       3.394   2.557  20.612  0.00  0.00    +0.000 A 
ENDBRANCH  12  13
ENDBRANCH   4  12
TORSDOF 4
ENDMDL
