MODEL 1
REMARK VINA RESULT:      -7.3      0.000      0.000
REMARK  Name = 
REMARK  8 active torsions:
REMARK  status: ('A' for Active; 'I' for Inactive)
REMARK    1  A    between atoms: C_1  and  C_2
REMARK    2  A    between atoms: C_2  and  O_3
REMARK    3  A    between atoms: O_3  and  C_4
REMARK    4  A    between atoms: C_4  and  C_6
REMARK    5  A    between atoms: N_9  and  C_10
REMARK    6  A    between atoms: C_10  and  N_12
REMARK    7  A    between atoms: N_12  and  C_13
REMARK    8  A    between atoms: C_21  and  C_22
REMARK                            x       y       z     vdW  Elec       q    Type
REMARK                         _______ _______ _______ _____ _____    ______ ____
ROOT
ATOM      1  C   UNL     1       6.058   5.052  16.171  0.00  0.00    +0.000 A 
ATOM      2  S   UNL     1       4.629   4.147  16.458  0.00  0.00    +0.000 S 
ATOM      3  C   UNL     1       4.357   5.049  17.872  0.00  0.00    +0.000 A 
ATOM      4  N   UNL     1       3.289   4.595  18.581  0.00  0.00    +0.000 N 
ATOM      5  N   UNL     1       5.234   5.968  18.165  0.00  0.00    +0.000 NA
ATOM      6  C   UNL     1       6.228   5.982  17.192  0.00  0.00    +0.000 A 
ATOM      7  C   UNL     1       7.351   6.941  17.381  0.00  0.00    +0.000 C 
ATOM      8  H   UNL     1       2.894   3.728  18.243  0.00  0.00    +0.000 HD
ENDROOT
BRANCH   1   9
ATOM      9  C   UNL     1       6.869   4.720  15.021  0.00  0.00    +0.000 C 
ATOM     10  O   UNL     1       7.888   5.303  14.669  0.00  0.00    +0.000 OA
BRANCH   9  11
ATOM     11  O   UNL     1       6.294   3.702  14.326  0.00  0.00    +0.000 OA
BRANCH  11  13
ATOM     12  C   UNL     1       6.048   2.788  12.136  0.00  0.00    +0.000 C 
ATOM     13  C   UNL     1       5.869   4.026  12.997  0.00  0.00    +0.000 C 
ENDBRANCH  11  13
ENDBRANCH   9  11
ENDBRANCH   1   9
BRANCH   4  14
ATOM     14  C   UNL     1       2.808   5.077  19.772  0.00  0.00    +0.000 C 
ATOM     15  S   UNL     1       2.085   4.214  21.002  0.00  0.00    +0.000 S 
BRANCH  14  16
ATOM     16  N   UNL     1       3.120   6.415  19.974  0.00  0.00    +0.000 N 
ATOM     17  H   UNL     1       4.004   6.608  20.430  0.00  0.00    +0.000 HD
BRANCH  16  18
ATOM     18  C   UNL     1       2.271   7.495  19.652  0.00  0.00    +0.000 A 
ATOM     19  C   UNL     1       2.238   8.020  18.349  0.00  0.00    +0.000 A 
ATOM     20  C   UNL     1       1.494   9.158  18.062  0.00  0.00    +0.000 A 
ATOM     21  C   UNL     1       0.767   9.757  19.077  0.00  0.00    +0.000 A 
ATOM     22  F   UNL     1       0.089  10.886  18.822  0.00  0.00    +0.000 F 
ATOM     23  C   UNL     1       0.731   9.208  20.357  0.00  0.00    +0.000 A 
ATOM     24  C   UNL     1       1.469   8.056  20.645  0.00  0.00    +0.000 A 
ENDBRANCH  16  18
ENDBRANCH  14  16
ENDBRANCH   4  14
TORSDOF 6
ENDMDL
MODEL 2
REMARK VINA RESULT:      -7.3      0.319      1.080
REMARK  Name = 
REMARK  8 active torsions:
REMARK  status: ('A' for Active; 'I' for Inactive)
REMARK    1  A    between atoms: C_1  and  C_2
REMARK    2  A    between atoms: C_2  and  O_3
REMARK    3  A    between atoms: O_3  and  C_4
REMARK    4  A    between atoms: C_4  and  C_6
REMARK    5  A    between atoms: N_9  and  C_10
REMARK    6  A    between atoms: C_10  and  N_12
REMARK    7  A    between atoms: N_12  and  C_13
REMARK    8  A    between atoms: C_21  and  C_22
REMARK                            x       y       z     vdW  Elec       q    Type
REMARK                         _______ _______ _______ _____ _____    ______ ____
ROOT
ATOM      1  C   UNL     1       5.903   5.164  16.105  0.00  0.00    +0.000 A 
ATOM      2  S   UNL     1       4.386   4.387  16.296  0.00  0.00    +0.000 S 
ATOM      3  C   UNL     1       4.181   5.183  17.784  0.00  0.00    +0.000 A 
ATOM      4  N   UNL     1       3.060   4.778  18.439  0.00  0.00    +0.000 N 
ATOM      5  N   UNL     1       5.141   5.978  18.166  0.00  0.00    +0.000 NA
ATOM      6  C   UNL     1       6.149   5.977  17.207  0.00  0.00    +0.000 A 
ATOM      7  C   UNL     1       7.358   6.796  17.492  0.00  0.00    +0.000 C 
ATOM      8  H   UNL     1       2.586   3.989  18.021  0.00  0.00    +0.000 HD
ENDROOT
BRANCH   1   9
ATOM      9  C   UNL     1       6.697   4.855  14.937  0.00  0.00    +0.000 C 
ATOM     10  O   UNL     1       7.836   5.251  14.717  0.00  0.00    +0.000 OA
BRANCH   9  11
ATOM     11  O   UNL     1       5.966   4.114  14.061  0.00  0.00    +0.000 OA
BRANCH  11  13
ATOM     12  C   UNL     1       5.657   2.975  11.988  0.00  0.00    +0.000 C 
ATOM     13  C   UNL     1       6.612   3.814  12.818  0.00  0.00    +0.000 C 
ENDBRANCH  11  13
ENDBRANCH   9  11
ENDBRANCH   1   9
BRANCH   4  14
ATOM     14  C   UNL     1       2.609   5.199  19.665  0.00  0.00    +0.000 C 
ATOM     15  S   UNL     1       1.852   4.287  20.839  0.00  0.00    +0.000 S 
BRANCH  14  16
ATOM     16  N   UNL     1       2.986   6.502  19.956  0.00  0.00    +0.000 N 
ATOM     17  H   UNL     1       3.859   6.619  20.457  0.00  0.00    +0.000 HD
BRANCH  16  18
ATOM     18  C   UNL     1       2.214   7.646  19.664  0.00  0.00    +0.000 A 
ATOM     19  C   UNL     1       1.401   8.235  20.647  0.00  0.00    +0.000 A 
ATOM     20  C   UNL     1       0.550   9.287  20.328  0.00  0.00    +0.000 A 
ATOM     21  C   UNL     1       0.529   9.760  19.027  0.00  0.00    +0.000 A 
ATOM     22  F   UNL     1      -0.327  10.737  18.697  0.00  0.00    +0.000 F 
ATOM     23  C   UNL     1       1.380   9.235  18.057  0.00  0.00    +0.000 A 
ATOM     24  C   UNL     1       2.247   8.187  18.380  0.00  0.00    +0.000 A 
ENDBRANCH  16  18
ENDBRANCH  14  16
ENDBRANCH   4  14
TORSDOF 6
ENDMDL
MODEL 3
REMARK VINA RESULT:      -7.1      4.614      7.511
REMARK  Name = 
REMARK  8 active torsions:
REMARK  status: ('A' for Active; 'I' for Inactive)
REMARK    1  A    between atoms: C_1  and  C_2
REMARK    2  A    between atoms: C_2  and  O_3
REMARK    3  A    between atoms: O_3  and  C_4
REMARK    4  A    between atoms: C_4  and  C_6
REMARK    5  A    between atoms: N_9  and  C_10
REMARK    6  A    between atoms: C_10  and  N_12
REMARK    7  A    between atoms: N_12  and  C_13
REMARK    8  A    between atoms: C_21  and  C_22
REMARK                            x       y       z     vdW  Elec       q    Type
REMARK                         _______ _______ _______ _____ _____    ______ ____
ROOT
ATOM      1  C   UNL     1       2.650   3.764  18.540  0.00  0.00    +0.000 A 
ATOM      2  S   UNL     1       2.851   5.314  17.834  0.00  0.00    +0.000 S 
ATOM      3  C   UNL     1       4.520   5.022  17.699  0.00  0.00    +0.000 A 
ATOM      4  N   UNL     1       5.202   6.107  17.244  0.00  0.00    +0.000 N 
ATOM      5  N   UNL     1       4.957   3.874  18.136  0.00  0.00    +0.000 NA
ATOM      6  C   UNL     1       3.888   3.133  18.629  0.00  0.00    +0.000 A 
ATOM      7  C   UNL     1       4.198   1.801  19.218  0.00  0.00    +0.000 C 
ATOM      8  H   UNL     1       4.653   6.953  17.172  0.00  0.00    +0.000 HD
ENDROOT
BRANCH   1   9
ATOM      9  C   UNL     1       1.329   3.364  18.968  0.00  0.00    +0.000 C 
ATOM     10  O   UNL     1       0.609   2.547  18.407  0.00  0.00    +0.000 OA
BRANCH   9  11
ATOM     11  O   UNL     1       0.956   4.087  20.058  0.00  0.00    +0.000 OA
BRANCH  11  13
ATOM     12  C   UNL     1       1.577   2.584  21.803  0.00  0.00    +0.000 C 
ATOM     13  C   UNL     1       1.807   3.959  21.204  0.00  0.00    +0.000 C 
ENDBRANCH  11  13
ENDBRANCH   9  11
ENDBRANCH   1   9
BRANCH   4  14
ATOM     14  C   UNL     1       6.555   6.221  17.040  0.00  0.00    +0.000 C 
ATOM     15  S   UNL     1       7.572   7.416  17.605  0.00  0.00    +0.000 S 
BRANCH  14  16
ATOM     16  N   UNL     1       7.097   5.110  16.409  0.00  0.00    +0.000 N 
ATOM     17  H   UNL     1       7.629   4.475  16.992  0.00  0.00    +0.000 HD
BRANCH  16  18
ATOM     18  C   UNL     1       7.011   4.851  15.025  0.00  0.00    +0.000 A 
ATOM     19  C   UNL     1       6.106   3.900  14.525  0.00  0.00    +0.000 A 
ATOM     20  C   UNL     1       6.106   3.558  13.178  0.00  0.00    +0.000 A 
ATOM     21  C   UNL     1       7.002   4.187  12.329  0.00  0.00    +0.000 A 
ATOM     22  F   UNL     1       7.046   3.827  11.038  0.00  0.00    +0.000 F 
ATOM     23  C   UNL     1       7.856   5.184  12.794  0.00  0.00    +0.000 A 
ATOM     24  C   UNL     1       7.848   5.538  14.146  0.00  0.00    +0.000 A 
ENDBRANCH  16  18
ENDBRANCH  14  16
ENDBRANCH   4  14
TORSDOF 6
ENDMDL
MODEL 4
REMARK VINA RESULT:      -6.9      4.736      7.572
REMARK  Name = 
REMARK  8 active torsions:
REMARK  status: ('A' for Active; 'I' for Inactive)
REMARK    1  A    between atoms: C_1  and  C_2
REMARK    2  A    between atoms: C_2  and  O_3
REMARK    3  A    between atoms: O_3  and  C_4
REMARK    4  A    between atoms: C_4  and  C_6
REMARK    5  A    between atoms: N_9  and  C_10
REMARK    6  A    between atoms: C_10  and  N_12
REMARK    7  A    between atoms: N_12  and  C_13
REMARK    8  A    between atoms: C_21  and  C_22
REMARK                            x       y       z     vdW  Elec       q    Type
REMARK                         _______ _______ _______ _____ _____    ______ ____
ROOT
ATOM      1  C   UNL     1       2.190   3.510  18.556  0.00  0.00    +0.000 A 
ATOM      2  S   UNL     1       2.441   5.161  18.168  0.00  0.00    +0.000 S 
ATOM      3  C   UNL     1       4.018   4.788  17.656  0.00  0.00    +0.000 A 
ATOM      4  N   UNL     1       4.730   5.896  17.318  0.00  0.00    +0.000 N 
ATOM      5  N   UNL     1       4.390   3.542  17.748  0.00  0.00    +0.000 NA
ATOM      6  C   UNL     1       3.345   2.787  18.271  0.00  0.00    +0.000 A 
ATOM      7  C   UNL     1       3.599   1.338  18.494  0.00  0.00    +0.000 C 
ATOM      8  H   UNL     1       4.277   6.773  17.533  0.00  0.00    +0.000 HD
ENDROOT
BRANCH   1   9
ATOM      9  C   UNL     1       0.925   3.119  19.137  0.00  0.00    +0.000 C 
ATOM     10  O   UNL     1       0.162   2.270  18.691  0.00  0.00    +0.000 OA
BRANCH   9  11
ATOM     11  O   UNL     1       0.657   3.890  20.225  0.00  0.00    +0.000 OA
BRANCH  11  13
ATOM     12  C   UNL     1       1.570   2.439  21.884  0.00  0.00    +0.000 C 
ATOM     13  C   UNL     1       1.627   3.829  21.279  0.00  0.00    +0.000 C 
ENDBRANCH  11  13
ENDBRANCH   9  11
ENDBRANCH   1   9
BRANCH   4  14
ATOM     14  C   UNL     1       6.032   5.955  16.886  0.00  0.00    +0.000 C 
ATOM     15  S   UNL     1       7.407   5.556  17.741  0.00  0.00    +0.000 S 
BRANCH  14  16
ATOM     16  N   UNL     1       6.135   6.248  15.533  0.00  0.00    +0.000 N 
ATOM     17  H   UNL     1       6.011   7.219  15.270  0.00  0.00    +0.000 HD
BRANCH  16  18
ATOM     18  C   UNL     1       6.329   5.289  14.516  0.00  0.00    +0.000 A 
ATOM     19  C   UNL     1       7.473   5.325  13.702  0.00  0.00    +0.000 A 
ATOM     20  C   UNL     1       7.606   4.456  12.625  0.00  0.00    +0.000 A 
ATOM     21  C   UNL     1       6.599   3.537  12.379  0.00  0.00    +0.000 A 
ATOM     22  F   UNL     1       6.693   2.731  11.311  0.00  0.00    +0.000 F 
ATOM     23  C   UNL     1       5.492   3.439  13.219  0.00  0.00    +0.000 A 
ATOM     24  C   UNL     1       5.364   4.304  14.310  0.00  0.00    +0.000 A 
ENDBRANCH  16  18
ENDBRANCH  14  16
ENDBRANCH   4  14
TORSDOF 6
ENDMDL
MODEL 5
REMARK VINA RESULT:      -6.8      4.017      7.102
REMARK  Name = 
REMARK  8 active torsions:
REMARK  status: ('A' for Active; 'I' for Inactive)
REMARK    1  A    between atoms: C_1  and  C_2
REMARK    2  A    between atoms: C_2  and  O_3
REMARK    3  A    between atoms: O_3  and  C_4
REMARK    4  A    between atoms: C_4  and  C_6
REMARK    5  A    between atoms: N_9  and  C_10
REMARK    6  A    between atoms: C_10  and  N_12
REMARK    7  A    between atoms: N_12  and  C_13
REMARK    8  A    between atoms: C_21  and  C_22
REMARK                            x       y       z     vdW  Elec       q    Type
REMARK                         _______ _______ _______ _____ _____    ______ ____
ROOT
ATOM      1  C   UNL     1       3.170   4.148  20.273  0.00  0.00    +0.000 A 
ATOM      2  S   UNL     1       4.534   3.197  19.853  0.00  0.00    +0.000 S 
ATOM      3  C   UNL     1       5.246   4.560  19.129  0.00  0.00    +0.000 A 
ATOM      4  N   UNL     1       6.414   4.263  18.499  0.00  0.00    +0.000 N 
ATOM      5  N   UNL     1       4.564   5.670  19.161  0.00  0.00    +0.000 NA
ATOM      6  C   UNL     1       3.357   5.450  19.817  0.00  0.00    +0.000 A 
ATOM      7  C   UNL     1       2.415   6.599  19.913  0.00  0.00    +0.000 C 
ATOM      8  H   UNL     1       6.626   3.277  18.442  0.00  0.00    +0.000 HD
ENDROOT
BRANCH   1   9
ATOM      9  C   UNL     1       2.062   3.510  20.947  0.00  0.00    +0.000 C 
ATOM     10  O   UNL     1       2.103   2.978  22.050  0.00  0.00    +0.000 OA
BRANCH   9  11
ATOM     11  O   UNL     1       0.965   3.515  20.144  0.00  0.00    +0.000 OA
BRANCH  11  13
ATOM     12  C   UNL     1       1.217   3.507  17.771  0.00  0.00    +0.000 C 
ATOM     13  C   UNL     1       1.029   2.645  19.007  0.00  0.00    +0.000 C 
ENDBRANCH  11  13
ENDBRANCH   9  11
ENDBRANCH   1   9
BRANCH   4  14
ATOM     14  C   UNL     1       7.230   5.119  17.801  0.00  0.00    +0.000 C 
ATOM     15  S   UNL     1       7.769   6.624  18.276  0.00  0.00    +0.000 S 
BRANCH  14  16
ATOM     16  N   UNL     1       7.745   4.546  16.647  0.00  0.00    +0.000 N 
ATOM     17  H   UNL     1       8.719   4.267  16.677  0.00  0.00    +0.000 HD
BRANCH  16  18
ATOM     18  C   UNL     1       7.032   4.394  15.439  0.00  0.00    +0.000 A 
ATOM     19  C   UNL     1       5.772   3.773  15.420  0.00  0.00    +0.000 A 
ATOM     20  C   UNL     1       5.124   3.516  14.218  0.00  0.00    +0.000 A 
ATOM     21  C   UNL     1       5.733   3.900  13.035  0.00  0.00    +0.000 A 
ATOM     22  F   UNL     1       5.142   3.609  11.867  0.00  0.00    +0.000 F 
ATOM     23  C   UNL     1       6.949   4.581  13.039  0.00  0.00    +0.000 A 
ATOM     24  C   UNL     1       7.594   4.852  14.248  0.00  0.00    +0.000 A 
ENDBRANCH  16  18
ENDBRANCH  14  16
ENDBRANCH   4  14
TORSDOF 6
ENDMDL
MODEL 6
REMARK VINA RESULT:      -6.7      3.352      4.381
REMARK  Name = 
REMARK  8 active torsions:
REMARK  status: ('A' for Active; 'I' for Inactive)
REMARK    1  A    between atoms: C_1  and  C_2
REMARK    2  A    between atoms: C_2  and  O_3
REMARK    3  A    between atoms: O_3  and  C_4
REMARK    4  A    between atoms: C_4  and  C_6
REMARK    5  A    between atoms: N_9  and  C_10
REMARK    6  A    between atoms: C_10  and  N_12
REMARK    7  A    between atoms: N_12  and  C_13
REMARK    8  A    between atoms: C_21  and  C_22
REMARK                            x       y       z     vdW  Elec       q    Type
REMARK                         _______ _______ _______ _____ _____    ______ ____
ROOT
ATOM      1  C   UNL     1       6.345   3.978  13.409  0.00  0.00    +0.000 A 
ATOM      2  S   UNL     1       5.434   3.491  14.778  0.00  0.00    +0.000 S 
ATOM      3  C   UNL     1       6.315   4.583  15.737  0.00  0.00    +0.000 A 
ATOM      4  N   UNL     1       5.999   4.487  17.056  0.00  0.00    +0.000 N 
ATOM      5  N   UNL     1       7.237   5.284  15.139  0.00  0.00    +0.000 NA
ATOM      6  C   UNL     1       7.271   4.944  13.791  0.00  0.00    +0.000 A 
ATOM      7  C   UNL     1       8.300   5.612  12.947  0.00  0.00    +0.000 C 
ATOM      8  H   UNL     1       5.394   3.713  17.292  0.00  0.00    +0.000 HD
ENDROOT
BRANCH   1   9
ATOM      9  C   UNL     1       6.091   3.331  12.142  0.00  0.00    +0.000 C 
ATOM     10  O   UNL     1       6.784   2.461  11.627  0.00  0.00    +0.000 OA
BRANCH   9  11
ATOM     11  O   UNL     1       4.998   3.884  11.550  0.00  0.00    +0.000 OA
BRANCH  11  13
ATOM     12  C   UNL     1       3.152   3.640  10.058  0.00  0.00    +0.000 C 
ATOM     13  C   UNL     1       3.994   2.955  11.119  0.00  0.00    +0.000 C 
ENDBRANCH  11  13
ENDBRANCH   9  11
ENDBRANCH   1   9
BRANCH   4  14
ATOM     14  C   UNL     1       6.533   5.203  18.099  0.00  0.00    +0.000 C 
ATOM     15  S   UNL     1       7.570   6.506  18.013  0.00  0.00    +0.000 S 
BRANCH  14  16
ATOM     16  N   UNL     1       5.995   4.843  19.327  0.00  0.00    +0.000 N 
ATOM     17  H   UNL     1       6.650   4.738  20.093  0.00  0.00    +0.000 HD
BRANCH  16  18
ATOM     18  C   UNL     1       4.633   4.554  19.554  0.00  0.00    +0.000 A 
ATOM     19  C   UNL     1       3.676   5.582  19.592  0.00  0.00    +0.000 A 
ATOM     20  C   UNL     1       2.356   5.311  19.934  0.00  0.00    +0.000 A 
ATOM     21  C   UNL     1       1.993   4.005  20.218  0.00  0.00    +0.000 A 
ATOM     22  F   UNL     1       0.736   3.741  20.600  0.00  0.00    +0.000 F 
ATOM     23  C   UNL     1       2.913   2.963  20.114  0.00  0.00    +0.000 A 
ATOM     24  C   UNL     1       4.237   3.232  19.757  0.00  0.00    +0.000 A 
ENDBRANCH  16  18
ENDBRANCH  14  16
ENDBRANCH   4  14
TORSDOF 6
ENDMDL
MODEL 7
REMARK VINA RESULT:      -6.7      4.031      7.230
REMARK  Name = 
REMARK  8 active torsions:
REMARK  status: ('A' for Active; 'I' for Inactive)
REMARK    1  A    between atoms: C_1  and  C_2
REMARK    2  A    between atoms: C_2  and  O_3
REMARK    3  A    between atoms: O_3  and  C_4
REMARK    4  A    between atoms: C_4  and  C_6
REMARK    5  A    between atoms: N_9  and  C_10
REMARK    6  A    between atoms: C_10  and  N_12
REMARK    7  A    between atoms: N_12  and  C_13
REMARK    8  A    between atoms: C_21  and  C_22
REMARK                            x       y       z     vdW  Elec       q    Type
REMARK                         _______ _______ _______ _____ _____    ______ ____
ROOT
ATOM      1  C   UNL     1       1.879   7.754  19.943  0.00  0.00    +0.000 A 
ATOM      2  S   UNL     1       2.112   6.323  20.858  0.00  0.00    +0.000 S 
ATOM      3  C   UNL     1       2.925   5.627  19.537  0.00  0.00    +0.000 A 
ATOM      4  N   UNL     1       3.251   4.324  19.756  0.00  0.00    +0.000 N 
ATOM      5  N   UNL     1       3.041   6.356  18.463  0.00  0.00    +0.000 NA
ATOM      6  C   UNL     1       2.438   7.591  18.679  0.00  0.00    +0.000 A 
ATOM      7  C   UNL     1       2.429   8.551  17.541  0.00  0.00    +0.000 C 
ATOM      8  H   UNL     1       2.862   3.926  20.599  0.00  0.00    +0.000 HD
ENDROOT
BRANCH   1   9
ATOM      9  C   UNL     1       1.140   8.845  20.539  0.00  0.00    +0.000 C 
ATOM     10  O   UNL     1       0.866   9.908  19.995  0.00  0.00    +0.000 OA
BRANCH   9  11
ATOM     11  O   UNL     1       0.849   8.554  21.835  0.00  0.00    +0.000 OA
BRANCH  11  13
ATOM     12  C   UNL     1      -0.491   9.992  23.187  0.00  0.00    +0.000 C 
ATOM     13  C   UNL     1      -0.504   8.809  22.236  0.00  0.00    +0.000 C 
ENDBRANCH  11  13
ENDBRANCH   9  11
ENDBRANCH   1   9
BRANCH   4  14
ATOM     14  C   UNL     1       3.889   3.465  18.896  0.00  0.00    +0.000 C 
ATOM     15  S   UNL     1       3.204   2.537  17.692  0.00  0.00    +0.000 S 
BRANCH  14  16
ATOM     16  N   UNL     1       5.271   3.535  18.997  0.00  0.00    +0.000 N 
ATOM     17  H   UNL     1       5.722   2.804  19.535  0.00  0.00    +0.000 HD
BRANCH  16  18
ATOM     18  C   UNL     1       6.064   4.574  18.466  0.00  0.00    +0.000 A 
ATOM     19  C   UNL     1       6.960   5.285  19.282  0.00  0.00    +0.000 A 
ATOM     20  C   UNL     1       7.651   6.385  18.789  0.00  0.00    +0.000 A 
ATOM     21  C   UNL     1       7.458   6.760  17.470  0.00  0.00    +0.000 A 
ATOM     22  F   UNL     1       8.078   7.852  17.000  0.00  0.00    +0.000 F 
ATOM     23  C   UNL     1       6.628   6.024  16.626  0.00  0.00    +0.000 A 
ATOM     24  C   UNL     1       5.943   4.909  17.118  0.00  0.00    +0.000 A 
ENDBRANCH  16  18
ENDBRANCH  14  16
ENDBRANCH   4  14
TORSDOF 6
ENDMDL
MODEL 8
REMARK VINA RESULT:      -6.7      4.498      8.000
REMARK  Name = 
REMARK  8 active torsions:
REMARK  status: ('A' for Active; 'I' for Inactive)
REMARK    1  A    between atoms: C_1  and  C_2
REMARK    2  A    between atoms: C_2  and  O_3
REMARK    3  A    between atoms: O_3  and  C_4
REMARK    4  A    between atoms: C_4  and  C_6
REMARK    5  A    between atoms: N_9  and  C_10
REMARK    6  A    between atoms: C_10  and  N_12
REMARK    7  A    between atoms: N_12  and  C_13
REMARK    8  A    between atoms: C_21  and  C_22
REMARK                            x       y       z     vdW  Elec       q    Type
REMARK                         _______ _______ _______ _____ _____    ______ ____
ROOT
ATOM      1  C   UNL     1       0.837   9.248  20.189  0.00  0.00    +0.000 A 
ATOM      2  S   UNL     1       1.059   7.904  21.230  0.00  0.00    +0.000 S 
ATOM      3  C   UNL     1       2.095   7.201  20.081  0.00  0.00    +0.000 A 
ATOM      4  N   UNL     1       2.492   5.949  20.436  0.00  0.00    +0.000 N 
ATOM      5  N   UNL     1       2.296   7.868  18.979  0.00  0.00    +0.000 NA
ATOM      6  C   UNL     1       1.572   9.055  19.023  0.00  0.00    +0.000 A 
ATOM      7  C   UNL     1       1.638   9.936  17.825  0.00  0.00    +0.000 C 
ATOM      8  H   UNL     1       2.027   5.572  21.250  0.00  0.00    +0.000 HD
ENDROOT
BRANCH   1   9
ATOM      9  C   UNL     1      -0.061  10.303  20.601  0.00  0.00    +0.000 C 
ATOM     10  O   UNL     1      -0.984  10.761  19.938  0.00  0.00    +0.000 OA
BRANCH   9  11
ATOM     11  O   UNL     1       0.311  10.779  21.820  0.00  0.00    +0.000 OA
BRANCH  11  13
ATOM     12  C   UNL     1      -1.114  12.376  22.873  0.00  0.00    +0.000 C 
ATOM     13  C   UNL     1      -0.744  10.907  22.781  0.00  0.00    +0.000 C 
ENDBRANCH  11  13
ENDBRANCH   9  11
ENDBRANCH   1   9
BRANCH   4  14
ATOM     14  C   UNL     1       3.307   5.098  19.732  0.00  0.00    +0.000 C 
ATOM     15  S   UNL     1       2.940   3.571  19.171  0.00  0.00    +0.000 S 
BRANCH  14  16
ATOM     16  N   UNL     1       4.502   5.692  19.352  0.00  0.00    +0.000 N 
ATOM     17  H   UNL     1       4.889   6.377  19.992  0.00  0.00    +0.000 HD
BRANCH  16  18
ATOM     18  C   UNL     1       5.162   5.458  18.128  0.00  0.00    +0.000 A 
ATOM     19  C   UNL     1       6.341   4.694  18.080  0.00  0.00    +0.000 A 
ATOM     20  C   UNL     1       7.055   4.564  16.895  0.00  0.00    +0.000 A 
ATOM     21  C   UNL     1       6.576   5.185  15.753  0.00  0.00    +0.000 A 
ATOM     22  F   UNL     1       7.286   5.110  14.618  0.00  0.00    +0.000 F 
ATOM     23  C   UNL     1       5.372   5.886  15.766  0.00  0.00    +0.000 A 
ATOM     24  C   UNL     1       4.646   6.006  16.954  0.00  0.00    +0.000 A 
ENDBRANCH  16  18
ENDBRANCH  14  16
ENDBRANCH   4  14
TORSDOF 6
ENDMDL
MODEL 9
REMARK VINA RESULT:      -6.7      4.364      7.462
REMARK  Name = 
REMARK  8 active torsions:
REMARK  status: ('A' for Active; 'I' for Inactive)
REMARK    1  A    between atoms: C_1  and  C_2
REMARK    2  A    between atoms: C_2  and  O_3
REMARK    3  A    between atoms: O_3  and  C_4
REMARK    4  A    between atoms: C_4  and  C_6
REMARK    5  A    between atoms: N_9  and  C_10
REMARK    6  A    between atoms: C_10  and  N_12
REMARK    7  A    between atoms: N_12  and  C_13
REMARK    8  A    between atoms: C_21  and  C_22
REMARK                            x       y       z     vdW  Elec       q    Type
REMARK                         _______ _______ _______ _____ _____    ______ ____
ROOT
ATOM      1  C   UNL     1       1.044   9.042  20.065  0.00  0.00    +0.000 A 
ATOM      2  S   UNL     1       1.267   7.705  21.115  0.00  0.00    +0.000 S 
ATOM      3  C   UNL     1       2.302   6.995  19.970  0.00  0.00    +0.000 A 
ATOM      4  N   UNL     1       2.699   5.745  20.333  0.00  0.00    +0.000 N 
ATOM      5  N   UNL     1       2.503   7.655  18.864  0.00  0.00    +0.000 NA
ATOM      6  C   UNL     1       1.779   8.843  18.901  0.00  0.00    +0.000 A 
ATOM      7  C   UNL     1       1.846   9.716  17.697  0.00  0.00    +0.000 C 
ATOM      8  H   UNL     1       2.234   5.373  21.149  0.00  0.00    +0.000 HD
ENDROOT
BRANCH   1   9
ATOM      9  C   UNL     1       0.146  10.100  20.471  0.00  0.00    +0.000 C 
ATOM     10  O   UNL     1       0.339  10.895  21.383  0.00  0.00    +0.000 OA
BRANCH   9  11
ATOM     11  O   UNL     1      -0.998  10.044  19.738  0.00  0.00    +0.000 OA
BRANCH  11  13
ATOM     12  C   UNL     1      -2.022  10.769  17.709  0.00  0.00    +0.000 C 
ATOM     13  C   UNL     1      -1.292  11.213  18.963  0.00  0.00    +0.000 C 
ENDBRANCH  11  13
ENDBRANCH   9  11
ENDBRANCH   1   9
BRANCH   4  14
ATOM     14  C   UNL     1       3.514   4.889  19.634  0.00  0.00    +0.000 C 
ATOM     15  S   UNL     1       3.106   3.419  18.961  0.00  0.00    +0.000 S 
BRANCH  14  16
ATOM     16  N   UNL     1       4.762   5.435  19.369  0.00  0.00    +0.000 N 
ATOM     17  H   UNL     1       5.198   5.954  20.122  0.00  0.00    +0.000 HD
BRANCH  16  18
ATOM     18  C   UNL     1       5.418   5.372  18.121  0.00  0.00    +0.000 A 
ATOM     19  C   UNL     1       4.838   5.940  16.974  0.00  0.00    +0.000 A 
ATOM     20  C   UNL     1       5.425   5.774  15.725  0.00  0.00    +0.000 A 
ATOM     21  C   UNL     1       6.604   5.053  15.630  0.00  0.00    +0.000 A 
ATOM     22  F   UNL     1       7.149   4.842  14.424  0.00  0.00    +0.000 F 
ATOM     23  C   UNL     1       7.230   4.545  16.766  0.00  0.00    +0.000 A 
ATOM     24  C   UNL     1       6.648   4.723  18.025  0.00  0.00    +0.000 A 
ENDBRANCH  16  18
ENDBRANCH  14  16
ENDBRANCH   4  14
TORSDOF 6
ENDMDL
