MODEL 1
REMARK VINA RESULT:      -6.9      0.000      0.000
REMARK  Name = 
REMARK  4 active torsions:
REMARK  status: ('A' for Active; 'I' for Inactive)
REMARK    1  A    between atoms: C_1  and  O_2
REMARK    2  A    between atoms: O_2  and  C_3
REMARK    3  A    between atoms: C_4  and  C_5
REMARK    4  A    between atoms: C_14  and  C_15
REMARK                            x       y       z     vdW  Elec       q    Type
REMARK                         _______ _______ _______ _____ _____    ______ ____
ROOT
ATOM      1  C   UNL     1       0.746   9.691  18.992  0.00  0.00    +0.000 C 
ATOM      2  C   UNL     1       0.771   9.861  20.335  0.00  0.00    +0.000 C 
ATOM      3  C   UNL     1       1.453   8.785  21.144  0.00  0.00    +0.000 C 
ATOM      4  O   UNL     1       1.545   8.809  22.363  0.00  0.00    +0.000 OA
ATOM      5  C   UNL     1       1.918   7.584  20.438  0.00  0.00    +0.000 C 
ATOM      6  C   UNL     1       2.112   7.556  19.114  0.00  0.00    +0.000 C 
ATOM      7  C   UNL     1       1.827   8.832  18.412  0.00  0.00    +0.000 C 
ATOM      8  O   UNL     1       2.489   9.198  17.445  0.00  0.00    +0.000 OA
ENDROOT
BRANCH   2   9
ATOM      9  C   UNL     1       0.192  11.069  21.014  0.00  0.00    +0.000 A 
ATOM     10  C   UNL     1       0.714  12.368  20.894  0.00  0.00    +0.000 A 
ATOM     11  C   UNL     1       0.184  13.438  21.627  0.00  0.00    +0.000 A 
ATOM     12  C   UNL     1      -0.896  13.240  22.482  0.00  0.00    +0.000 A 
ATOM     13  C   UNL     1      -1.433  11.968  22.620  0.00  0.00    +0.000 A 
ATOM     14  C   UNL     1      -0.885  10.898  21.906  0.00  0.00    +0.000 A 
ENDBRANCH   2   9
BRANCH   6  15
ATOM     15  C   UNL     1       2.576   6.356  18.375  0.00  0.00    +0.000 A 
ATOM     16  C   UNL     1       1.721   5.247  18.237  0.00  0.00    +0.000 A 
ATOM     17  C   UNL     1       2.136   4.086  17.580  0.00  0.00    +0.000 A 
ATOM     18  C   UNL     1       3.414   4.010  17.047  0.00  0.00    +0.000 A 
ATOM     19  C   UNL     1       4.272   5.101  17.155  0.00  0.00    +0.000 A 
ATOM     20  C   UNL     1       3.852   6.268  17.801  0.00  0.00    +0.000 A 
ENDBRANCH   6  15
BRANCH   1  22
ATOM     21  C   UNL     1      -1.454   9.963  17.976  0.00  0.00    +0.000 C 
ATOM     22  O   UNL     1      -0.116  10.402  18.183  0.00  0.00    +0.000 OA
ENDBRANCH   1  22
TORSDOF 3
ENDMDL
MODEL 2
REMARK VINA RESULT:      -6.9      5.477      7.666
REMARK  Name = 
REMARK  4 active torsions:
REMARK  status: ('A' for Active; 'I' for Inactive)
REMARK    1  A    between atoms: C_1  and  O_2
REMARK    2  A    between atoms: O_2  and  C_3
REMARK    3  A    between atoms: C_4  and  C_5
REMARK    4  A    between atoms: C_14  and  C_15
REMARK                            x       y       z     vdW  Elec       q    Type
REMARK                         _______ _______ _______ _____ _____    ______ ____
ROOT
ATOM      1  C   UNL     1       5.422   4.726  18.004  0.00  0.00    +0.000 C 
ATOM      2  C   UNL     1       4.244   4.071  18.134  0.00  0.00    +0.000 C 
ATOM      3  C   UNL     1       3.674   3.443  16.886  0.00  0.00    +0.000 C 
ATOM      4  O   UNL     1       2.619   2.826  16.859  0.00  0.00    +0.000 OA
ATOM      5  C   UNL     1       4.360   3.696  15.612  0.00  0.00    +0.000 C 
ATOM      6  C   UNL     1       5.629   4.116  15.549  0.00  0.00    +0.000 C 
ATOM      7  C   UNL     1       6.294   4.301  16.863  0.00  0.00    +0.000 C 
ATOM      8  O   UNL     1       7.486   4.054  17.023  0.00  0.00    +0.000 OA
ENDROOT
BRANCH   2   9
ATOM      9  C   UNL     1       3.535   3.925  19.450  0.00  0.00    +0.000 A 
ATOM     10  C   UNL     1       3.599   2.777  20.258  0.00  0.00    +0.000 A 
ATOM     11  C   UNL     1       2.840   2.667  21.430  0.00  0.00    +0.000 A 
ATOM     12  C   UNL     1       2.014   3.711  21.835  0.00  0.00    +0.000 A 
ATOM     13  C   UNL     1       1.931   4.857  21.057  0.00  0.00    +0.000 A 
ATOM     14  C   UNL     1       2.670   4.953  19.875  0.00  0.00    +0.000 A 
ENDBRANCH   2   9
BRANCH   6  15
ATOM     15  C   UNL     1       6.346   4.384  14.278  0.00  0.00    +0.000 A 
ATOM     16  C   UNL     1       6.037   3.630  13.130  0.00  0.00    +0.000 A 
ATOM     17  C   UNL     1       6.715   3.828  11.925  0.00  0.00    +0.000 A 
ATOM     18  C   UNL     1       7.716   4.784  11.842  0.00  0.00    +0.000 A 
ATOM     19  C   UNL     1       8.028   5.555  12.958  0.00  0.00    +0.000 A 
ATOM     20  C   UNL     1       7.340   5.366  14.161  0.00  0.00    +0.000 A 
ENDBRANCH   6  15
BRANCH   1  22
ATOM     21  C   UNL     1       7.204   5.540  19.456  0.00  0.00    +0.000 C 
ATOM     22  O   UNL     1       5.873   5.613  18.960  0.00  0.00    +0.000 OA
ENDBRANCH   1  22
TORSDOF 3
ENDMDL
MODEL 3
REMARK VINA RESULT:      -6.9      1.300      2.239
REMARK  Name = 
REMARK  4 active torsions:
REMARK  status: ('A' for Active; 'I' for Inactive)
REMARK    1  A    between atoms: C_1  and  O_2
REMARK    2  A    between atoms: O_2  and  C_3
REMARK    3  A    between atoms: C_4  and  C_5
REMARK    4  A    between atoms: C_14  and  C_15
REMARK                            x       y       z     vdW  Elec       q    Type
REMARK                         _______ _______ _______ _____ _____    ______ ____
ROOT
ATOM      1  C   UNL     1      -0.336  10.461  20.449  0.00  0.00    +0.000 C 
ATOM      2  C   UNL     1      -0.349  10.645  21.791  0.00  0.00    +0.000 C 
ATOM      3  C   UNL     1       0.442   9.663  22.619  0.00  0.00    +0.000 C 
ATOM      4  O   UNL     1       0.515   9.709  23.839  0.00  0.00    +0.000 OA
ATOM      5  C   UNL     1       1.053   8.517  21.932  0.00  0.00    +0.000 C 
ATOM      6  C   UNL     1       1.266   8.500  20.611  0.00  0.00    +0.000 C 
ATOM      7  C   UNL     1       0.844   9.728  19.892  0.00  0.00    +0.000 C 
ATOM      8  O   UNL     1       1.472  10.159  18.929  0.00  0.00    +0.000 OA
ENDROOT
BRANCH   2   9
ATOM      9  C   UNL     1      -1.073  11.784  22.450  0.00  0.00    +0.000 A 
ATOM     10  C   UNL     1      -2.320  11.663  23.087  0.00  0.00    +0.000 A 
ATOM     11  C   UNL     1      -2.988  12.782  23.602  0.00  0.00    +0.000 A 
ATOM     12  C   UNL     1      -2.416  14.046  23.512  0.00  0.00    +0.000 A 
ATOM     13  C   UNL     1      -1.185  14.196  22.889  0.00  0.00    +0.000 A 
ATOM     14  C   UNL     1      -0.533  13.082  22.354  0.00  0.00    +0.000 A 
ENDBRANCH   2   9
BRANCH   6  15
ATOM     15  C   UNL     1       1.876   7.356  19.889  0.00  0.00    +0.000 A 
ATOM     16  C   UNL     1       1.825   6.068  20.454  0.00  0.00    +0.000 A 
ATOM     17  C   UNL     1       2.419   4.973  19.823  0.00  0.00    +0.000 A 
ATOM     18  C   UNL     1       3.078   5.142  18.615  0.00  0.00    +0.000 A 
ATOM     19  C   UNL     1       3.127   6.404  18.027  0.00  0.00    +0.000 A 
ATOM     20  C   UNL     1       2.520   7.497  18.652  0.00  0.00    +0.000 A 
ENDBRANCH   6  15
BRANCH   1  22
ATOM     21  C   UNL     1      -1.778  10.379  18.485  0.00  0.00    +0.000 C 
ATOM     22  O   UNL     1      -1.265  11.060  19.623  0.00  0.00    +0.000 OA
ENDBRANCH   1  22
TORSDOF 3
ENDMDL
MODEL 4
REMARK VINA RESULT:      -6.9      1.546      2.601
REMARK  Name = 
REMARK  4 active torsions:
REMARK  status: ('A' for Active; 'I' for Inactive)
REMARK    1  A    between atoms: C_1  and  O_2
REMARK    2  A    between atoms: O_2  and  C_3
REMARK    3  A    between atoms: C_4  and  C_5
REMARK    4  A    between atoms: C_14  and  C_15
REMARK                            x       y       z     vdW  Elec       q    Type
REMARK                         _______ _______ _______ _____ _____    ______ ____
ROOT
ATOM      1  C   UNL     1      -0.542  11.208  20.573  0.00  0.00    +0.000 C 
ATOM      2  C   UNL     1      -0.672  11.179  21.921  0.00  0.00    +0.000 C 
ATOM      3  C   UNL     1       0.042  10.068  22.649  0.00  0.00    +0.000 C 
ATOM      4  O   UNL     1       0.006   9.920  23.863  0.00  0.00    +0.000 OA
ATOM      5  C   UNL     1       0.709   9.035  21.846  0.00  0.00    +0.000 C 
ATOM      6  C   UNL     1       1.037   9.222  20.562  0.00  0.00    +0.000 C 
ATOM      7  C   UNL     1       0.682  10.554  20.012  0.00  0.00    +0.000 C 
ATOM      8  O   UNL     1       1.393  11.121  19.187  0.00  0.00    +0.000 OA
ENDROOT
BRANCH   2   9
ATOM      9  C   UNL     1      -1.451  12.211  22.686  0.00  0.00    +0.000 A 
ATOM     10  C   UNL     1      -0.947  13.473  23.046  0.00  0.00    +0.000 A 
ATOM     11  C   UNL     1      -1.690  14.355  23.841  0.00  0.00    +0.000 A 
ATOM     12  C   UNL     1      -2.965  14.007  24.276  0.00  0.00    +0.000 A 
ATOM     13  C   UNL     1      -3.489  12.768  23.935  0.00  0.00    +0.000 A 
ATOM     14  C   UNL     1      -2.734  11.880  23.164  0.00  0.00    +0.000 A 
ENDBRANCH   2   9
BRANCH   6  15
ATOM     15  C   UNL     1       1.708   8.196  19.725  0.00  0.00    +0.000 A 
ATOM     16  C   UNL     1       2.001   6.933  20.272  0.00  0.00    +0.000 A 
ATOM     17  C   UNL     1       2.663   5.954  19.527  0.00  0.00    +0.000 A 
ATOM     18  C   UNL     1       3.046   6.217  18.221  0.00  0.00    +0.000 A 
ATOM     19  C   UNL     1       2.751   7.453  17.651  0.00  0.00    +0.000 A 
ATOM     20  C   UNL     1       2.076   8.428  18.393  0.00  0.00    +0.000 A 
ENDBRANCH   6  15
BRANCH   1  22
ATOM     21  C   UNL     1      -2.137  11.322  18.732  0.00  0.00    +0.000 C 
ATOM     22  O   UNL     1      -1.394  11.943  19.774  0.00  0.00    +0.000 OA
ENDBRANCH   1  22
TORSDOF 3
ENDMDL
MODEL 5
REMARK VINA RESULT:      -6.8      1.574      2.888
REMARK  Name = 
REMARK  4 active torsions:
REMARK  status: ('A' for Active; 'I' for Inactive)
REMARK    1  A    between atoms: C_1  and  O_2
REMARK    2  A    between atoms: O_2  and  C_3
REMARK    3  A    between atoms: C_4  and  C_5
REMARK    4  A    between atoms: C_14  and  C_15
REMARK                            x       y       z     vdW  Elec       q    Type
REMARK                         _______ _______ _______ _____ _____    ______ ____
ROOT
ATOM      1  C   UNL     1      -0.563  11.168  20.688  0.00  0.00    +0.000 C 
ATOM      2  C   UNL     1      -0.685  11.101  22.035  0.00  0.00    +0.000 C 
ATOM      3  C   UNL     1       0.056   9.986  22.732  0.00  0.00    +0.000 C 
ATOM      4  O   UNL     1       0.031   9.807  23.941  0.00  0.00    +0.000 OA
ATOM      5  C   UNL     1       0.741   8.989  21.898  0.00  0.00    +0.000 C 
ATOM      6  C   UNL     1       1.058   9.216  20.618  0.00  0.00    +0.000 C 
ATOM      7  C   UNL     1       0.672  10.554  20.104  0.00  0.00    +0.000 C 
ATOM      8  O   UNL     1       1.366  11.157  19.291  0.00  0.00    +0.000 OA
ENDROOT
BRANCH   2   9
ATOM      9  C   UNL     1      -1.481  12.097  22.831  0.00  0.00    +0.000 A 
ATOM     10  C   UNL     1      -2.799  11.884  23.269  0.00  0.00    +0.000 A 
ATOM     11  C   UNL     1      -3.520  12.889  23.926  0.00  0.00    +0.000 A 
ATOM     12  C   UNL     1      -2.933  14.124  24.183  0.00  0.00    +0.000 A 
ATOM     13  C   UNL     1      -1.632  14.362  23.763  0.00  0.00    +0.000 A 
ATOM     14  C   UNL     1      -0.924  13.366  23.084  0.00  0.00    +0.000 A 
ENDBRANCH   2   9
BRANCH   6  15
ATOM     15  C   UNL     1       1.745   8.226  19.751  0.00  0.00    +0.000 A 
ATOM     16  C   UNL     1       2.050   8.559  18.418  0.00  0.00    +0.000 A 
ATOM     17  C   UNL     1       2.663   7.641  17.562  0.00  0.00    +0.000 A 
ATOM     18  C   UNL     1       2.984   6.372  18.021  0.00  0.00    +0.000 A 
ATOM     19  C   UNL     1       2.708   6.025  19.340  0.00  0.00    +0.000 A 
ATOM     20  C   UNL     1       2.107   6.949  20.201  0.00  0.00    +0.000 A 
ENDBRANCH   6  15
BRANCH   1  22
ATOM     21  C   UNL     1      -2.148  11.301  18.840  0.00  0.00    +0.000 C 
ATOM     22  O   UNL     1      -1.434  11.904  19.913  0.00  0.00    +0.000 OA
ENDBRANCH   1  22
TORSDOF 3
ENDMDL
MODEL 6
REMARK VINA RESULT:      -6.8      0.091      1.028
REMARK  Name = 
REMARK  4 active torsions:
REMARK  status: ('A' for Active; 'I' for Inactive)
REMARK    1  A    between atoms: C_1  and  O_2
REMARK    2  A    between atoms: O_2  and  C_3
REMARK    3  A    between atoms: C_4  and  C_5
REMARK    4  A    between atoms: C_14  and  C_15
REMARK                            x       y       z     vdW  Elec       q    Type
REMARK                         _______ _______ _______ _____ _____    ______ ____
ROOT
ATOM      1  C   UNL     1       0.756   9.668  18.965  0.00  0.00    +0.000 C 
ATOM      2  C   UNL     1       0.789   9.874  20.303  0.00  0.00    +0.000 C 
ATOM      3  C   UNL     1       1.462   8.813  21.139  0.00  0.00    +0.000 C 
ATOM      4  O   UNL     1       1.560   8.870  22.356  0.00  0.00    +0.000 OA
ATOM      5  C   UNL     1       1.909   7.587  20.465  0.00  0.00    +0.000 C 
ATOM      6  C   UNL     1       2.096   7.520  19.141  0.00  0.00    +0.000 C 
ATOM      7  C   UNL     1       1.823   8.780  18.405  0.00  0.00    +0.000 C 
ATOM      8  O   UNL     1       2.485   9.110  17.425  0.00  0.00    +0.000 OA
ENDROOT
BRANCH   2   9
ATOM      9  C   UNL     1       0.227  11.108  20.951  0.00  0.00    +0.000 A 
ATOM     10  C   UNL     1       0.783  12.392  20.818  0.00  0.00    +0.000 A 
ATOM     11  C   UNL     1       0.267  13.487  21.523  0.00  0.00    +0.000 A 
ATOM     12  C   UNL     1      -0.833  13.330  22.361  0.00  0.00    +0.000 A 
ATOM     13  C   UNL     1      -1.403  12.074  22.511  0.00  0.00    +0.000 A 
ATOM     14  C   UNL     1      -0.870  10.978  21.826  0.00  0.00    +0.000 A 
ENDBRANCH   2   9
BRANCH   6  15
ATOM     15  C   UNL     1       2.543   6.295  18.434  0.00  0.00    +0.000 A 
ATOM     16  C   UNL     1       3.857   6.217  17.936  0.00  0.00    +0.000 A 
ATOM     17  C   UNL     1       4.302   5.095  17.233  0.00  0.00    +0.000 A 
ATOM     18  C   UNL     1       3.444   4.028  17.013  0.00  0.00    +0.000 A 
ATOM     19  C   UNL     1       2.145   4.074  17.511  0.00  0.00    +0.000 A 
ATOM     20  C   UNL     1       1.703   5.192  18.226  0.00  0.00    +0.000 A 
ENDBRANCH   6  15
BRANCH   1  22
ATOM     21  C   UNL     1      -1.477  10.013  18.048  0.00  0.00    +0.000 C 
ATOM     22  O   UNL     1      -0.102  10.366  18.141  0.00  0.00    +0.000 OA
ENDBRANCH   1  22
TORSDOF 3
ENDMDL
MODEL 7
REMARK VINA RESULT:      -6.8      0.287      1.048
REMARK  Name = 
REMARK  4 active torsions:
REMARK  status: ('A' for Active; 'I' for Inactive)
REMARK    1  A    between atoms: C_1  and  O_2
REMARK    2  A    between atoms: O_2  and  C_3
REMARK    3  A    between atoms: C_4  and  C_5
REMARK    4  A    between atoms: C_14  and  C_15
REMARK                            x       y       z     vdW  Elec       q    Type
REMARK                         _______ _______ _______ _____ _____    ______ ____
ROOT
ATOM      1  C   UNL     1       0.803   9.644  18.859  0.00  0.00    +0.000 C 
ATOM      2  C   UNL     1       0.804   9.832  20.200  0.00  0.00    +0.000 C 
ATOM      3  C   UNL     1       1.448   8.755  21.038  0.00  0.00    +0.000 C 
ATOM      4  O   UNL     1       1.515   8.794  22.258  0.00  0.00    +0.000 OA
ATOM      5  C   UNL     1       1.904   7.535  20.358  0.00  0.00    +0.000 C 
ATOM      6  C   UNL     1       2.124   7.485  19.039  0.00  0.00    +0.000 C 
ATOM      7  C   UNL     1       1.879   8.756  18.314  0.00  0.00    +0.000 C 
ATOM      8  O   UNL     1       2.568   9.096  17.356  0.00  0.00    +0.000 OA
ENDROOT
BRANCH   2   9
ATOM      9  C   UNL     1       0.234  11.061  20.851  0.00  0.00    +0.000 A 
ATOM     10  C   UNL     1      -1.022  11.111  21.477  0.00  0.00    +0.000 A 
ATOM     11  C   UNL     1      -1.538  12.311  21.983  0.00  0.00    +0.000 A 
ATOM     12  C   UNL     1      -0.799  13.487  21.895  0.00  0.00    +0.000 A 
ATOM     13  C   UNL     1       0.446  13.467  21.282  0.00  0.00    +0.000 A 
ATOM     14  C   UNL     1       0.946  12.273  20.756  0.00  0.00    +0.000 A 
ENDBRANCH   2   9
BRANCH   6  15
ATOM     15  C   UNL     1       2.581   6.266  18.326  0.00  0.00    +0.000 A 
ATOM     16  C   UNL     1       1.707   5.173  18.183  0.00  0.00    +0.000 A 
ATOM     17  C   UNL     1       2.112   3.995  17.551  0.00  0.00    +0.000 A 
ATOM     18  C   UNL     1       3.399   3.887  17.047  0.00  0.00    +0.000 A 
ATOM     19  C   UNL     1       4.277   4.961  17.160  0.00  0.00    +0.000 A 
ATOM     20  C   UNL     1       3.867   6.145  17.781  0.00  0.00    +0.000 A 
ENDBRANCH   6  15
BRANCH   1  22
ATOM     21  C   UNL     1      -1.349   9.909  17.745  0.00  0.00    +0.000 C 
ATOM     22  O   UNL     1      -0.029  10.360  18.023  0.00  0.00    +0.000 OA
ENDBRANCH   1  22
TORSDOF 3
ENDMDL
MODEL 8
REMARK VINA RESULT:      -6.8      0.392      1.479
REMARK  Name = 
REMARK  4 active torsions:
REMARK  status: ('A' for Active; 'I' for Inactive)
REMARK    1  A    between atoms: C_1  and  O_2
REMARK    2  A    between atoms: O_2  and  C_3
REMARK    3  A    between atoms: C_4  and  C_5
REMARK    4  A    between atoms: C_14  and  C_15
REMARK                            x       y       z     vdW  Elec       q    Type
REMARK                         _______ _______ _______ _____ _____    ______ ____
ROOT
ATOM      1  C   UNL     1       0.846   9.609  18.814  0.00  0.00    +0.000 C 
ATOM      2  C   UNL     1       0.831   9.833  20.150  0.00  0.00    +0.000 C 
ATOM      3  C   UNL     1       1.447   8.769  21.025  0.00  0.00    +0.000 C 
ATOM      4  O   UNL     1       1.498   8.840  22.244  0.00  0.00    +0.000 OA
ATOM      5  C   UNL     1       1.894   7.525  20.384  0.00  0.00    +0.000 C 
ATOM      6  C   UNL     1       2.132   7.436  19.070  0.00  0.00    +0.000 C 
ATOM      7  C   UNL     1       1.916   8.691  18.308  0.00  0.00    +0.000 C 
ATOM      8  O   UNL     1       2.623   8.995  17.352  0.00  0.00    +0.000 OA
ENDROOT
BRANCH   2   9
ATOM      9  C   UNL     1       0.271  11.087  20.759  0.00  0.00    +0.000 A 
ATOM     10  C   UNL     1      -1.031  11.200  21.274  0.00  0.00    +0.000 A 
ATOM     11  C   UNL     1      -1.526  12.424  21.744  0.00  0.00    +0.000 A 
ATOM     12  C   UNL     1      -0.722  13.559  21.732  0.00  0.00    +0.000 A 
ATOM     13  C   UNL     1       0.569  13.477  21.231  0.00  0.00    +0.000 A 
ATOM     14  C   UNL     1       1.050  12.260  20.739  0.00  0.00    +0.000 A 
ENDBRANCH   2   9
BRANCH   6  15
ATOM     15  C   UNL     1       2.579   6.192  18.396  0.00  0.00    +0.000 A 
ATOM     16  C   UNL     1       3.908   6.082  17.946  0.00  0.00    +0.000 A 
ATOM     17  C   UNL     1       4.357   4.942  17.275  0.00  0.00    +0.000 A 
ATOM     18  C   UNL     1       3.486   3.889  17.041  0.00  0.00    +0.000 A 
ATOM     19  C   UNL     1       2.171   3.966  17.491  0.00  0.00    +0.000 A 
ATOM     20  C   UNL     1       1.727   5.102  18.175  0.00  0.00    +0.000 A 
ENDBRANCH   6  15
BRANCH   1  22
ATOM     21  C   UNL     1      -1.293   9.887  17.678  0.00  0.00    +0.000 C 
ATOM     22  O   UNL     1       0.037  10.315  17.948  0.00  0.00    +0.000 OA
ENDBRANCH   1  22
TORSDOF 3
ENDMDL
MODEL 9
REMARK VINA RESULT:      -6.8      5.443      7.712
REMARK  Name = 
REMARK  4 active torsions:
REMARK  status: ('A' for Active; 'I' for Inactive)
REMARK    1  A    between atoms: C_1  and  O_2
REMARK    2  A    between atoms: O_2  and  C_3
REMARK    3  A    between atoms: C_4  and  C_5
REMARK    4  A    between atoms: C_14  and  C_15
REMARK                            x       y       z     vdW  Elec       q    Type
REMARK                         _______ _______ _______ _____ _____    ______ ____
ROOT
ATOM      1  C   UNL     1       5.436   4.732  17.977  0.00  0.00    +0.000 C 
ATOM      2  C   UNL     1       4.255   4.082  18.110  0.00  0.00    +0.000 C 
ATOM      3  C   UNL     1       3.689   3.439  16.868  0.00  0.00    +0.000 C 
ATOM      4  O   UNL     1       2.632   2.825  16.844  0.00  0.00    +0.000 OA
ATOM      5  C   UNL     1       4.383   3.672  15.594  0.00  0.00    +0.000 C 
ATOM      6  C   UNL     1       5.654   4.088  15.533  0.00  0.00    +0.000 C 
ATOM      7  C   UNL     1       6.312   4.289  16.847  0.00  0.00    +0.000 C 
ATOM      8  O   UNL     1       7.502   4.040  17.017  0.00  0.00    +0.000 OA
ENDROOT
BRANCH   2   9
ATOM      9  C   UNL     1       3.538   3.956  19.424  0.00  0.00    +0.000 A 
ATOM     10  C   UNL     1       3.597   2.821  20.250  0.00  0.00    +0.000 A 
ATOM     11  C   UNL     1       2.831   2.729  21.419  0.00  0.00    +0.000 A 
ATOM     12  C   UNL     1       2.003   3.779  21.803  0.00  0.00    +0.000 A 
ATOM     13  C   UNL     1       1.924   4.913  21.007  0.00  0.00    +0.000 A 
ATOM     14  C   UNL     1       2.671   4.991  19.828  0.00  0.00    +0.000 A 
ENDBRANCH   2   9
BRANCH   6  15
ATOM     15  C   UNL     1       6.379   4.336  14.261  0.00  0.00    +0.000 A 
ATOM     16  C   UNL     1       7.358   5.345  14.202  0.00  0.00    +0.000 A 
ATOM     17  C   UNL     1       8.035   5.632  13.014  0.00  0.00    +0.000 A 
ATOM     18  C   UNL     1       7.747   4.917  11.862  0.00  0.00    +0.000 A 
ATOM     19  C   UNL     1       6.795   3.902  11.900  0.00  0.00    +0.000 A 
ATOM     20  C   UNL     1       6.127   3.605  13.092  0.00  0.00    +0.000 A 
ENDBRANCH   6  15
BRANCH   1  22
ATOM     21  C   UNL     1       7.207   5.552  19.438  0.00  0.00    +0.000 C 
ATOM     22  O   UNL     1       5.883   5.630  18.924  0.00  0.00    +0.000 OA
ENDBRANCH   1  22
TORSDOF 3
ENDMDL
