MODEL 1
REMARK VINA RESULT:      -8.1      0.000      0.000
REMARK  Name = 
REMARK  10 active torsions:
REMARK  status: ('A' for Active; 'I' for Inactive)
REMARK    1  A    between atoms: C_1  and  C_2
REMARK    2  A    between atoms: C_2  and  C_3
REMARK    3  A    between atoms: C_2  and  C_4
REMARK    4  A    between atoms: C_2  and  C_5
REMARK    5  A    between atoms: C_8  and  C_9
REMARK    6  A    between atoms: C_9  and  O_11
REMARK    7  A    between atoms: O_11  and  C_12
REMARK    8  A    between atoms: C_12  and  C_13
REMARK    9  A    between atoms: C_13  and  N_14
REMARK   10  A    between atoms: C_15  and  C_17
REMARK                            x       y       z     vdW  Elec       q    Type
REMARK                         _______ _______ _______ _____ _____    ______ ____
ROOT
ATOM      1  C   UNL     1       7.249   5.552  19.601  0.00  0.00    +0.000 C 
ENDROOT
BRANCH   1   2
ATOM      2  N   UNL     1       6.123   4.756  19.145  0.00  0.00    +0.000 N 
ATOM      3  C   UNL     1       4.914   5.313  18.793  0.00  0.00    +0.000 C 
ATOM      4  O   UNL     1       4.723   6.524  18.891  0.00  0.00    +0.000 OA
ATOM      5  H   UNL     1       6.268   3.761  19.028  0.00  0.00    +0.000 HD
BRANCH   3   6
ATOM      6  C   UNL     1       3.910   4.393  18.320  0.00  0.00    +0.000 A 
ATOM      7  C   UNL     1       3.749   3.777  17.087  0.00  0.00    +0.000 A 
ATOM      8 CL   UNL     1       4.739   3.926  15.702  0.00  0.00    +0.000 Cl
ATOM      9  N   UNL     1       2.622   3.000  17.042  0.00  0.00    +0.000 NA
ATOM     10  C   UNL     1       2.072   3.124  18.225  0.00  0.00    +0.000 A 
ATOM     11  C   UNL     1       0.877   2.554  18.752  0.00  0.00    +0.000 A 
ATOM     12  C   UNL     1       0.520   2.800  20.026  0.00  0.00    +0.000 A 
ATOM     13  C   UNL     1       1.337   3.637  20.888  0.00  0.00    +0.000 A 
ATOM     14  C   UNL     1       2.457   4.192  20.391  0.00  0.00    +0.000 A 
ATOM     15  N   UNL     1       2.822   3.950  19.061  0.00  0.00    +0.000 N 
ENDBRANCH   3   6
ENDBRANCH   1   2
BRANCH   1  16
ATOM     16  C   UNL     1       8.010   6.215  18.449  0.00  0.00    +0.000 C 
BRANCH  16  17
ATOM     17  O   UNL     1       8.446   7.537  18.819  0.00  0.00    +0.000 OA
BRANCH  17  18
ATOM     18  C   UNL     1       8.048   8.519  17.972  0.00  0.00    +0.000 C 
ATOM     19  O   UNL     1       7.335   8.359  16.993  0.00  0.00    +0.000 OA
BRANCH  18  23
ATOM     20  C   UNL     1       9.742  12.295  19.259  0.00  0.00    +0.000 A 
ATOM     21  C   UNL     1       9.925  11.098  19.970  0.00  0.00    +0.000 A 
ATOM     22  C   UNL     1       9.377   9.891  19.526  0.00  0.00    +0.000 A 
ATOM     23  C   UNL     1       8.622   9.838  18.354  0.00  0.00    +0.000 A 
ATOM     24  C   UNL     1       8.432  11.013  17.621  0.00  0.00    +0.000 A 
ATOM     25  C   UNL     1       8.985  12.223  18.071  0.00  0.00    +0.000 A 
BRANCH  20  27
ATOM     26  C   UNL     1       9.804  14.854  18.965  0.00  0.00    +0.000 C 
ATOM     27  C   UNL     1      10.345  13.629  19.742  0.00  0.00    +0.000 C 
ATOM     28  C   UNL     1      11.879  13.630  19.569  0.00  0.00    +0.000 C 
ATOM     29  C   UNL     1      10.017  13.852  21.234  0.00  0.00    +0.000 C 
ENDBRANCH  20  27
ENDBRANCH  18  23
ENDBRANCH  17  18
ENDBRANCH  16  17
ENDBRANCH   1  16
TORSDOF 7
ENDMDL
MODEL 2
REMARK VINA RESULT:      -7.9      6.116      8.204
REMARK  Name = 
REMARK  10 active torsions:
REMARK  status: ('A' for Active; 'I' for Inactive)
REMARK    1  A    between atoms: C_1  and  C_2
REMARK    2  A    between atoms: C_2  and  C_3
REMARK    3  A    between atoms: C_2  and  C_4
REMARK    4  A    between atoms: C_2  and  C_5
REMARK    5  A    between atoms: C_8  and  C_9
REMARK    6  A    between atoms: C_9  and  O_11
REMARK    7  A    between atoms: O_11  and  C_12
REMARK    8  A    between atoms: C_12  and  C_13
REMARK    9  A    between atoms: C_13  and  N_14
REMARK   10  A    between atoms: C_15  and  C_17
REMARK                            x       y       z     vdW  Elec       q    Type
REMARK                         _______ _______ _______ _____ _____    ______ ____
ROOT
ATOM      1  C   UNL     1       2.547   8.684  17.710  0.00  0.00    +0.000 C 
ENDROOT
BRANCH   1   2
ATOM      2  N   UNL     1       2.880   7.376  18.247  0.00  0.00    +0.000 N 
ATOM      3  C   UNL     1       3.873   6.585  17.715  0.00  0.00    +0.000 C 
ATOM      4  O   UNL     1       4.502   6.943  16.721  0.00  0.00    +0.000 OA
ATOM      5  H   UNL     1       2.396   7.076  19.085  0.00  0.00    +0.000 HD
BRANCH   3   6
ATOM      6  C   UNL     1       4.111   5.333  18.389  0.00  0.00    +0.000 A 
ATOM      7  C   UNL     1       5.248   4.834  19.007  0.00  0.00    +0.000 A 
ATOM      8 CL   UNL     1       6.772   5.590  19.167  0.00  0.00    +0.000 Cl
ATOM      9  N   UNL     1       5.057   3.567  19.492  0.00  0.00    +0.000 NA
ATOM     10  C   UNL     1       3.821   3.263  19.182  0.00  0.00    +0.000 A 
ATOM     11  C   UNL     1       3.074   2.073  19.422  0.00  0.00    +0.000 A 
ATOM     12  C   UNL     1       1.788   1.998  19.036  0.00  0.00    +0.000 A 
ATOM     13  C   UNL     1       1.133   3.115  18.379  0.00  0.00    +0.000 A 
ATOM     14  C   UNL     1       1.836   4.235  18.135  0.00  0.00    +0.000 A 
ATOM     15  N   UNL     1       3.180   4.309  18.521  0.00  0.00    +0.000 N 
ENDBRANCH   3   6
ENDBRANCH   1   2
BRANCH   1  16
ATOM     16  C   UNL     1       1.179   9.187  18.182  0.00  0.00    +0.000 C 
BRANCH  16  17
ATOM     17  O   UNL     1       1.308   9.958  19.392  0.00  0.00    +0.000 OA
BRANCH  17  18
ATOM     18  C   UNL     1       0.802   9.359  20.498  0.00  0.00    +0.000 C 
ATOM     19  O   UNL     1       1.053   8.220  20.861  0.00  0.00    +0.000 OA
BRANCH  18  23
ATOM     20  C   UNL     1      -1.952  12.078  22.451  0.00  0.00    +0.000 A 
ATOM     21  C   UNL     1      -1.660  12.147  21.079  0.00  0.00    +0.000 A 
ATOM     22  C   UNL     1      -0.777  11.249  20.472  0.00  0.00    +0.000 A 
ATOM     23  C   UNL     1      -0.149  10.251  21.217  0.00  0.00    +0.000 A 
ATOM     24  C   UNL     1      -0.429  10.153  22.584  0.00  0.00    +0.000 A 
ATOM     25  C   UNL     1      -1.318  11.057  23.188  0.00  0.00    +0.000 A 
BRANCH  20  27
ATOM     26  C   UNL     1      -2.204  14.199  23.891  0.00  0.00    +0.000 C 
ATOM     27  C   UNL     1      -2.927  13.064  23.126  0.00  0.00    +0.000 C 
ATOM     28  C   UNL     1      -3.822  12.332  24.148  0.00  0.00    +0.000 C 
ATOM     29  C   UNL     1      -3.831  13.728  22.066  0.00  0.00    +0.000 C 
ENDBRANCH  20  27
ENDBRANCH  18  23
ENDBRANCH  17  18
ENDBRANCH  16  17
ENDBRANCH   1  16
TORSDOF 7
ENDMDL
MODEL 3
REMARK VINA RESULT:      -7.8      4.021     10.449
REMARK  Name = 
REMARK  10 active torsions:
REMARK  status: ('A' for Active; 'I' for Inactive)
REMARK    1  A    between atoms: C_1  and  C_2
REMARK    2  A    between atoms: C_2  and  C_3
REMARK    3  A    between atoms: C_2  and  C_4
REMARK    4  A    between atoms: C_2  and  C_5
REMARK    5  A    between atoms: C_8  and  C_9
REMARK    6  A    between atoms: C_9  and  O_11
REMARK    7  A    between atoms: O_11  and  C_12
REMARK    8  A    between atoms: C_12  and  C_13
REMARK    9  A    between atoms: C_13  and  N_14
REMARK   10  A    between atoms: C_15  and  C_17
REMARK                            x       y       z     vdW  Elec       q    Type
REMARK                         _______ _______ _______ _____ _____    ______ ____
ROOT
ATOM      1  C   UNL     1       8.838   9.053  18.933  0.00  0.00    +0.000 C 
ENDROOT
BRANCH   1   2
ATOM      2  N   UNL     1       8.944  10.494  18.788  0.00  0.00    +0.000 N 
ATOM      3  C   UNL     1       9.336  11.318  19.818  0.00  0.00    +0.000 C 
ATOM      4  O   UNL     1       9.578  10.864  20.935  0.00  0.00    +0.000 OA
ATOM      5  H   UNL     1       8.780  10.886  17.868  0.00  0.00    +0.000 HD
BRANCH   3   6
ATOM      6  C   UNL     1       9.433  12.721  19.501  0.00  0.00    +0.000 A 
ATOM      7  C   UNL     1       8.773  13.821  20.029  0.00  0.00    +0.000 A 
ATOM      8 CL   UNL     1       7.602  13.844  21.273  0.00  0.00    +0.000 Cl
ATOM      9  N   UNL     1       9.133  14.987  19.406  0.00  0.00    +0.000 NA
ATOM     10  C   UNL     1      10.003  14.633  18.492  0.00  0.00    +0.000 A 
ATOM     11  C   UNL     1      10.707  15.419  17.535  0.00  0.00    +0.000 A 
ATOM     12  C   UNL     1      11.590  14.835  16.704  0.00  0.00    +0.000 A 
ATOM     13  C   UNL     1      11.849  13.407  16.766  0.00  0.00    +0.000 A 
ATOM     14  C   UNL     1      11.176  12.657  17.656  0.00  0.00    +0.000 A 
ATOM     15  N   UNL     1      10.245  13.261  18.510  0.00  0.00    +0.000 N 
ENDBRANCH   3   6
ENDBRANCH   1   2
BRANCH   1  16
ATOM     16  C   UNL     1       8.032   8.401  17.806  0.00  0.00    +0.000 C 
BRANCH  16  17
ATOM     17  O   UNL     1       7.923   6.980  18.012  0.00  0.00    +0.000 OA
BRANCH  17  18
ATOM     18  C   UNL     1       7.206   6.327  17.064  0.00  0.00    +0.000 C 
ATOM     19  O   UNL     1       7.524   6.217  15.889  0.00  0.00    +0.000 OA
BRANCH  18  23
ATOM     20  C   UNL     1       3.609   4.658  18.815  0.00  0.00    +0.000 A 
ATOM     21  C   UNL     1       4.792   4.853  19.547  0.00  0.00    +0.000 A 
ATOM     22  C   UNL     1       5.935   5.405  18.961  0.00  0.00    +0.000 A 
ATOM     23  C   UNL     1       5.937   5.779  17.616  0.00  0.00    +0.000 A 
ATOM     24  C   UNL     1       4.770   5.605  16.866  0.00  0.00    +0.000 A 
ATOM     25  C   UNL     1       3.625   5.051  17.461  0.00  0.00    +0.000 A 
BRANCH  20  27
ATOM     26  C   UNL     1       2.634   2.757  20.254  0.00  0.00    +0.000 C 
ATOM     27  C   UNL     1       2.345   4.052  19.457  0.00  0.00    +0.000 C 
ATOM     28  C   UNL     1       1.303   3.693  18.377  0.00  0.00    +0.000 C 
ATOM     29  C   UNL     1       1.710   5.062  20.437  0.00  0.00    +0.000 C 
ENDBRANCH  20  27
ENDBRANCH  18  23
ENDBRANCH  17  18
ENDBRANCH  16  17
ENDBRANCH   1  16
TORSDOF 7
ENDMDL
MODEL 4
REMARK VINA RESULT:      -7.5      6.140      8.108
REMARK  Name = 
REMARK  10 active torsions:
REMARK  status: ('A' for Active; 'I' for Inactive)
REMARK    1  A    between atoms: C_1  and  C_2
REMARK    2  A    between atoms: C_2  and  C_3
REMARK    3  A    between atoms: C_2  and  C_4
REMARK    4  A    between atoms: C_2  and  C_5
REMARK    5  A    between atoms: C_8  and  C_9
REMARK    6  A    between atoms: C_9  and  O_11
REMARK    7  A    between atoms: O_11  and  C_12
REMARK    8  A    between atoms: C_12  and  C_13
REMARK    9  A    between atoms: C_13  and  N_14
REMARK   10  A    between atoms: C_15  and  C_17
REMARK                            x       y       z     vdW  Elec       q    Type
REMARK                         _______ _______ _______ _____ _____    ______ ____
ROOT
ATOM      1  C   UNL     1       2.604   8.714  17.959  0.00  0.00    +0.000 C 
ENDROOT
BRANCH   1   2
ATOM      2  N   UNL     1       2.577   7.263  18.014  0.00  0.00    +0.000 N 
ATOM      3  C   UNL     1       3.696   6.490  17.799  0.00  0.00    +0.000 C 
ATOM      4  O   UNL     1       4.774   7.005  17.507  0.00  0.00    +0.000 OA
ATOM      5  H   UNL     1       1.707   6.819  18.283  0.00  0.00    +0.000 HD
BRANCH   3   6
ATOM      6  C   UNL     1       3.514   5.066  17.931  0.00  0.00    +0.000 A 
ATOM      7  C   UNL     1       4.013   4.011  17.181  0.00  0.00    +0.000 A 
ATOM      8 CL   UNL     1       5.045   4.087  15.821  0.00  0.00    +0.000 Cl
ATOM      9  N   UNL     1       3.555   2.800  17.625  0.00  0.00    +0.000 NA
ATOM     10  C   UNL     1       2.771   3.079  18.638  0.00  0.00    +0.000 A 
ATOM     11  C   UNL     1       2.009   2.220  19.481  0.00  0.00    +0.000 A 
ATOM     12  C   UNL     1       1.291   2.736  20.495  0.00  0.00    +0.000 A 
ATOM     13  C   UNL     1       1.279   4.165  20.756  0.00  0.00    +0.000 A 
ATOM     14  C   UNL     1       1.982   4.984  19.954  0.00  0.00    +0.000 A 
ATOM     15  N   UNL     1       2.718   4.449  18.888  0.00  0.00    +0.000 N 
ENDBRANCH   3   6
ENDBRANCH   1   2
BRANCH   1  16
ATOM     16  C   UNL     1       1.204   9.333  17.994  0.00  0.00    +0.000 C 
BRANCH  16  17
ATOM     17  O   UNL     1       1.063  10.213  19.126  0.00  0.00    +0.000 OA
BRANCH  17  18
ATOM     18  C   UNL     1       0.673   9.600  20.271  0.00  0.00    +0.000 C 
ATOM     19  O   UNL     1       0.995   8.472  20.612  0.00  0.00    +0.000 OA
BRANCH  18  23
ATOM     20  C   UNL     1      -1.997  12.229  22.450  0.00  0.00    +0.000 A 
ATOM     21  C   UNL     1      -1.788  12.336  21.065  0.00  0.00    +0.000 A 
ATOM     22  C   UNL     1      -0.930  11.467  20.384  0.00  0.00    +0.000 A 
ATOM     23  C   UNL     1      -0.246  10.459  21.067  0.00  0.00    +0.000 A 
ATOM     24  C   UNL     1      -0.443  10.324  22.444  0.00  0.00    +0.000 A 
ATOM     25  C   UNL     1      -1.308  11.199  23.122  0.00  0.00    +0.000 A 
BRANCH  20  27
ATOM     26  C   UNL     1      -2.190  14.243  24.045  0.00  0.00    +0.000 C 
ATOM     27  C   UNL     1      -2.944  13.183  23.205  0.00  0.00    +0.000 C 
ATOM     28  C   UNL     1      -3.848  12.398  24.179  0.00  0.00    +0.000 C 
ATOM     29  C   UNL     1      -3.841  13.944  22.206  0.00  0.00    +0.000 C 
ENDBRANCH  20  27
ENDBRANCH  18  23
ENDBRANCH  17  18
ENDBRANCH  16  17
ENDBRANCH   1  16
TORSDOF 7
ENDMDL
MODEL 5
REMARK VINA RESULT:      -7.5      5.308      7.503
REMARK  Name = 
REMARK  10 active torsions:
REMARK  status: ('A' for Active; 'I' for Inactive)
REMARK    1  A    between atoms: C_1  and  C_2
REMARK    2  A    between atoms: C_2  and  C_3
REMARK    3  A    between atoms: C_2  and  C_4
REMARK    4  A    between atoms: C_2  and  C_5
REMARK    5  A    between atoms: C_8  and  C_9
REMARK    6  A    between atoms: C_9  and  O_11
REMARK    7  A    between atoms: O_11  and  C_12
REMARK    8  A    between atoms: C_12  and  C_13
REMARK    9  A    between atoms: C_13  and  N_14
REMARK   10  A    between atoms: C_15  and  C_17
REMARK                            x       y       z     vdW  Elec       q    Type
REMARK                         _______ _______ _______ _____ _____    ______ ____
ROOT
ATOM      1  C   UNL     1       2.489   3.657  17.379  0.00  0.00    +0.000 C 
ENDROOT
BRANCH   1   2
ATOM      2  N   UNL     1       3.647   4.267  16.749  0.00  0.00    +0.000 N 
ATOM      3  C   UNL     1       4.865   3.631  16.660  0.00  0.00    +0.000 C 
ATOM      4  O   UNL     1       5.035   2.518  17.155  0.00  0.00    +0.000 OA
ATOM      5  H   UNL     1       3.521   5.169  16.308  0.00  0.00    +0.000 HD
BRANCH   3   6
ATOM      6  C   UNL     1       5.903   4.351  15.967  0.00  0.00    +0.000 A 
ATOM      7  C   UNL     1       6.798   5.312  16.414  0.00  0.00    +0.000 A 
ATOM      8 CL   UNL     1       6.949   5.951  17.992  0.00  0.00    +0.000 Cl
ATOM      9  N   UNL     1       7.601   5.778  15.407  0.00  0.00    +0.000 NA
ATOM     10  C   UNL     1       7.219   5.129  14.335  0.00  0.00    +0.000 A 
ATOM     11  C   UNL     1       7.686   5.208  12.991  0.00  0.00    +0.000 A 
ATOM     12  C   UNL     1       7.157   4.408  12.047  0.00  0.00    +0.000 A 
ATOM     13  C   UNL     1       6.114   3.451  12.370  0.00  0.00    +0.000 A 
ATOM     14  C   UNL     1       5.656   3.383  13.633  0.00  0.00    +0.000 A 
ATOM     15  N   UNL     1       6.194   4.226  14.614  0.00  0.00    +0.000 N 
ENDBRANCH   3   6
ENDBRANCH   1   2
BRANCH   1  16
ATOM     16  C   UNL     1       1.556   4.687  18.024  0.00  0.00    +0.000 C 
BRANCH  16  17
ATOM     17  O   UNL     1       1.969   4.975  19.374  0.00  0.00    +0.000 OA
BRANCH  17  18
ATOM     18  C   UNL     1       2.900   5.955  19.481  0.00  0.00    +0.000 C 
ATOM     19  O   UNL     1       4.093   5.777  19.671  0.00  0.00    +0.000 OA
BRANCH  18  23
ATOM     20  C   UNL     1       1.009   9.853  19.337  0.00  0.00    +0.000 A 
ATOM     21  C   UNL     1       1.013   9.051  20.491  0.00  0.00    +0.000 A 
ATOM     22  C   UNL     1       1.641   7.803  20.514  0.00  0.00    +0.000 A 
ATOM     23  C   UNL     1       2.286   7.308  19.380  0.00  0.00    +0.000 A 
ATOM     24  C   UNL     1       2.306   8.088  18.220  0.00  0.00    +0.000 A 
ATOM     25  C   UNL     1       1.674   9.343  18.203  0.00  0.00    +0.000 A 
BRANCH  20  27
ATOM     26  C   UNL     1       1.220  12.344  18.717  0.00  0.00    +0.000 C 
ATOM     27  C   UNL     1       0.319  11.231  19.306  0.00  0.00    +0.000 C 
ATOM     28  C   UNL     1      -0.073  11.678  20.731  0.00  0.00    +0.000 C 
ATOM     29  C   UNL     1      -0.957  11.169  18.441  0.00  0.00    +0.000 C 
ENDBRANCH  20  27
ENDBRANCH  18  23
ENDBRANCH  17  18
ENDBRANCH  16  17
ENDBRANCH   1  16
TORSDOF 7
ENDMDL
MODEL 6
REMARK VINA RESULT:      -7.4      6.013      8.001
REMARK  Name = 
REMARK  10 active torsions:
REMARK  status: ('A' for Active; 'I' for Inactive)
REMARK    1  A    between atoms: C_1  and  C_2
REMARK    2  A    between atoms: C_2  and  C_3
REMARK    3  A    between atoms: C_2  and  C_4
REMARK    4  A    between atoms: C_2  and  C_5
REMARK    5  A    between atoms: C_8  and  C_9
REMARK    6  A    between atoms: C_9  and  O_11
REMARK    7  A    between atoms: O_11  and  C_12
REMARK    8  A    between atoms: C_12  and  C_13
REMARK    9  A    between atoms: C_13  and  N_14
REMARK   10  A    between atoms: C_15  and  C_17
REMARK                            x       y       z     vdW  Elec       q    Type
REMARK                         _______ _______ _______ _____ _____    ______ ____
ROOT
ATOM      1  C   UNL     1       2.707   8.704  17.485  0.00  0.00    +0.000 C 
ENDROOT
BRANCH   1   2
ATOM      2  N   UNL     1       3.008   7.432  18.119  0.00  0.00    +0.000 N 
ATOM      3  C   UNL     1       3.923   6.542  17.603  0.00  0.00    +0.000 C 
ATOM      4  O   UNL     1       4.502   6.774  16.544  0.00  0.00    +0.000 OA
ATOM      5  H   UNL     1       2.565   7.235  19.009  0.00  0.00    +0.000 HD
BRANCH   3   6
ATOM      6  C   UNL     1       4.140   5.343  18.374  0.00  0.00    +0.000 A 
ATOM      7  C   UNL     1       5.262   4.888  19.051  0.00  0.00    +0.000 A 
ATOM      8 CL   UNL     1       6.786   5.648  19.186  0.00  0.00    +0.000 Cl
ATOM      9  N   UNL     1       5.055   3.662  19.626  0.00  0.00    +0.000 NA
ATOM     10  C   UNL     1       3.823   3.340  19.314  0.00  0.00    +0.000 A 
ATOM     11  C   UNL     1       3.066   2.174  19.628  0.00  0.00    +0.000 A 
ATOM     12  C   UNL     1       1.788   2.074  19.222  0.00  0.00    +0.000 A 
ATOM     13  C   UNL     1       1.152   3.141  18.469  0.00  0.00    +0.000 A 
ATOM     14  C   UNL     1       1.865   4.237  18.155  0.00  0.00    +0.000 A 
ATOM     15  N   UNL     1       3.202   4.336  18.563  0.00  0.00    +0.000 N 
ENDBRANCH   3   6
ENDBRANCH   1   2
BRANCH   1  16
ATOM     16  C   UNL     1       2.115   9.725  18.460  0.00  0.00    +0.000 C 
BRANCH  16  17
ATOM     17  O   UNL     1       0.866   9.251  19.000  0.00  0.00    +0.000 OA
BRANCH  17  18
ATOM     18  C   UNL     1       0.843   9.138  20.351  0.00  0.00    +0.000 C 
ATOM     19  O   UNL     1       1.440   8.291  20.998  0.00  0.00    +0.000 OA
BRANCH  18  23
ATOM     20  C   UNL     1      -1.752  12.003  22.312  0.00  0.00    +0.000 A 
ATOM     21  C   UNL     1      -1.047  11.010  23.013  0.00  0.00    +0.000 A 
ATOM     22  C   UNL     1      -0.207  10.106  22.357  0.00  0.00    +0.000 A 
ATOM     23  C   UNL     1      -0.043  10.159  20.972  0.00  0.00    +0.000 A 
ATOM     24  C   UNL     1      -0.725  11.143  20.250  0.00  0.00    +0.000 A 
ATOM     25  C   UNL     1      -1.567  12.050  20.915  0.00  0.00    +0.000 A 
BRANCH  20  27
ATOM     26  C   UNL     1      -3.685  12.318  23.986  0.00  0.00    +0.000 C 
ATOM     27  C   UNL     1      -2.678  13.004  23.030  0.00  0.00    +0.000 C 
ATOM     28  C   UNL     1      -3.507  13.812  22.008  0.00  0.00    +0.000 C 
ATOM     29  C   UNL     1      -1.843  13.990  23.875  0.00  0.00    +0.000 C 
ENDBRANCH  20  27
ENDBRANCH  18  23
ENDBRANCH  17  18
ENDBRANCH  16  17
ENDBRANCH   1  16
TORSDOF 7
ENDMDL
MODEL 7
REMARK VINA RESULT:      -7.3      6.589      8.609
REMARK  Name = 
REMARK  10 active torsions:
REMARK  status: ('A' for Active; 'I' for Inactive)
REMARK    1  A    between atoms: C_1  and  C_2
REMARK    2  A    between atoms: C_2  and  C_3
REMARK    3  A    between atoms: C_2  and  C_4
REMARK    4  A    between atoms: C_2  and  C_5
REMARK    5  A    between atoms: C_8  and  C_9
REMARK    6  A    between atoms: C_9  and  O_11
REMARK    7  A    between atoms: O_11  and  C_12
REMARK    8  A    between atoms: C_12  and  C_13
REMARK    9  A    between atoms: C_13  and  N_14
REMARK   10  A    between atoms: C_15  and  C_17
REMARK                            x       y       z     vdW  Elec       q    Type
REMARK                         _______ _______ _______ _____ _____    ______ ____
ROOT
ATOM      1  C   UNL     1       2.154   9.388  17.898  0.00  0.00    +0.000 C 
ENDROOT
BRANCH   1   2
ATOM      2  N   UNL     1       2.501   8.016  17.574  0.00  0.00    +0.000 N 
ATOM      3  C   UNL     1       2.771   7.070  18.537  0.00  0.00    +0.000 C 
ATOM      4  O   UNL     1       2.770   7.365  19.731  0.00  0.00    +0.000 OA
ATOM      5  H   UNL     1       2.477   7.743  16.598  0.00  0.00    +0.000 HD
BRANCH   3   6
ATOM      6  C   UNL     1       3.057   5.742  18.055  0.00  0.00    +0.000 A 
ATOM      7  C   UNL     1       3.965   5.294  17.107  0.00  0.00    +0.000 A 
ATOM      8 CL   UNL     1       5.071   6.222  16.193  0.00  0.00    +0.000 Cl
ATOM      9  N   UNL     1       3.883   3.940  16.914  0.00  0.00    +0.000 NA
ATOM     10  C   UNL     1       2.934   3.535  17.721  0.00  0.00    +0.000 A 
ATOM     11  C   UNL     1       2.403   2.231  17.941  0.00  0.00    +0.000 A 
ATOM     12  C   UNL     1       1.436   2.045  18.858  0.00  0.00    +0.000 A 
ATOM     13  C   UNL     1       0.919   3.153  19.641  0.00  0.00    +0.000 A 
ATOM     14  C   UNL     1       1.404   4.389  19.427  0.00  0.00    +0.000 A 
ATOM     15  N   UNL     1       2.399   4.587  18.461  0.00  0.00    +0.000 N 
ENDBRANCH   3   6
ENDBRANCH   1   2
BRANCH   1  16
ATOM     16  C   UNL     1       0.705   9.536  18.370  0.00  0.00    +0.000 C 
BRANCH  16  17
ATOM     17  O   UNL     1       0.595  10.577  19.360  0.00  0.00    +0.000 OA
BRANCH  17  18
ATOM     18  C   UNL     1       0.330  10.136  20.615  0.00  0.00    +0.000 C 
ATOM     19  O   UNL     1       0.837   9.157  21.140  0.00  0.00    +0.000 OA
BRANCH  18  23
ATOM     20  C   UNL     1      -2.677  12.454  22.707  0.00  0.00    +0.000 A 
ATOM     21  C   UNL     1      -1.836  11.535  23.357  0.00  0.00    +0.000 A 
ATOM     22  C   UNL     1      -0.866  10.809  22.660  0.00  0.00    +0.000 A 
ATOM     23  C   UNL     1      -0.704  10.973  21.284  0.00  0.00    +0.000 A 
ATOM     24  C   UNL     1      -1.521  11.888  20.613  0.00  0.00    +0.000 A 
ATOM     25  C   UNL     1      -2.493  12.616  21.318  0.00  0.00    +0.000 A 
BRANCH  20  27
ATOM     26  C   UNL     1      -4.459  12.430  24.567  0.00  0.00    +0.000 C 
ATOM     27  C   UNL     1      -3.747  13.259  23.471  0.00  0.00    +0.000 C 
ATOM     28  C   UNL     1      -4.842  13.764  22.507  0.00  0.00    +0.000 C 
ATOM     29  C   UNL     1      -3.102  14.477  24.165  0.00  0.00    +0.000 C 
ENDBRANCH  20  27
ENDBRANCH  18  23
ENDBRANCH  17  18
ENDBRANCH  16  17
ENDBRANCH   1  16
TORSDOF 7
ENDMDL
MODEL 8
REMARK VINA RESULT:      -7.3      6.854      9.603
REMARK  Name = 
REMARK  10 active torsions:
REMARK  status: ('A' for Active; 'I' for Inactive)
REMARK    1  A    between atoms: C_1  and  C_2
REMARK    2  A    between atoms: C_2  and  C_3
REMARK    3  A    between atoms: C_2  and  C_4
REMARK    4  A    between atoms: C_2  and  C_5
REMARK    5  A    between atoms: C_8  and  C_9
REMARK    6  A    between atoms: C_9  and  O_11
REMARK    7  A    between atoms: O_11  and  C_12
REMARK    8  A    between atoms: C_12  and  C_13
REMARK    9  A    between atoms: C_13  and  N_14
REMARK   10  A    between atoms: C_15  and  C_17
REMARK                            x       y       z     vdW  Elec       q    Type
REMARK                         _______ _______ _______ _____ _____    ______ ____
ROOT
ATOM      1  C   UNL     1       1.414   8.567  21.469  0.00  0.00    +0.000 C 
ENDROOT
BRANCH   1   2
ATOM      2  N   UNL     1       1.766   7.346  20.767  0.00  0.00    +0.000 N 
ATOM      3  C   UNL     1       2.201   7.339  19.460  0.00  0.00    +0.000 C 
ATOM      4  O   UNL     1       2.269   8.381  18.811  0.00  0.00    +0.000 OA
ATOM      5  H   UNL     1       1.747   6.480  21.292  0.00  0.00    +0.000 HD
BRANCH   3   6
ATOM      6  C   UNL     1       2.553   6.050  18.919  0.00  0.00    +0.000 A 
ATOM      7  C   UNL     1       2.108   4.776  19.241  0.00  0.00    +0.000 A 
ATOM      8 CL   UNL     1       0.954   4.335  20.421  0.00  0.00    +0.000 Cl
ATOM      9  N   UNL     1       2.739   3.808  18.505  0.00  0.00    +0.000 NA
ATOM     10  C   UNL     1       3.577   4.456  17.732  0.00  0.00    +0.000 A 
ATOM     11  C   UNL     1       4.505   3.971  16.766  0.00  0.00    +0.000 A 
ATOM     12  C   UNL     1       5.250   4.838  16.057  0.00  0.00    +0.000 A 
ATOM     13  C   UNL     1       5.126   6.272  16.252  0.00  0.00    +0.000 A 
ATOM     14  C   UNL     1       4.264   6.735  17.174  0.00  0.00    +0.000 A 
ATOM     15  N   UNL     1       3.498   5.834  17.924  0.00  0.00    +0.000 N 
ENDBRANCH   3   6
ENDBRANCH   1   2
BRANCH   1  16
ATOM     16  C   UNL     1       0.089   9.166  20.987  0.00  0.00    +0.000 C 
BRANCH  16  17
ATOM     17  O   UNL     1       0.198  10.595  20.842  0.00  0.00    +0.000 OA
BRANCH  17  18
ATOM     18  C   UNL     1       0.047  11.045  19.571  0.00  0.00    +0.000 C 
ATOM     19  O   UNL     1       0.959  11.288  18.796  0.00  0.00    +0.000 OA
BRANCH  18  23
ATOM     20  C   UNL     1      -4.154  11.726  18.748  0.00  0.00    +0.000 A 
ATOM     21  C   UNL     1      -3.457  12.408  19.760  0.00  0.00    +0.000 A 
ATOM     22  C   UNL     1      -2.098  12.177  19.996  0.00  0.00    +0.000 A 
ATOM     23  C   UNL     1      -1.387  11.253  19.230  0.00  0.00    +0.000 A 
ATOM     24  C   UNL     1      -2.054  10.568  18.210  0.00  0.00    +0.000 A 
ATOM     25  C   UNL     1      -3.419  10.804  17.976  0.00  0.00    +0.000 A 
BRANCH  20  27
ATOM     26  C   UNL     1      -6.510  10.695  18.599  0.00  0.00    +0.000 C 
ATOM     27  C   UNL     1      -5.652  11.978  18.481  0.00  0.00    +0.000 C 
ATOM     28  C   UNL     1      -5.867  12.533  17.057  0.00  0.00    +0.000 C 
ATOM     29  C   UNL     1      -6.209  12.998  19.497  0.00  0.00    +0.000 C 
ENDBRANCH  20  27
ENDBRANCH  18  23
ENDBRANCH  17  18
ENDBRANCH  16  17
ENDBRANCH   1  16
TORSDOF 7
ENDMDL
MODEL 9
REMARK VINA RESULT:      -7.3      6.759      9.350
REMARK  Name = 
REMARK  10 active torsions:
REMARK  status: ('A' for Active; 'I' for Inactive)
REMARK    1  A    between atoms: C_1  and  C_2
REMARK    2  A    between atoms: C_2  and  C_3
REMARK    3  A    between atoms: C_2  and  C_4
REMARK    4  A    between atoms: C_2  and  C_5
REMARK    5  A    between atoms: C_8  and  C_9
REMARK    6  A    between atoms: C_9  and  O_11
REMARK    7  A    between atoms: O_11  and  C_12
REMARK    8  A    between atoms: C_12  and  C_13
REMARK    9  A    between atoms: C_13  and  N_14
REMARK   10  A    between atoms: C_15  and  C_17
REMARK                            x       y       z     vdW  Elec       q    Type
REMARK                         _______ _______ _______ _____ _____    ______ ____
ROOT
ATOM      1  C   UNL     1       2.193   8.767  17.996  0.00  0.00    +0.000 C 
ENDROOT
BRANCH   1   2
ATOM      2  N   UNL     1       2.276   7.318  18.041  0.00  0.00    +0.000 N 
ATOM      3  C   UNL     1       3.444   6.632  17.796  0.00  0.00    +0.000 C 
ATOM      4  O   UNL     1       4.473   7.227  17.483  0.00  0.00    +0.000 OA
ATOM      5  H   UNL     1       1.448   6.809  18.328  0.00  0.00    +0.000 HD
BRANCH   3   6
ATOM      6  C   UNL     1       3.372   5.198  17.923  0.00  0.00    +0.000 A 
ATOM      7  C   UNL     1       3.958   4.187  17.175  0.00  0.00    +0.000 A 
ATOM      8 CL   UNL     1       4.992   4.347  15.823  0.00  0.00    +0.000 Cl
ATOM      9  N   UNL     1       3.591   2.942  17.611  0.00  0.00    +0.000 NA
ATOM     10  C   UNL     1       2.779   3.157  18.618  0.00  0.00    +0.000 A 
ATOM     11  C   UNL     1       2.079   2.238  19.452  0.00  0.00    +0.000 A 
ATOM     12  C   UNL     1       1.315   2.694  20.461  0.00  0.00    +0.000 A 
ATOM     13  C   UNL     1       1.190   4.116  20.726  0.00  0.00    +0.000 A 
ATOM     14  C   UNL     1       1.834   4.990  19.932  0.00  0.00    +0.000 A 
ATOM     15  N   UNL     1       2.618   4.518  18.871  0.00  0.00    +0.000 N 
ENDBRANCH   3   6
ENDBRANCH   1   2
BRANCH   1  16
ATOM     16  C   UNL     1       1.441   9.354  19.194  0.00  0.00    +0.000 C 
BRANCH  16  17
ATOM     17  O   UNL     1       0.080   9.667  18.838  0.00  0.00    +0.000 OA
BRANCH  17  18
ATOM     18  C   UNL     1      -0.180  10.992  18.717  0.00  0.00    +0.000 C 
ATOM     19  O   UNL     1       0.664  11.872  18.635  0.00  0.00    +0.000 OA
BRANCH  18  23
ATOM     20  C   UNL     1      -4.449  11.734  18.595  0.00  0.00    +0.000 A 
ATOM     21  C   UNL     1      -3.800  10.873  17.694  0.00  0.00    +0.000 A 
ATOM     22  C   UNL     1      -2.423  10.642  17.763  0.00  0.00    +0.000 A 
ATOM     23  C   UNL     1      -1.643  11.268  18.736  0.00  0.00    +0.000 A 
ATOM     24  C   UNL     1      -2.263  12.122  19.652  0.00  0.00    +0.000 A 
ATOM     25  C   UNL     1      -3.648  12.350  19.579  0.00  0.00    +0.000 A 
BRANCH  20  27
ATOM     26  C   UNL     1      -6.497  12.811  19.727  0.00  0.00    +0.000 C 
ATOM     27  C   UNL     1      -5.967  11.991  18.525  0.00  0.00    +0.000 C 
ATOM     28  C   UNL     1      -6.747  10.659  18.511  0.00  0.00    +0.000 C 
ATOM     29  C   UNL     1      -6.315  12.778  17.244  0.00  0.00    +0.000 C 
ENDBRANCH  20  27
ENDBRANCH  18  23
ENDBRANCH  17  18
ENDBRANCH  16  17
ENDBRANCH   1  16
TORSDOF 7
ENDMDL
