MODEL 1
REMARK VINA RESULT:      -8.4      0.000      0.000
REMARK  Name = 
REMARK  12 active torsions:
REMARK  status: ('A' for Active; 'I' for Inactive)
REMARK    1  A    between atoms: C_1  and  O_2
REMARK    2  A    between atoms: O_2  and  C_3
REMARK    3  A    between atoms: C_6  and  C_7
REMARK    4  A    between atoms: C_7  and  N_8
REMARK    5  A    between atoms: C_14  and  C_15
REMARK    6  A    between atoms: C_15  and  C_16
REMARK    7  A    between atoms: N_18  and  C_19
REMARK    8  A    between atoms: N_18  and  C_20
REMARK    9  A    between atoms: C_20  and  C_21
REMARK   10  A    between atoms: C_21  and  C_22
REMARK   11  A    between atoms: C_28  and  O_29
REMARK   12  A    between atoms: O_29  and  C_30
REMARK                            x       y       z     vdW  Elec       q    Type
REMARK                         _______ _______ _______ _____ _____    ______ ____
ROOT
ATOM      1  N   UNL     1       2.854   3.939  17.986  0.00  0.00    +0.000 NA
ATOM      2  C   UNL     1       2.163   2.641  17.845  0.00  0.00    +0.000 C 
ATOM      3  C   UNL     1       1.802   1.907  19.137  0.00  0.00    +0.000 C 
ATOM      4  N   UNL     1       1.335   2.773  20.188  0.00  0.00    +0.000 N 
ATOM      5  C   UNL     1       1.825   4.052  20.326  0.00  0.00    +0.000 C 
ATOM      6  O   UNL     1       1.862   4.539  21.455  0.00  0.00    +0.000 OA
ATOM      7  C   UNL     1       2.188   4.826  19.024  0.00  0.00    +0.000 C 
ATOM      8  H   UNL     1       1.087   2.348  21.074  0.00  0.00    +0.000 HD
ENDROOT
BRANCH   1   9
ATOM      9  C   UNL     1       4.293   3.814  18.244  0.00  0.00    +0.000 C 
BRANCH   9  13
ATOM     10  C   UNL     1       7.055   5.030  15.187  0.00  0.00    +0.000 A 
ATOM     11  C   UNL     1       5.727   4.761  14.830  0.00  0.00    +0.000 A 
ATOM     12  C   UNL     1       4.819   4.356  15.805  0.00  0.00    +0.000 A 
ATOM     13  C   UNL     1       5.244   4.217  17.137  0.00  0.00    +0.000 A 
ATOM     14  C   UNL     1       6.550   4.591  17.503  0.00  0.00    +0.000 A 
ATOM     15  C   UNL     1       7.467   4.969  16.527  0.00  0.00    +0.000 A 
BRANCH  10  17
ATOM     16  C   UNL     1       7.475   4.882  12.882  0.00  0.00    +0.000 C 
ATOM     17  O   UNL     1       7.833   5.445  14.136  0.00  0.00    +0.000 OA
ENDBRANCH  10  17
BRANCH  14  18
ATOM     18  O   UNL     1       6.699   4.737  18.859  0.00  0.00    +0.000 OA
ATOM     19  C   UNL     1       7.595   5.658  19.440  0.00  0.00    +0.000 C 
ENDBRANCH  14  18
ENDBRANCH   9  13
ENDBRANCH   1   9
BRANCH   7  20
ATOM     20  C   UNL     1       3.067   6.066  19.351  0.00  0.00    +0.000 C 
BRANCH  20  21
ATOM     21  C   UNL     1       2.778   7.338  18.590  0.00  0.00    +0.000 C 
ATOM     22  O   UNL     1       3.297   7.563  17.491  0.00  0.00    +0.000 OA
ATOM     23  N   UNL     1       1.904   8.253  19.197  0.00  0.00    +0.000 N 
ATOM     24  C   UNL     1       1.476   8.188  20.601  0.00  0.00    +0.000 C 
BRANCH  23  25
ATOM     25  C   UNL     1       1.355   9.341  18.394  0.00  0.00    +0.000 C 
BRANCH  25  26
ATOM     26  C   UNL     1       0.576  10.389  19.200  0.00  0.00    +0.000 C 
BRANCH  26  27
ATOM     27  C   UNL     1      -0.937  10.375  18.902  0.00  0.00    +0.000 C 
ATOM     28  C   UNL     1      -1.205   9.897  17.466  0.00  0.00    +0.000 C 
ATOM     29  C   UNL     1      -2.694   9.954  17.140  0.00  0.00    +0.000 C 
ATOM     30  O   UNL     1      -3.203  11.271  17.337  0.00  0.00    +0.000 OA
ATOM     31  C   UNL     1      -3.074  11.697  18.691  0.00  0.00    +0.000 C 
ATOM     32  C   UNL     1      -1.608  11.743  19.108  0.00  0.00    +0.000 C 
ENDBRANCH  26  27
ENDBRANCH  25  26
ENDBRANCH  23  25
ENDBRANCH  20  21
ENDBRANCH   7  20
TORSDOF 9
ENDMDL
MODEL 2
REMARK VINA RESULT:      -8.1      0.908      1.052
REMARK  Name = 
REMARK  12 active torsions:
REMARK  status: ('A' for Active; 'I' for Inactive)
REMARK    1  A    between atoms: C_1  and  O_2
REMARK    2  A    between atoms: O_2  and  C_3
REMARK    3  A    between atoms: C_6  and  C_7
REMARK    4  A    between atoms: C_7  and  N_8
REMARK    5  A    between atoms: C_14  and  C_15
REMARK    6  A    between atoms: C_15  and  C_16
REMARK    7  A    between atoms: N_18  and  C_19
REMARK    8  A    between atoms: N_18  and  C_20
REMARK    9  A    between atoms: C_20  and  C_21
REMARK   10  A    between atoms: C_21  and  C_22
REMARK   11  A    between atoms: C_28  and  O_29
REMARK   12  A    between atoms: O_29  and  C_30
REMARK                            x       y       z     vdW  Elec       q    Type
REMARK                         _______ _______ _______ _____ _____    ______ ____
ROOT
ATOM      1  N   UNL     1       2.955   4.152  18.075  0.00  0.00    +0.000 NA
ATOM      2  C   UNL     1       2.482   2.794  17.740  0.00  0.00    +0.000 C 
ATOM      3  C   UNL     1       2.262   1.831  18.907  0.00  0.00    +0.000 C 
ATOM      4  N   UNL     1       1.675   2.448  20.069  0.00  0.00    +0.000 N 
ATOM      5  C   UNL     1       1.953   3.756  20.396  0.00  0.00    +0.000 C 
ATOM      6  O   UNL     1       1.924   4.073  21.584  0.00  0.00    +0.000 OA
ATOM      7  C   UNL     1       2.167   4.759  19.224  0.00  0.00    +0.000 C 
ATOM      8  H   UNL     1       1.511   1.864  20.880  0.00  0.00    +0.000 HD
ENDROOT
BRANCH   1   9
ATOM      9  C   UNL     1       4.398   4.227  18.327  0.00  0.00    +0.000 C 
BRANCH   9  13
ATOM     10  C   UNL     1       7.056   5.057  15.057  0.00  0.00    +0.000 A 
ATOM     11  C   UNL     1       5.674   5.076  14.826  0.00  0.00    +0.000 A 
ATOM     12  C   UNL     1       4.797   4.800  15.871  0.00  0.00    +0.000 A 
ATOM     13  C   UNL     1       5.305   4.501  17.147  0.00  0.00    +0.000 A 
ATOM     14  C   UNL     1       6.687   4.588  17.393  0.00  0.00    +0.000 A 
ATOM     15  C   UNL     1       7.569   4.837  16.345  0.00  0.00    +0.000 A 
BRANCH  10  17
ATOM     16  C   UNL     1       7.400   4.709  12.761  0.00  0.00    +0.000 C 
ATOM     17  O   UNL     1       7.803   5.373  13.950  0.00  0.00    +0.000 OA
ENDBRANCH  10  17
BRANCH  14  18
ATOM     18  O   UNL     1       6.987   4.621  18.731  0.00  0.00    +0.000 OA
ATOM     19  C   UNL     1       7.683   5.685  19.339  0.00  0.00    +0.000 C 
ENDBRANCH  14  18
ENDBRANCH   9  13
ENDBRANCH   1   9
BRANCH   7  20
ATOM     20  C   UNL     1       2.837   6.065  19.737  0.00  0.00    +0.000 C 
BRANCH  20  21
ATOM     21  C   UNL     1       1.927   7.219  20.082  0.00  0.00    +0.000 C 
ATOM     22  O   UNL     1       1.260   7.225  21.123  0.00  0.00    +0.000 OA
ATOM     23  N   UNL     1       1.866   8.274  19.159  0.00  0.00    +0.000 N 
ATOM     24  C   UNL     1       2.400   8.214  17.791  0.00  0.00    +0.000 C 
BRANCH  23  25
ATOM     25  C   UNL     1       1.253   9.533  19.568  0.00  0.00    +0.000 C 
BRANCH  25  26
ATOM     26  C   UNL     1       0.593  10.314  18.423  0.00  0.00    +0.000 C 
BRANCH  26  27
ATOM     27  C   UNL     1      -0.943  10.386  18.550  0.00  0.00    +0.000 C 
ATOM     28  C   UNL     1      -1.621   9.837  17.285  0.00  0.00    +0.000 C 
ATOM     29  C   UNL     1      -3.136   9.976  17.372  0.00  0.00    +0.000 C 
ATOM     30  O   UNL     1      -3.506  11.336  17.593  0.00  0.00    +0.000 OA
ATOM     31  C   UNL     1      -2.987  11.838  18.822  0.00  0.00    +0.000 C 
ATOM     32  C   UNL     1      -1.462  11.808  18.820  0.00  0.00    +0.000 C 
ENDBRANCH  26  27
ENDBRANCH  25  26
ENDBRANCH  23  25
ENDBRANCH  20  21
ENDBRANCH   7  20
TORSDOF 9
ENDMDL
MODEL 3
REMARK VINA RESULT:      -7.8      1.354      1.774
REMARK  Name = 
REMARK  12 active torsions:
REMARK  status: ('A' for Active; 'I' for Inactive)
REMARK    1  A    between atoms: C_1  and  O_2
REMARK    2  A    between atoms: O_2  and  C_3
REMARK    3  A    between atoms: C_6  and  C_7
REMARK    4  A    between atoms: C_7  and  N_8
REMARK    5  A    between atoms: C_14  and  C_15
REMARK    6  A    between atoms: C_15  and  C_16
REMARK    7  A    between atoms: N_18  and  C_19
REMARK    8  A    between atoms: N_18  and  C_20
REMARK    9  A    between atoms: C_20  and  C_21
REMARK   10  A    between atoms: C_21  and  C_22
REMARK   11  A    between atoms: C_28  and  O_29
REMARK   12  A    between atoms: O_29  and  C_30
REMARK                            x       y       z     vdW  Elec       q    Type
REMARK                         _______ _______ _______ _____ _____    ______ ____
ROOT
ATOM      1  N   UNL     1       2.870   3.987  18.008  0.00  0.00    +0.000 NA
ATOM      2  C   UNL     1       2.196   2.687  17.819  0.00  0.00    +0.000 C 
ATOM      3  C   UNL     1       1.847   1.900  19.083  0.00  0.00    +0.000 C 
ATOM      4  N   UNL     1       1.369   2.721  20.166  0.00  0.00    +0.000 N 
ATOM      5  C   UNL     1       1.843   3.999  20.351  0.00  0.00    +0.000 C 
ATOM      6  O   UNL     1       1.874   4.444  21.498  0.00  0.00    +0.000 OA
ATOM      7  C   UNL     1       2.194   4.826  19.080  0.00  0.00    +0.000 C 
ATOM      8  H   UNL     1       1.128   2.259  21.035  0.00  0.00    +0.000 HD
ENDROOT
BRANCH   1   9
ATOM      9  C   UNL     1       4.311   3.872  18.261  0.00  0.00    +0.000 C 
BRANCH   9  13
ATOM     10  C   UNL     1       7.063   5.008  15.164  0.00  0.00    +0.000 A 
ATOM     11  C   UNL     1       5.699   4.922  14.857  0.00  0.00    +0.000 A 
ATOM     12  C   UNL     1       4.792   4.546  15.845  0.00  0.00    +0.000 A 
ATOM     13  C   UNL     1       5.255   4.252  17.140  0.00  0.00    +0.000 A 
ATOM     14  C   UNL     1       6.610   4.443  17.464  0.00  0.00    +0.000 A 
ATOM     15  C   UNL     1       7.522   4.793  16.473  0.00  0.00    +0.000 A 
BRANCH  10  17
ATOM     16  C   UNL     1       7.409   4.932  12.844  0.00  0.00    +0.000 C 
ATOM     17  O   UNL     1       7.839   5.415  14.109  0.00  0.00    +0.000 OA
ENDBRANCH  10  17
BRANCH  14  18
ATOM     18  O   UNL     1       6.834   4.462  18.818  0.00  0.00    +0.000 OA
ATOM     19  C   UNL     1       7.423   5.554  19.486  0.00  0.00    +0.000 C 
ENDBRANCH  14  18
ENDBRANCH   9  13
ENDBRANCH   1   9
BRANCH   7  20
ATOM     20  C   UNL     1       3.057   6.065  19.452  0.00  0.00    +0.000 C 
BRANCH  20  21
ATOM     21  C   UNL     1       2.869   7.313  18.623  0.00  0.00    +0.000 C 
ATOM     22  O   UNL     1       3.472   7.474  17.557  0.00  0.00    +0.000 OA
ATOM     23  N   UNL     1       1.988   8.281  19.129  0.00  0.00    +0.000 N 
ATOM     24  C   UNL     1       1.460   8.289  20.501  0.00  0.00    +0.000 C 
BRANCH  23  25
ATOM     25  C   UNL     1       1.537   9.352  18.247  0.00  0.00    +0.000 C 
BRANCH  25  26
ATOM     26  C   UNL     1       0.188   9.968  18.641  0.00  0.00    +0.000 C 
BRANCH  26  27
ATOM     27  C   UNL     1       0.207  11.510  18.641  0.00  0.00    +0.000 C 
ATOM     28  C   UNL     1       1.650  12.037  18.694  0.00  0.00    +0.000 C 
ATOM     29  C   UNL     1       1.674  13.560  18.771  0.00  0.00    +0.000 C 
ATOM     30  O   UNL     1       0.926  14.019  19.896  0.00  0.00    +0.000 OA
ATOM     31  C   UNL     1      -0.447  13.644  19.815  0.00  0.00    +0.000 C 
ATOM     32  C   UNL     1      -0.594  12.126  19.799  0.00  0.00    +0.000 C 
ENDBRANCH  26  27
ENDBRANCH  25  26
ENDBRANCH  23  25
ENDBRANCH  20  21
ENDBRANCH   7  20
TORSDOF 9
ENDMDL
MODEL 4
REMARK VINA RESULT:      -7.8      0.981      1.496
REMARK  Name = 
REMARK  12 active torsions:
REMARK  status: ('A' for Active; 'I' for Inactive)
REMARK    1  A    between atoms: C_1  and  O_2
REMARK    2  A    between atoms: O_2  and  C_3
REMARK    3  A    between atoms: C_6  and  C_7
REMARK    4  A    between atoms: C_7  and  N_8
REMARK    5  A    between atoms: C_14  and  C_15
REMARK    6  A    between atoms: C_15  and  C_16
REMARK    7  A    between atoms: N_18  and  C_19
REMARK    8  A    between atoms: N_18  and  C_20
REMARK    9  A    between atoms: C_20  and  C_21
REMARK   10  A    between atoms: C_21  and  C_22
REMARK   11  A    between atoms: C_28  and  O_29
REMARK   12  A    between atoms: O_29  and  C_30
REMARK                            x       y       z     vdW  Elec       q    Type
REMARK                         _______ _______ _______ _____ _____    ______ ____
ROOT
ATOM      1  N   UNL     1       2.959   3.951  17.953  0.00  0.00    +0.000 NA
ATOM      2  C   UNL     1       2.301   2.636  17.827  0.00  0.00    +0.000 C 
ATOM      3  C   UNL     1       1.988   1.893  19.127  0.00  0.00    +0.000 C 
ATOM      4  N   UNL     1       1.520   2.747  20.188  0.00  0.00    +0.000 N 
ATOM      5  C   UNL     1       1.978   4.039  20.314  0.00  0.00    +0.000 C 
ATOM      6  O   UNL     1       2.025   4.527  21.442  0.00  0.00    +0.000 OA
ATOM      7  C   UNL     1       2.291   4.821  19.005  0.00  0.00    +0.000 C 
ATOM      8  H   UNL     1       1.303   2.316  21.079  0.00  0.00    +0.000 HD
ENDROOT
BRANCH   1   9
ATOM      9  C   UNL     1       4.407   3.866  18.180  0.00  0.00    +0.000 C 
BRANCH   9  13
ATOM     10  C   UNL     1       7.036   5.085  15.011  0.00  0.00    +0.000 A 
ATOM     11  C   UNL     1       5.879   4.364  14.688  0.00  0.00    +0.000 A 
ATOM     12  C   UNL     1       5.019   3.952  15.703  0.00  0.00    +0.000 A 
ATOM     13  C   UNL     1       5.322   4.259  17.041  0.00  0.00    +0.000 A 
ATOM     14  C   UNL     1       6.429   5.072  17.344  0.00  0.00    +0.000 A 
ATOM     15  C   UNL     1       7.305   5.463  16.336  0.00  0.00    +0.000 A 
BRANCH  10  17
ATOM     16  C   UNL     1       7.421   4.783  12.715  0.00  0.00    +0.000 C 
ATOM     17  O   UNL     1       7.778   5.451  13.916  0.00  0.00    +0.000 OA
ENDBRANCH  10  17
BRANCH  14  18
ATOM     18  O   UNL     1       6.388   5.568  18.622  0.00  0.00    +0.000 OA
ATOM     19  C   UNL     1       7.531   5.691  19.438  0.00  0.00    +0.000 C 
ENDBRANCH  14  18
ENDBRANCH   9  13
ENDBRANCH   1   9
BRANCH   7  20
ATOM     20  C   UNL     1       3.143   6.085  19.313  0.00  0.00    +0.000 C 
BRANCH  20  21
ATOM     21  C   UNL     1       2.905   7.304  18.454  0.00  0.00    +0.000 C 
ATOM     22  O   UNL     1       3.521   7.475  17.396  0.00  0.00    +0.000 OA
ATOM     23  N   UNL     1       1.965   8.234  18.923  0.00  0.00    +0.000 N 
ATOM     24  C   UNL     1       1.411   8.243  20.284  0.00  0.00    +0.000 C 
BRANCH  23  25
ATOM     25  C   UNL     1       1.476   9.262  18.009  0.00  0.00    +0.000 C 
BRANCH  25  26
ATOM     26  C   UNL     1       1.898  10.689  18.382  0.00  0.00    +0.000 C 
BRANCH  26  27
ATOM     27  C   UNL     1       0.718  11.561  18.857  0.00  0.00    +0.000 C 
ATOM     28  C   UNL     1       0.829  11.854  20.362  0.00  0.00    +0.000 C 
ATOM     29  C   UNL     1      -0.373  12.651  20.855  0.00  0.00    +0.000 C 
ATOM     30  O   UNL     1      -1.588  11.963  20.563  0.00  0.00    +0.000 OA
ATOM     31  C   UNL     1      -1.776  11.781  19.162  0.00  0.00    +0.000 C 
ATOM     32  C   UNL     1      -0.655  10.933  18.570  0.00  0.00    +0.000 C 
ENDBRANCH  26  27
ENDBRANCH  25  26
ENDBRANCH  23  25
ENDBRANCH  20  21
ENDBRANCH   7  20
TORSDOF 9
ENDMDL
MODEL 5
REMARK VINA RESULT:      -7.7      2.009      2.551
REMARK  Name = 
REMARK  12 active torsions:
REMARK  status: ('A' for Active; 'I' for Inactive)
REMARK    1  A    between atoms: C_1  and  O_2
REMARK    2  A    between atoms: O_2  and  C_3
REMARK    3  A    between atoms: C_6  and  C_7
REMARK    4  A    between atoms: C_7  and  N_8
REMARK    5  A    between atoms: C_14  and  C_15
REMARK    6  A    between atoms: C_15  and  C_16
REMARK    7  A    between atoms: N_18  and  C_19
REMARK    8  A    between atoms: N_18  and  C_20
REMARK    9  A    between atoms: C_20  and  C_21
REMARK   10  A    between atoms: C_21  and  C_22
REMARK   11  A    between atoms: C_28  and  O_29
REMARK   12  A    between atoms: O_29  and  C_30
REMARK                            x       y       z     vdW  Elec       q    Type
REMARK                         _______ _______ _______ _____ _____    ______ ____
ROOT
ATOM      1  N   UNL     1       2.937   4.117  18.083  0.00  0.00    +0.000 NA
ATOM      2  C   UNL     1       2.465   2.762  17.731  0.00  0.00    +0.000 C 
ATOM      3  C   UNL     1       2.247   1.785  18.886  0.00  0.00    +0.000 C 
ATOM      4  N   UNL     1       1.660   2.387  20.056  0.00  0.00    +0.000 N 
ATOM      5  C   UNL     1       1.938   3.690  20.399  0.00  0.00    +0.000 C 
ATOM      6  O   UNL     1       1.910   3.993  21.591  0.00  0.00    +0.000 OA
ATOM      7  C   UNL     1       2.150   4.708  19.241  0.00  0.00    +0.000 C 
ATOM      8  H   UNL     1       1.498   1.792  20.860  0.00  0.00    +0.000 HD
ENDROOT
BRANCH   1   9
ATOM      9  C   UNL     1       4.381   4.189  18.335  0.00  0.00    +0.000 C 
BRANCH   9  13
ATOM     10  C   UNL     1       7.037   5.043  15.068  0.00  0.00    +0.000 A 
ATOM     11  C   UNL     1       5.655   5.050  14.835  0.00  0.00    +0.000 A 
ATOM     12  C   UNL     1       4.778   4.767  15.879  0.00  0.00    +0.000 A 
ATOM     13  C   UNL     1       5.287   4.471  17.156  0.00  0.00    +0.000 A 
ATOM     14  C   UNL     1       6.668   4.569  17.404  0.00  0.00    +0.000 A 
ATOM     15  C   UNL     1       7.549   4.825  16.357  0.00  0.00    +0.000 A 
BRANCH  10  17
ATOM     16  C   UNL     1       7.370   4.717  12.768  0.00  0.00    +0.000 C 
ATOM     17  O   UNL     1       7.782   5.365  13.963  0.00  0.00    +0.000 OA
ENDBRANCH  10  17
BRANCH  14  18
ATOM     18  O   UNL     1       6.966   4.604  18.743  0.00  0.00    +0.000 OA
ATOM     19  C   UNL     1       7.613   5.693  19.360  0.00  0.00    +0.000 C 
ENDBRANCH  14  18
ENDBRANCH   9  13
ENDBRANCH   1   9
BRANCH   7  20
ATOM     20  C   UNL     1       2.820   6.008  19.769  0.00  0.00    +0.000 C 
BRANCH  20  21
ATOM     21  C   UNL     1       1.909   7.154  20.138  0.00  0.00    +0.000 C 
ATOM     22  O   UNL     1       1.241   7.137  21.179  0.00  0.00    +0.000 OA
ATOM     23  N   UNL     1       1.848   8.228  19.238  0.00  0.00    +0.000 N 
ATOM     24  C   UNL     1       2.382   8.198  17.869  0.00  0.00    +0.000 C 
BRANCH  23  25
ATOM     25  C   UNL     1       1.233   9.478  19.674  0.00  0.00    +0.000 C 
BRANCH  25  26
ATOM     26  C   UNL     1       0.833  10.417  18.528  0.00  0.00    +0.000 C 
BRANCH  26  27
ATOM     27  C   UNL     1       1.215  11.888  18.793  0.00  0.00    +0.000 C 
ATOM     28  C   UNL     1       2.530  12.245  18.083  0.00  0.00    +0.000 C 
ATOM     29  C   UNL     1       2.953  13.675  18.403  0.00  0.00    +0.000 C 
ATOM     30  O   UNL     1       3.073  13.862  19.812  0.00  0.00    +0.000 OA
ATOM     31  C   UNL     1       1.835  13.650  20.486  0.00  0.00    +0.000 C 
ATOM     32  C   UNL     1       1.347  12.219  20.288  0.00  0.00    +0.000 C 
ENDBRANCH  26  27
ENDBRANCH  25  26
ENDBRANCH  23  25
ENDBRANCH  20  21
ENDBRANCH   7  20
TORSDOF 9
ENDMDL
MODEL 6
REMARK VINA RESULT:      -7.6      1.378      1.736
REMARK  Name = 
REMARK  12 active torsions:
REMARK  status: ('A' for Active; 'I' for Inactive)
REMARK    1  A    between atoms: C_1  and  O_2
REMARK    2  A    between atoms: O_2  and  C_3
REMARK    3  A    between atoms: C_6  and  C_7
REMARK    4  A    between atoms: C_7  and  N_8
REMARK    5  A    between atoms: C_14  and  C_15
REMARK    6  A    between atoms: C_15  and  C_16
REMARK    7  A    between atoms: N_18  and  C_19
REMARK    8  A    between atoms: N_18  and  C_20
REMARK    9  A    between atoms: C_20  and  C_21
REMARK   10  A    between atoms: C_21  and  C_22
REMARK   11  A    between atoms: C_28  and  O_29
REMARK   12  A    between atoms: O_29  and  C_30
REMARK                            x       y       z     vdW  Elec       q    Type
REMARK                         _______ _______ _______ _____ _____    ______ ____
ROOT
ATOM      1  N   UNL     1       2.865   4.074  18.065  0.00  0.00    +0.000 NA
ATOM      2  C   UNL     1       2.304   2.742  17.765  0.00  0.00    +0.000 C 
ATOM      3  C   UNL     1       2.013   1.830  18.958  0.00  0.00    +0.000 C 
ATOM      4  N   UNL     1       1.461   2.519  20.096  0.00  0.00    +0.000 N 
ATOM      5  C   UNL     1       1.824   3.814  20.388  0.00  0.00    +0.000 C 
ATOM      6  O   UNL     1       1.810   4.167  21.566  0.00  0.00    +0.000 OA
ATOM      7  C   UNL     1       2.113   4.766  19.190  0.00  0.00    +0.000 C 
ATOM      8  H   UNL     1       1.254   1.971  20.923  0.00  0.00    +0.000 HD
ENDROOT
BRANCH   1   9
ATOM      9  C   UNL     1       4.309   4.059  18.327  0.00  0.00    +0.000 C 
BRANCH   9  13
ATOM     10  C   UNL     1       6.993   5.096  15.138  0.00  0.00    +0.000 A 
ATOM     11  C   UNL     1       5.709   4.637  14.817  0.00  0.00    +0.000 A 
ATOM     12  C   UNL     1       4.827   4.287  15.837  0.00  0.00    +0.000 A 
ATOM     13  C   UNL     1       5.236   4.393  17.178  0.00  0.00    +0.000 A 
ATOM     14  C   UNL     1       6.487   4.954  17.491  0.00  0.00    +0.000 A 
ATOM     15  C   UNL     1       7.380   5.279  16.475  0.00  0.00    +0.000 A 
BRANCH  10  17
ATOM     16  C   UNL     1       7.363   4.773  12.842  0.00  0.00    +0.000 C 
ATOM     17  O   UNL     1       7.746   5.431  14.041  0.00  0.00    +0.000 OA
ENDBRANCH  10  17
BRANCH  14  18
ATOM     18  O   UNL     1       6.592   5.315  18.810  0.00  0.00    +0.000 OA
ATOM     19  C   UNL     1       7.799   5.742  19.399  0.00  0.00    +0.000 C 
ENDBRANCH  14  18
ENDBRANCH   9  13
ENDBRANCH   1   9
BRANCH   7  20
ATOM     20  C   UNL     1       2.867   6.038  19.671  0.00  0.00    +0.000 C 
BRANCH  20  21
ATOM     21  C   UNL     1       2.048   7.290  19.875  0.00  0.00    +0.000 C 
ATOM     22  O   UNL     1       1.362   7.453  20.891  0.00  0.00    +0.000 OA
ATOM     23  N   UNL     1       2.094   8.249  18.852  0.00  0.00    +0.000 N 
ATOM     24  C   UNL     1       2.649   8.010  17.512  0.00  0.00    +0.000 C 
BRANCH  23  25
ATOM     25  C   UNL     1       1.578   9.588  19.118  0.00  0.00    +0.000 C 
BRANCH  25  26
ATOM     26  C   UNL     1       0.208   9.873  18.487  0.00  0.00    +0.000 C 
BRANCH  26  27
ATOM     27  C   UNL     1      -0.759  10.596  19.447  0.00  0.00    +0.000 C 
ATOM     28  C   UNL     1      -1.135  11.982  18.899  0.00  0.00    +0.000 C 
ATOM     29  C   UNL     1      -2.030  12.733  19.879  0.00  0.00    +0.000 C 
ATOM     30  O   UNL     1      -1.397  12.849  21.152  0.00  0.00    +0.000 OA
ATOM     31  C   UNL     1      -1.141  11.576  21.739  0.00  0.00    +0.000 C 
ATOM     32  C   UNL     1      -0.194  10.757  20.868  0.00  0.00    +0.000 C 
ENDBRANCH  26  27
ENDBRANCH  25  26
ENDBRANCH  23  25
ENDBRANCH  20  21
ENDBRANCH   7  20
TORSDOF 9
ENDMDL
MODEL 7
REMARK VINA RESULT:      -7.4      1.558      1.981
REMARK  Name = 
REMARK  12 active torsions:
REMARK  status: ('A' for Active; 'I' for Inactive)
REMARK    1  A    between atoms: C_1  and  O_2
REMARK    2  A    between atoms: O_2  and  C_3
REMARK    3  A    between atoms: C_6  and  C_7
REMARK    4  A    between atoms: C_7  and  N_8
REMARK    5  A    between atoms: C_14  and  C_15
REMARK    6  A    between atoms: C_15  and  C_16
REMARK    7  A    between atoms: N_18  and  C_19
REMARK    8  A    between atoms: N_18  and  C_20
REMARK    9  A    between atoms: C_20  and  C_21
REMARK   10  A    between atoms: C_21  and  C_22
REMARK   11  A    between atoms: C_28  and  O_29
REMARK   12  A    between atoms: O_29  and  C_30
REMARK                            x       y       z     vdW  Elec       q    Type
REMARK                         _______ _______ _______ _____ _____    ______ ____
ROOT
ATOM      1  N   UNL     1       2.745   4.489  18.257  0.00  0.00    +0.000 NA
ATOM      2  C   UNL     1       2.412   3.150  17.730  0.00  0.00    +0.000 C 
ATOM      3  C   UNL     1       2.284   2.019  18.750  0.00  0.00    +0.000 C 
ATOM      4  N   UNL     1       1.630   2.408  19.973  0.00  0.00    +0.000 N 
ATOM      5  C   UNL     1       1.773   3.679  20.481  0.00  0.00    +0.000 C 
ATOM      6  O   UNL     1       1.706   3.825  21.701  0.00  0.00    +0.000 OA
ATOM      7  C   UNL     1       1.893   4.851  19.463  0.00  0.00    +0.000 C 
ATOM      8  H   UNL     1       1.521   1.705  20.694  0.00  0.00    +0.000 HD
ENDROOT
BRANCH   1   9
ATOM      9  C   UNL     1       4.172   4.670  18.546  0.00  0.00    +0.000 C 
BRANCH   9  13
ATOM     10  C   UNL     1       6.948   5.054  15.291  0.00  0.00    +0.000 A 
ATOM     11  C   UNL     1       5.594   5.333  15.061  0.00  0.00    +0.000 A 
ATOM     12  C   UNL     1       4.677   5.205  16.101  0.00  0.00    +0.000 A 
ATOM     13  C   UNL     1       5.118   4.793  17.371  0.00  0.00    +0.000 A 
ATOM     14  C   UNL     1       6.491   4.618  17.617  0.00  0.00    +0.000 A 
ATOM     15  C   UNL     1       7.406   4.718  16.574  0.00  0.00    +0.000 A 
BRANCH  10  17
ATOM     16  C   UNL     1       7.235   4.677  12.991  0.00  0.00    +0.000 C 
ATOM     17  O   UNL     1       7.743   5.246  14.189  0.00  0.00    +0.000 OA
ENDBRANCH  10  17
BRANCH  14  18
ATOM     18  O   UNL     1       6.788   4.569  18.956  0.00  0.00    +0.000 OA
ATOM     19  C   UNL     1       7.510   5.579  19.622  0.00  0.00    +0.000 C 
ENDBRANCH  14  18
ENDBRANCH   9  13
ENDBRANCH   1   9
BRANCH   7  20
ATOM     20  C   UNL     1       2.426   6.133  20.163  0.00  0.00    +0.000 C 
BRANCH  20  21
ATOM     21  C   UNL     1       2.145   7.455  19.490  0.00  0.00    +0.000 C 
ATOM     22  O   UNL     1       2.497   7.672  18.324  0.00  0.00    +0.000 OA
ATOM     23  N   UNL     1       1.479   8.425  20.254  0.00  0.00    +0.000 N 
ATOM     24  C   UNL     1       1.283   8.347  21.708  0.00  0.00    +0.000 C 
BRANCH  23  25
ATOM     25  C   UNL     1       0.918   9.590  19.578  0.00  0.00    +0.000 C 
BRANCH  25  26
ATOM     26  C   UNL     1      -0.499   9.963  20.036  0.00  0.00    +0.000 C 
BRANCH  26  27
ATOM     27  C   UNL     1      -0.592  11.396  20.600  0.00  0.00    +0.000 C 
ATOM     28  C   UNL     1      -0.874  11.368  22.111  0.00  0.00    +0.000 C 
ATOM     29  C   UNL     1      -1.043  12.780  22.661  0.00  0.00    +0.000 C 
ATOM     30  O   UNL     1      -2.079  13.471  21.966  0.00  0.00    +0.000 OA
ATOM     31  C   UNL     1      -1.789  13.615  20.578  0.00  0.00    +0.000 C 
ATOM     32  C   UNL     1      -1.663  12.252  19.906  0.00  0.00    +0.000 C 
ENDBRANCH  26  27
ENDBRANCH  25  26
ENDBRANCH  23  25
ENDBRANCH  20  21
ENDBRANCH   7  20
TORSDOF 9
ENDMDL
MODEL 8
REMARK VINA RESULT:      -7.4      1.355      1.634
REMARK  Name = 
REMARK  12 active torsions:
REMARK  status: ('A' for Active; 'I' for Inactive)
REMARK    1  A    between atoms: C_1  and  O_2
REMARK    2  A    between atoms: O_2  and  C_3
REMARK    3  A    between atoms: C_6  and  C_7
REMARK    4  A    between atoms: C_7  and  N_8
REMARK    5  A    between atoms: C_14  and  C_15
REMARK    6  A    between atoms: C_15  and  C_16
REMARK    7  A    between atoms: N_18  and  C_19
REMARK    8  A    between atoms: N_18  and  C_20
REMARK    9  A    between atoms: C_20  and  C_21
REMARK   10  A    between atoms: C_21  and  C_22
REMARK   11  A    between atoms: C_28  and  O_29
REMARK   12  A    between atoms: O_29  and  C_30
REMARK                            x       y       z     vdW  Elec       q    Type
REMARK                         _______ _______ _______ _____ _____    ______ ____
ROOT
ATOM      1  N   UNL     1       2.817   4.174  17.994  0.00  0.00    +0.000 NA
ATOM      2  C   UNL     1       2.246   2.849  17.683  0.00  0.00    +0.000 C 
ATOM      3  C   UNL     1       1.939   1.933  18.869  0.00  0.00    +0.000 C 
ATOM      4  N   UNL     1       1.385   2.621  20.007  0.00  0.00    +0.000 N 
ATOM      5  C   UNL     1       1.759   3.911  20.308  0.00  0.00    +0.000 C 
ATOM      6  O   UNL     1       1.740   4.258  21.488  0.00  0.00    +0.000 OA
ATOM      7  C   UNL     1       2.064   4.867  19.118  0.00  0.00    +0.000 C 
ATOM      8  H   UNL     1       1.167   2.071  20.829  0.00  0.00    +0.000 HD
ENDROOT
BRANCH   1   9
ATOM      9  C   UNL     1       4.259   4.145  18.265  0.00  0.00    +0.000 C 
BRANCH   9  13
ATOM     10  C   UNL     1       6.965   5.126  15.077  0.00  0.00    +0.000 A 
ATOM     11  C   UNL     1       5.731   4.541  14.760  0.00  0.00    +0.000 A 
ATOM     12  C   UNL     1       4.845   4.208  15.781  0.00  0.00    +0.000 A 
ATOM     13  C   UNL     1       5.197   4.455  17.119  0.00  0.00    +0.000 A 
ATOM     14  C   UNL     1       6.390   5.137  17.418  0.00  0.00    +0.000 A 
ATOM     15  C   UNL     1       7.291   5.447  16.404  0.00  0.00    +0.000 A 
BRANCH  10  17
ATOM     16  C   UNL     1       7.383   4.703  12.806  0.00  0.00    +0.000 C 
ATOM     17  O   UNL     1       7.728   5.428  13.978  0.00  0.00    +0.000 OA
ENDBRANCH  10  17
BRANCH  14  18
ATOM     18  O   UNL     1       6.421   5.612  18.705  0.00  0.00    +0.000 OA
ATOM     19  C   UNL     1       7.608   5.726  19.456  0.00  0.00    +0.000 C 
ENDBRANCH  14  18
ENDBRANCH   9  13
ENDBRANCH   1   9
BRANCH   7  20
ATOM     20  C   UNL     1       2.826   6.129  19.611  0.00  0.00    +0.000 C 
BRANCH  20  21
ATOM     21  C   UNL     1       2.439   7.453  18.996  0.00  0.00    +0.000 C 
ATOM     22  O   UNL     1       2.828   7.778  17.868  0.00  0.00    +0.000 OA
ATOM     23  N   UNL     1       1.631   8.298  19.772  0.00  0.00    +0.000 N 
ATOM     24  C   UNL     1       1.366   8.111  21.205  0.00  0.00    +0.000 C 
BRANCH  23  25
ATOM     25  C   UNL     1       0.983   9.437  19.129  0.00  0.00    +0.000 C 
BRANCH  25  26
ATOM     26  C   UNL     1       0.955  10.711  19.984  0.00  0.00    +0.000 C 
BRANCH  26  27
ATOM     27  C   UNL     1      -0.455  11.052  20.510  0.00  0.00    +0.000 C 
ATOM     28  C   UNL     1      -1.082  12.189  19.688  0.00  0.00    +0.000 C 
ATOM     29  C   UNL     1      -2.444  12.583  20.249  0.00  0.00    +0.000 C 
ATOM     30  O   UNL     1      -2.334  12.954  21.622  0.00  0.00    +0.000 OA
ATOM     31  C   UNL     1      -1.864  11.879  22.431  0.00  0.00    +0.000 C 
ATOM     32  C   UNL     1      -0.469  11.443  21.997  0.00  0.00    +0.000 C 
ENDBRANCH  26  27
ENDBRANCH  25  26
ENDBRANCH  23  25
ENDBRANCH  20  21
ENDBRANCH   7  20
TORSDOF 9
ENDMDL
MODEL 9
REMARK VINA RESULT:      -7.4      1.833      2.349
REMARK  Name = 
REMARK  12 active torsions:
REMARK  status: ('A' for Active; 'I' for Inactive)
REMARK    1  A    between atoms: C_1  and  O_2
REMARK    2  A    between atoms: O_2  and  C_3
REMARK    3  A    between atoms: C_6  and  C_7
REMARK    4  A    between atoms: C_7  and  N_8
REMARK    5  A    between atoms: C_14  and  C_15
REMARK    6  A    between atoms: C_15  and  C_16
REMARK    7  A    between atoms: N_18  and  C_19
REMARK    8  A    between atoms: N_18  and  C_20
REMARK    9  A    between atoms: C_20  and  C_21
REMARK   10  A    between atoms: C_21  and  C_22
REMARK   11  A    between atoms: C_28  and  O_29
REMARK   12  A    between atoms: O_29  and  C_30
REMARK                            x       y       z     vdW  Elec       q    Type
REMARK                         _______ _______ _______ _____ _____    ______ ____
ROOT
ATOM      1  N   UNL     1       2.930   4.068  18.040  0.00  0.00    +0.000 NA
ATOM      2  C   UNL     1       2.411   2.723  17.721  0.00  0.00    +0.000 C 
ATOM      3  C   UNL     1       2.154   1.784  18.901  0.00  0.00    +0.000 C 
ATOM      4  N   UNL     1       1.585   2.437  20.052  0.00  0.00    +0.000 N 
ATOM      5  C   UNL     1       1.908   3.739  20.362  0.00  0.00    +0.000 C 
ATOM      6  O   UNL     1       1.887   4.073  21.546  0.00  0.00    +0.000 OA
ATOM      7  C   UNL     1       2.161   4.717  19.178  0.00  0.00    +0.000 C 
ATOM      8  H   UNL     1       1.399   1.870  20.871  0.00  0.00    +0.000 HD
ENDROOT
BRANCH   1   9
ATOM      9  C   UNL     1       4.375   4.096  18.296  0.00  0.00    +0.000 C 
BRANCH   9  13
ATOM     10  C   UNL     1       7.011   5.137  15.069  0.00  0.00    +0.000 A 
ATOM     11  C   UNL     1       5.792   4.514  14.771  0.00  0.00    +0.000 A 
ATOM     12  C   UNL     1       4.928   4.160  15.805  0.00  0.00    +0.000 A 
ATOM     13  C   UNL     1       5.289   4.427  17.137  0.00  0.00    +0.000 A 
ATOM     14  C   UNL     1       6.464   5.147  17.417  0.00  0.00    +0.000 A 
ATOM     15  C   UNL     1       7.342   5.477  16.390  0.00  0.00    +0.000 A 
BRANCH  10  17
ATOM     16  C   UNL     1       7.391   4.737  12.787  0.00  0.00    +0.000 C 
ATOM     17  O   UNL     1       7.751   5.455  13.958  0.00  0.00    +0.000 OA
ENDBRANCH  10  17
BRANCH  14  18
ATOM     18  O   UNL     1       6.496   5.631  18.701  0.00  0.00    +0.000 OA
ATOM     19  C   UNL     1       7.687   5.771  19.442  0.00  0.00    +0.000 C 
ENDBRANCH  14  18
ENDBRANCH   9  13
ENDBRANCH   1   9
BRANCH   7  20
ATOM     20  C   UNL     1       2.875   6.006  19.676  0.00  0.00    +0.000 C 
BRANCH  20  21
ATOM     21  C   UNL     1       2.010   7.213  19.952  0.00  0.00    +0.000 C 
ATOM     22  O   UNL     1       1.357   7.311  20.997  0.00  0.00    +0.000 OA
ATOM     23  N   UNL     1       1.974   8.205  18.961  0.00  0.00    +0.000 N 
ATOM     24  C   UNL     1       2.488   8.035  17.594  0.00  0.00    +0.000 C 
BRANCH  23  25
ATOM     25  C   UNL     1       1.410   9.510  19.291  0.00  0.00    +0.000 C 
BRANCH  25  26
ATOM     26  C   UNL     1       1.756  10.618  18.288  0.00  0.00    +0.000 C 
BRANCH  26  27
ATOM     27  C   UNL     1       1.652  12.033  18.894  0.00  0.00    +0.000 C 
ATOM     28  C   UNL     1       0.191  12.509  18.919  0.00  0.00    +0.000 C 
ATOM     29  C   UNL     1       0.090  13.936  19.446  0.00  0.00    +0.000 C 
ATOM     30  O   UNL     1       0.896  14.819  18.669  0.00  0.00    +0.000 OA
ATOM     31  C   UNL     1       2.277  14.470  18.723  0.00  0.00    +0.000 C 
ATOM     32  C   UNL     1       2.506  13.074  18.153  0.00  0.00    +0.000 C 
ENDBRANCH  26  27
ENDBRANCH  25  26
ENDBRANCH  23  25
ENDBRANCH  20  21
ENDBRANCH   7  20
TORSDOF 9
ENDMDL
