MODEL 1
REMARK VINA RESULT:      -7.1      0.000      0.000
REMARK  Name = 
REMARK  10 active torsions:
REMARK  status: ('A' for Active; 'I' for Inactive)
REMARK    1  A    between atoms: C_1  and  O_2
REMARK    2  A    between atoms: O_2  and  C_3
REMARK    3  A    between atoms: C_7  and  C_8
REMARK    4  A    between atoms: C_11  and  O_12
REMARK    5  A    between atoms: C_16  and  C_17
REMARK    6  A    between atoms: C_17  and  O_19
REMARK    7  A    between atoms: C_21  and  O_22
REMARK    8  A    between atoms: O_22  and  C_23
REMARK    9  A    between atoms: C_24  and  O_25
REMARK   10  A    between atoms: O_25  and  C_26
REMARK                            x       y       z     vdW  Elec       q    Type
REMARK                         _______ _______ _______ _____ _____    ______ ____
ROOT
ATOM      1  C   UNL     1       2.892   4.279  20.483  0.00  0.00    +0.000 A 
ATOM      2  C   UNL     1       2.221   5.479  20.240  0.00  0.00    +0.000 A 
ATOM      3  C   UNL     1       2.603   6.368  19.257  0.00  0.00    +0.000 A 
ATOM      4  N   UNL     1       1.868   7.491  19.208  0.00  0.00    +0.000 NA
ATOM      5  C   UNL     1       2.154   8.447  18.302  0.00  0.00    +0.000 A 
ATOM      6  C   UNL     1       3.191   8.283  17.412  0.00  0.00    +0.000 A 
ATOM      7  C   UNL     1       3.983   7.127  17.483  0.00  0.00    +0.000 A 
ATOM      8  C   UNL     1       3.698   6.084  18.425  0.00  0.00    +0.000 A 
ATOM      9  C   UNL     1       4.370   4.817  18.637  0.00  0.00    +0.000 A 
ATOM     10  C   UNL     1       3.947   3.905  19.642  0.00  0.00    +0.000 A 
ENDROOT
BRANCH   5  11
ATOM     11  C   UNL     1       1.293   9.645  18.312  0.00  0.00    +0.000 A 
ATOM     12  C   UNL     1      -0.090   9.563  18.053  0.00  0.00    +0.000 A 
ATOM     13  C   UNL     1      -0.918  10.689  18.130  0.00  0.00    +0.000 A 
ATOM     14  C   UNL     1      -0.364  11.919  18.455  0.00  0.00    +0.000 A 
ATOM     15  C   UNL     1       1.000  12.044  18.681  0.00  0.00    +0.000 A 
ATOM     16  C   UNL     1       1.822  10.916  18.602  0.00  0.00    +0.000 A 
BRANCH  14  17
ATOM     17  O   UNL     1      -1.134  13.038  18.562  0.00  0.00    +0.000 OA
ATOM     18  H   UNL     1      -1.551  13.047  19.439  0.00  0.00    +0.000 HD
ENDBRANCH  14  17
ENDBRANCH   5  11
BRANCH   1  20
ATOM     19  C   UNL     1       1.326   2.730  21.371  0.00  0.00    +0.000 C 
ATOM     20  O   UNL     1       2.541   3.462  21.529  0.00  0.00    +0.000 OA
ENDBRANCH   1  20
BRANCH   7  21
ATOM     21  C   UNL     1       5.080   7.084  16.474  0.00  0.00    +0.000 C 
ATOM     22  O   UNL     1       4.929   7.004  15.272  0.00  0.00    +0.000 OA
BRANCH  21  23
ATOM     23  O   UNL     1       6.304   7.279  17.033  0.00  0.00    +0.000 OA
ATOM     24  H   UNL     1       6.617   6.591  17.648  0.00  0.00    +0.000 HD
ENDBRANCH  21  23
ENDBRANCH   7  21
BRANCH   9  25
ATOM     25  O   UNL     1       5.379   4.569  17.742  0.00  0.00    +0.000 OA
ATOM     26  C   UNL     1       5.145   3.781  16.585  0.00  0.00    +0.000 C 
ENDBRANCH   9  25
BRANCH  10  27
ATOM     27  O   UNL     1       4.638   2.727  19.757  0.00  0.00    +0.000 OA
ATOM     28  C   UNL     1       4.105   1.546  19.167  0.00  0.00    +0.000 C 
ENDBRANCH  10  27
TORSDOF 7
ENDMDL
MODEL 2
REMARK VINA RESULT:      -6.9      2.160      4.416
REMARK  Name = 
REMARK  10 active torsions:
REMARK  status: ('A' for Active; 'I' for Inactive)
REMARK    1  A    between atoms: C_1  and  O_2
REMARK    2  A    between atoms: O_2  and  C_3
REMARK    3  A    between atoms: C_7  and  C_8
REMARK    4  A    between atoms: C_11  and  O_12
REMARK    5  A    between atoms: C_16  and  C_17
REMARK    6  A    between atoms: C_17  and  O_19
REMARK    7  A    between atoms: C_21  and  O_22
REMARK    8  A    between atoms: O_22  and  C_23
REMARK    9  A    between atoms: C_24  and  O_25
REMARK   10  A    between atoms: O_25  and  C_26
REMARK                            x       y       z     vdW  Elec       q    Type
REMARK                         _______ _______ _______ _____ _____    ______ ____
ROOT
ATOM      1  C   UNL     1       4.749   6.290  17.402  0.00  0.00    +0.000 A 
ATOM      2  C   UNL     1       3.932   7.186  18.095  0.00  0.00    +0.000 A 
ATOM      3  C   UNL     1       3.041   6.790  19.070  0.00  0.00    +0.000 A 
ATOM      4  N   UNL     1       2.305   7.787  19.588  0.00  0.00    +0.000 NA
ATOM      5  C   UNL     1       1.384   7.525  20.537  0.00  0.00    +0.000 A 
ATOM      6  C   UNL     1       1.192   6.240  20.993  0.00  0.00    +0.000 A 
ATOM      7  C   UNL     1       1.933   5.191  20.428  0.00  0.00    +0.000 A 
ATOM      8  C   UNL     1       2.931   5.436  19.428  0.00  0.00    +0.000 A 
ATOM      9  C   UNL     1       3.810   4.506  18.748  0.00  0.00    +0.000 A 
ATOM     10  C   UNL     1       4.738   4.938  17.763  0.00  0.00    +0.000 A 
ENDROOT
BRANCH   5  11
ATOM     11  C   UNL     1       0.626   8.678  21.057  0.00  0.00    +0.000 A 
ATOM     12  C   UNL     1       0.197   8.736  22.399  0.00  0.00    +0.000 A 
ATOM     13  C   UNL     1      -0.462   9.860  22.910  0.00  0.00    +0.000 A 
ATOM     14  C   UNL     1      -0.713  10.939  22.074  0.00  0.00    +0.000 A 
ATOM     15  C   UNL     1      -0.338  10.902  20.738  0.00  0.00    +0.000 A 
ATOM     16  C   UNL     1       0.320   9.777  20.233  0.00  0.00    +0.000 A 
BRANCH  14  17
ATOM     17  O   UNL     1      -1.333  12.063  22.532  0.00  0.00    +0.000 OA
ATOM     18  H   UNL     1      -2.268  12.032  22.269  0.00  0.00    +0.000 HD
ENDBRANCH  14  17
ENDBRANCH   5  11
BRANCH   1  20
ATOM     19  C   UNL     1       6.872   7.128  16.743  0.00  0.00    +0.000 C 
ATOM     20  O   UNL     1       5.558   6.709  16.375  0.00  0.00    +0.000 OA
ENDBRANCH   1  20
BRANCH   7  21
ATOM     21  C   UNL     1       1.614   3.851  21.001  0.00  0.00    +0.000 C 
ATOM     22  O   UNL     1       2.085   3.391  22.021  0.00  0.00    +0.000 OA
BRANCH  21  23
ATOM     23  O   UNL     1       0.618   3.223  20.322  0.00  0.00    +0.000 OA
ATOM     24  H   UNL     1       0.265   2.407  20.721  0.00  0.00    +0.000 HD
ENDBRANCH  21  23
ENDBRANCH   7  21
BRANCH   9  25
ATOM     25  O   UNL     1       3.706   3.214  19.200  0.00  0.00    +0.000 OA
ATOM     26  C   UNL     1       3.248   2.181  18.343  0.00  0.00    +0.000 C 
ENDBRANCH   9  25
BRANCH  10  27
ATOM     27  O   UNL     1       5.536   3.984  17.185  0.00  0.00    +0.000 OA
ATOM     28  C   UNL     1       5.452   3.763  15.781  0.00  0.00    +0.000 C 
ENDBRANCH  10  27
TORSDOF 7
ENDMDL
MODEL 3
REMARK VINA RESULT:      -6.7      2.299      4.508
REMARK  Name = 
REMARK  10 active torsions:
REMARK  status: ('A' for Active; 'I' for Inactive)
REMARK    1  A    between atoms: C_1  and  O_2
REMARK    2  A    between atoms: O_2  and  C_3
REMARK    3  A    between atoms: C_7  and  C_8
REMARK    4  A    between atoms: C_11  and  O_12
REMARK    5  A    between atoms: C_16  and  C_17
REMARK    6  A    between atoms: C_17  and  O_19
REMARK    7  A    between atoms: C_21  and  O_22
REMARK    8  A    between atoms: O_22  and  C_23
REMARK    9  A    between atoms: C_24  and  O_25
REMARK   10  A    between atoms: O_25  and  C_26
REMARK                            x       y       z     vdW  Elec       q    Type
REMARK                         _______ _______ _______ _____ _____    ______ ____
ROOT
ATOM      1  C   UNL     1       4.368   6.326  17.183  0.00  0.00    +0.000 A 
ATOM      2  C   UNL     1       3.638   7.225  17.962  0.00  0.00    +0.000 A 
ATOM      3  C   UNL     1       2.819   6.827  18.998  0.00  0.00    +0.000 A 
ATOM      4  N   UNL     1       2.157   7.830  19.599  0.00  0.00    +0.000 NA
ATOM      5  C   UNL     1       1.310   7.568  20.614  0.00  0.00    +0.000 A 
ATOM      6  C   UNL     1       1.120   6.278  21.054  0.00  0.00    +0.000 A 
ATOM      7  C   UNL     1       1.782   5.225  20.406  0.00  0.00    +0.000 A 
ATOM      8  C   UNL     1       2.700   5.468  19.332  0.00  0.00    +0.000 A 
ATOM      9  C   UNL     1       3.494   4.533  18.561  0.00  0.00    +0.000 A 
ATOM     10  C   UNL     1       4.349   4.965  17.512  0.00  0.00    +0.000 A 
ENDROOT
BRANCH   5  11
ATOM     11  C   UNL     1       0.630   8.727  21.222  0.00  0.00    +0.000 A 
ATOM     12  C   UNL     1       0.152   9.798  20.440  0.00  0.00    +0.000 A 
ATOM     13  C   UNL     1      -0.554  10.864  21.010  0.00  0.00    +0.000 A 
ATOM     14  C   UNL     1      -0.776  10.877  22.380  0.00  0.00    +0.000 A 
ATOM     15  C   UNL     1      -0.288   9.858  23.186  0.00  0.00    +0.000 A 
ATOM     16  C   UNL     1       0.415   8.796  22.611  0.00  0.00    +0.000 A 
BRANCH  14  17
ATOM     17  O   UNL     1      -1.475  11.883  22.975  0.00  0.00    +0.000 OA
ATOM     18  H   UNL     1      -2.382  11.577  23.143  0.00  0.00    +0.000 HD
ENDBRANCH  14  17
ENDBRANCH   5  11
BRANCH   1  20
ATOM     19  C   UNL     1       6.409   7.246  16.387  0.00  0.00    +0.000 C 
ATOM     20  O   UNL     1       5.102   6.749  16.102  0.00  0.00    +0.000 OA
ENDBRANCH   1  20
BRANCH   7  21
ATOM     21  C   UNL     1       1.473   3.879  20.972  0.00  0.00    +0.000 C 
ATOM     22  O   UNL     1       1.932   3.426  22.001  0.00  0.00    +0.000 OA
BRANCH  21  23
ATOM     23  O   UNL     1       0.500   3.236  20.274  0.00  0.00    +0.000 OA
ATOM     24  H   UNL     1       0.777   2.459  19.755  0.00  0.00    +0.000 HD
ENDBRANCH  21  23
ENDBRANCH   7  21
BRANCH   9  25
ATOM     25  O   UNL     1       3.391   3.233  18.990  0.00  0.00    +0.000 OA
ATOM     26  C   UNL     1       4.425   2.639  19.758  0.00  0.00    +0.000 C 
ENDBRANCH   9  25
BRANCH  10  27
ATOM     27  O   UNL     1       5.069   4.006  16.848  0.00  0.00    +0.000 OA
ATOM     28  C   UNL     1       6.488   3.995  16.965  0.00  0.00    +0.000 C 
ENDBRANCH  10  27
TORSDOF 7
ENDMDL
MODEL 4
REMARK VINA RESULT:      -6.5      0.958      1.125
REMARK  Name = 
REMARK  10 active torsions:
REMARK  status: ('A' for Active; 'I' for Inactive)
REMARK    1  A    between atoms: C_1  and  O_2
REMARK    2  A    between atoms: O_2  and  C_3
REMARK    3  A    between atoms: C_7  and  C_8
REMARK    4  A    between atoms: C_11  and  O_12
REMARK    5  A    between atoms: C_16  and  C_17
REMARK    6  A    between atoms: C_17  and  O_19
REMARK    7  A    between atoms: C_21  and  O_22
REMARK    8  A    between atoms: O_22  and  C_23
REMARK    9  A    between atoms: C_24  and  O_25
REMARK   10  A    between atoms: O_25  and  C_26
REMARK                            x       y       z     vdW  Elec       q    Type
REMARK                         _______ _______ _______ _____ _____    ______ ____
ROOT
ATOM      1  C   UNL     1       3.036   3.685  20.504  0.00  0.00    +0.000 A 
ATOM      2  C   UNL     1       2.326   4.884  20.418  0.00  0.00    +0.000 A 
ATOM      3  C   UNL     1       2.656   5.891  19.536  0.00  0.00    +0.000 A 
ATOM      4  N   UNL     1       1.889   6.990  19.635  0.00  0.00    +0.000 NA
ATOM      5  C   UNL     1       2.124   8.052  18.840  0.00  0.00    +0.000 A 
ATOM      6  C   UNL     1       3.141   8.023  17.912  0.00  0.00    +0.000 A 
ATOM      7  C   UNL     1       3.966   6.892  17.830  0.00  0.00    +0.000 A 
ATOM      8  C   UNL     1       3.736   5.739  18.651  0.00  0.00    +0.000 A 
ATOM      9  C   UNL     1       4.448   4.477  18.699  0.00  0.00    +0.000 A 
ATOM     10  C   UNL     1       4.078   3.443  19.600  0.00  0.00    +0.000 A 
ENDROOT
BRANCH   5  11
ATOM     11  C   UNL     1       1.231   9.214  19.008  0.00  0.00    +0.000 A 
ATOM     12  C   UNL     1       0.445   9.703  17.945  0.00  0.00    +0.000 A 
ATOM     13  C   UNL     1      -0.454  10.761  18.124  0.00  0.00    +0.000 A 
ATOM     14  C   UNL     1      -0.565  11.354  19.374  0.00  0.00    +0.000 A 
ATOM     15  C   UNL     1       0.219  10.922  20.435  0.00  0.00    +0.000 A 
ATOM     16  C   UNL     1       1.115   9.865  20.250  0.00  0.00    +0.000 A 
BRANCH  14  17
ATOM     17  O   UNL     1      -1.441  12.373  19.600  0.00  0.00    +0.000 OA
ATOM     18  H   UNL     1      -1.530  12.500  20.559  0.00  0.00    +0.000 HD
ENDBRANCH  14  17
ENDBRANCH   5  11
BRANCH   1  20
ATOM     19  C   UNL     1       1.348   2.540  21.721  0.00  0.00    +0.000 C 
ATOM     20  O   UNL     1       2.736   2.742  21.456  0.00  0.00    +0.000 OA
ENDBRANCH   1  20
BRANCH   7  21
ATOM     21  C   UNL     1       5.037   7.000  16.797  0.00  0.00    +0.000 C 
ATOM     22  O   UNL     1       6.079   7.609  16.924  0.00  0.00    +0.000 OA
BRANCH  21  23
ATOM     23  O   UNL     1       4.787   6.220  15.711  0.00  0.00    +0.000 OA
ATOM     24  H   UNL     1       4.332   5.374  15.877  0.00  0.00    +0.000 HD
ENDBRANCH  21  23
ENDBRANCH   7  21
BRANCH   9  25
ATOM     25  O   UNL     1       5.440   4.365  17.757  0.00  0.00    +0.000 OA
ATOM     26  C   UNL     1       6.804   4.496  18.121  0.00  0.00    +0.000 C 
ENDBRANCH   9  25
BRANCH  10  27
ATOM     27  O   UNL     1       4.805   2.281  19.561  0.00  0.00    +0.000 OA
ATOM     28  C   UNL     1       4.292   1.162  18.846  0.00  0.00    +0.000 C 
ENDBRANCH  10  27
TORSDOF 7
ENDMDL
MODEL 5
REMARK VINA RESULT:      -6.5      2.656      7.025
REMARK  Name = 
REMARK  10 active torsions:
REMARK  status: ('A' for Active; 'I' for Inactive)
REMARK    1  A    between atoms: C_1  and  O_2
REMARK    2  A    between atoms: O_2  and  C_3
REMARK    3  A    between atoms: C_7  and  C_8
REMARK    4  A    between atoms: C_11  and  O_12
REMARK    5  A    between atoms: C_16  and  C_17
REMARK    6  A    between atoms: C_17  and  O_19
REMARK    7  A    between atoms: C_21  and  O_22
REMARK    8  A    between atoms: O_22  and  C_23
REMARK    9  A    between atoms: C_24  and  O_25
REMARK   10  A    between atoms: O_25  and  C_26
REMARK                            x       y       z     vdW  Elec       q    Type
REMARK                         _______ _______ _______ _____ _____    ______ ____
ROOT
ATOM      1  C   UNL     1       2.452   7.545  18.928  0.00  0.00    +0.000 A 
ATOM      2  C   UNL     1       3.164   7.154  17.793  0.00  0.00    +0.000 A 
ATOM      3  C   UNL     1       3.670   5.882  17.624  0.00  0.00    +0.000 A 
ATOM      4  N   UNL     1       4.371   5.708  16.492  0.00  0.00    +0.000 NA
ATOM      5  C   UNL     1       4.933   4.513  16.221  0.00  0.00    +0.000 A 
ATOM      6  C   UNL     1       4.788   3.456  17.091  0.00  0.00    +0.000 A 
ATOM      7  C   UNL     1       4.086   3.643  18.291  0.00  0.00    +0.000 A 
ATOM      8  C   UNL     1       3.464   4.897  18.605  0.00  0.00    +0.000 A 
ATOM      9  C   UNL     1       2.683   5.281  19.764  0.00  0.00    +0.000 A 
ATOM     10  C   UNL     1       2.152   6.591  19.907  0.00  0.00    +0.000 A 
ENDROOT
BRANCH   5  11
ATOM     11  C   UNL     1       5.679   4.406  14.953  0.00  0.00    +0.000 A 
ATOM     12  C   UNL     1       5.185   3.657  13.865  0.00  0.00    +0.000 A 
ATOM     13  C   UNL     1       5.859   3.613  12.640  0.00  0.00    +0.000 A 
ATOM     14  C   UNL     1       7.050   4.311  12.493  0.00  0.00    +0.000 A 
ATOM     15  C   UNL     1       7.585   5.029  13.554  0.00  0.00    +0.000 A 
ATOM     16  C   UNL     1       6.907   5.070  14.776  0.00  0.00    +0.000 A 
BRANCH  14  17
ATOM     17  O   UNL     1       7.730   4.313  11.313  0.00  0.00    +0.000 OA
ATOM     18  H   UNL     1       8.615   3.941  11.462  0.00  0.00    +0.000 HD
ENDBRANCH  14  17
ENDBRANCH   5  11
BRANCH   1  20
ATOM     19  C   UNL     1       1.833   9.601  17.911  0.00  0.00    +0.000 C 
ATOM     20  O   UNL     1       2.043   8.844  19.103  0.00  0.00    +0.000 OA
ENDBRANCH   1  20
BRANCH   7  21
ATOM     21  C   UNL     1       4.020   2.424  19.147  0.00  0.00    +0.000 C 
ATOM     22  O   UNL     1       3.284   1.475  18.966  0.00  0.00    +0.000 OA
BRANCH  21  23
ATOM     23  O   UNL     1       4.981   2.415  20.108  0.00  0.00    +0.000 OA
ATOM     24  H   UNL     1       5.229   3.279  20.485  0.00  0.00    +0.000 HD
ENDBRANCH  21  23
ENDBRANCH   7  21
BRANCH   9  25
ATOM     25  O   UNL     1       2.455   4.252  20.643  0.00  0.00    +0.000 OA
ATOM     26  C   UNL     1       1.174   3.650  20.737  0.00  0.00    +0.000 C 
ENDBRANCH   9  25
BRANCH  10  27
ATOM     27  O   UNL     1       1.416   6.853  21.033  0.00  0.00    +0.000 OA
ATOM     28  C   UNL     1       1.212   8.205  21.433  0.00  0.00    +0.000 C 
ENDBRANCH  10  27
TORSDOF 7
ENDMDL
MODEL 6
REMARK VINA RESULT:      -6.4      2.296      4.419
REMARK  Name = 
REMARK  10 active torsions:
REMARK  status: ('A' for Active; 'I' for Inactive)
REMARK    1  A    between atoms: C_1  and  O_2
REMARK    2  A    between atoms: O_2  and  C_3
REMARK    3  A    between atoms: C_7  and  C_8
REMARK    4  A    between atoms: C_11  and  O_12
REMARK    5  A    between atoms: C_16  and  C_17
REMARK    6  A    between atoms: C_17  and  O_19
REMARK    7  A    between atoms: C_21  and  O_22
REMARK    8  A    between atoms: O_22  and  C_23
REMARK    9  A    between atoms: C_24  and  O_25
REMARK   10  A    between atoms: O_25  and  C_26
REMARK                            x       y       z     vdW  Elec       q    Type
REMARK                         _______ _______ _______ _____ _____    ______ ____
ROOT
ATOM      1  C   UNL     1       5.334   6.018  17.062  0.00  0.00    +0.000 A 
ATOM      2  C   UNL     1       4.591   6.880  17.870  0.00  0.00    +0.000 A 
ATOM      3  C   UNL     1       3.487   6.472  18.589  0.00  0.00    +0.000 A 
ATOM      4  N   UNL     1       2.871   7.454  19.267  0.00  0.00    +0.000 NA
ATOM      5  C   UNL     1       1.768   7.185  19.994  0.00  0.00    +0.000 A 
ATOM      6  C   UNL     1       1.267   5.905  20.061  0.00  0.00    +0.000 A 
ATOM      7  C   UNL     1       1.887   4.883  19.326  0.00  0.00    +0.000 A 
ATOM      8  C   UNL     1       3.069   5.131  18.553  0.00  0.00    +0.000 A 
ATOM      9  C   UNL     1       3.865   4.219  17.756  0.00  0.00    +0.000 A 
ATOM     10  C   UNL     1       5.012   4.656  17.040  0.00  0.00    +0.000 A 
ENDROOT
BRANCH   5  11
ATOM     11  C   UNL     1       1.159   8.319  20.713  0.00  0.00    +0.000 A 
ATOM     12  C   UNL     1       0.906   8.266  22.099  0.00  0.00    +0.000 A 
ATOM     13  C   UNL     1       0.392   9.367  22.793  0.00  0.00    +0.000 A 
ATOM     14  C   UNL     1       0.110  10.536  22.100  0.00  0.00    +0.000 A 
ATOM     15  C   UNL     1       0.312  10.613  20.730  0.00  0.00    +0.000 A 
ATOM     16  C   UNL     1       0.826   9.510  20.041  0.00  0.00    +0.000 A 
BRANCH  14  17
ATOM     17  O   UNL     1      -0.373  11.639  22.738  0.00  0.00    +0.000 OA
ATOM     18  H   UNL     1      -0.327  12.395  22.129  0.00  0.00    +0.000 HD
ENDBRANCH  14  17
ENDBRANCH   5  11
BRANCH   1  20
ATOM     19  C   UNL     1       7.449   7.096  16.990  0.00  0.00    +0.000 C 
ATOM     20  O   UNL     1       6.371   6.479  16.288  0.00  0.00    +0.000 OA
ENDBRANCH   1  20
BRANCH   7  21
ATOM     21  C   UNL     1       1.232   3.551  19.474  0.00  0.00    +0.000 C 
ATOM     22  O   UNL     1       1.079   2.954  20.519  0.00  0.00    +0.000 OA
BRANCH  21  23
ATOM     23  O   UNL     1       0.689   3.110  18.308  0.00  0.00    +0.000 OA
ATOM     24  H   UNL     1       1.277   2.603  17.718  0.00  0.00    +0.000 HD
ENDBRANCH  21  23
ENDBRANCH   7  21
BRANCH   9  25
ATOM     25  O   UNL     1       3.448   2.913  17.827  0.00  0.00    +0.000 OA
ATOM     26  C   UNL     1       4.059   2.005  18.729  0.00  0.00    +0.000 C 
ENDBRANCH   9  25
BRANCH  10  27
ATOM     27  O   UNL     1       5.706   3.715  16.325  0.00  0.00    +0.000 OA
ATOM     28  C   UNL     1       5.715   3.788  14.903  0.00  0.00    +0.000 C 
ENDBRANCH  10  27
TORSDOF 7
ENDMDL
MODEL 7
REMARK VINA RESULT:      -6.4      2.969      8.468
REMARK  Name = 
REMARK  10 active torsions:
REMARK  status: ('A' for Active; 'I' for Inactive)
REMARK    1  A    between atoms: C_1  and  O_2
REMARK    2  A    between atoms: O_2  and  C_3
REMARK    3  A    between atoms: C_7  and  C_8
REMARK    4  A    between atoms: C_11  and  O_12
REMARK    5  A    between atoms: C_16  and  C_17
REMARK    6  A    between atoms: C_17  and  O_19
REMARK    7  A    between atoms: C_21  and  O_22
REMARK    8  A    between atoms: O_22  and  C_23
REMARK    9  A    between atoms: C_24  and  O_25
REMARK   10  A    between atoms: O_25  and  C_26
REMARK                            x       y       z     vdW  Elec       q    Type
REMARK                         _______ _______ _______ _____ _____    ______ ____
ROOT
ATOM      1  C   UNL     1       1.131  12.505  18.939  0.00  0.00    +0.000 A 
ATOM      2  C   UNL     1       1.517  11.189  18.676  0.00  0.00    +0.000 A 
ATOM      3  C   UNL     1       1.365  10.165  19.587  0.00  0.00    +0.000 A 
ATOM      4  N   UNL     1       1.843   8.979  19.174  0.00  0.00    +0.000 NA
ATOM      5  C   UNL     1       1.771   7.903  19.983  0.00  0.00    +0.000 A 
ATOM      6  C   UNL     1       1.201   8.001  21.232  0.00  0.00    +0.000 A 
ATOM      7  C   UNL     1       0.734   9.245  21.680  0.00  0.00    +0.000 A 
ATOM      8  C   UNL     1       0.782  10.407  20.841  0.00  0.00    +0.000 A 
ATOM      9  C   UNL     1       0.332  11.760  21.104  0.00  0.00    +0.000 A 
ATOM     10  C   UNL     1       0.477  12.796  20.142  0.00  0.00    +0.000 A 
ENDROOT
BRANCH   5  11
ATOM     11  C   UNL     1       2.311   6.639  19.449  0.00  0.00    +0.000 A 
ATOM     12  C   UNL     1       2.206   5.429  20.165  0.00  0.00    +0.000 A 
ATOM     13  C   UNL     1       2.656   4.218  19.627  0.00  0.00    +0.000 A 
ATOM     14  C   UNL     1       3.235   4.208  18.366  0.00  0.00    +0.000 A 
ATOM     15  C   UNL     1       3.389   5.385  17.648  0.00  0.00    +0.000 A 
ATOM     16  C   UNL     1       2.937   6.592  18.189  0.00  0.00    +0.000 A 
BRANCH  14  17
ATOM     17  O   UNL     1       3.670   3.050  17.795  0.00  0.00    +0.000 OA
ATOM     18  H   UNL     1       2.901   2.559  17.460  0.00  0.00    +0.000 HD
ENDBRANCH  14  17
ENDBRANCH   5  11
BRANCH   1  20
ATOM     19  C   UNL     1       2.662  14.135  18.139  0.00  0.00    +0.000 C 
ATOM     20  O   UNL     1       1.380  13.516  18.044  0.00  0.00    +0.000 OA
ENDBRANCH   1  20
BRANCH   7  21
ATOM     21  C   UNL     1       0.157   9.214  23.056  0.00  0.00    +0.000 C 
ATOM     22  O   UNL     1       0.720   9.589  24.064  0.00  0.00    +0.000 OA
BRANCH  21  23
ATOM     23  O   UNL     1      -1.148   8.833  23.060  0.00  0.00    +0.000 OA
ATOM     24  H   UNL     1      -1.342   7.943  23.408  0.00  0.00    +0.000 HD
ENDBRANCH  21  23
ENDBRANCH   7  21
BRANCH   9  25
ATOM     25  O   UNL     1      -0.298  11.909  22.314  0.00  0.00    +0.000 OA
ATOM     26  C   UNL     1      -1.692  12.160  22.379  0.00  0.00    +0.000 C 
ENDBRANCH   9  25
BRANCH  10  27
ATOM     27  O   UNL     1       0.010  14.040  20.479  0.00  0.00    +0.000 OA
ATOM     28  C   UNL     1       0.817  14.894  21.283  0.00  0.00    +0.000 C 
ENDBRANCH  10  27
TORSDOF 7
ENDMDL
MODEL 8
REMARK VINA RESULT:      -6.3      0.776      1.363
REMARK  Name = 
REMARK  10 active torsions:
REMARK  status: ('A' for Active; 'I' for Inactive)
REMARK    1  A    between atoms: C_1  and  O_2
REMARK    2  A    between atoms: O_2  and  C_3
REMARK    3  A    between atoms: C_7  and  C_8
REMARK    4  A    between atoms: C_11  and  O_12
REMARK    5  A    between atoms: C_16  and  C_17
REMARK    6  A    between atoms: C_17  and  O_19
REMARK    7  A    between atoms: C_21  and  O_22
REMARK    8  A    between atoms: O_22  and  C_23
REMARK    9  A    between atoms: C_24  and  O_25
REMARK   10  A    between atoms: O_25  and  C_26
REMARK                            x       y       z     vdW  Elec       q    Type
REMARK                         _______ _______ _______ _____ _____    ______ ____
ROOT
ATOM      1  C   UNL     1       2.302   3.804  19.513  0.00  0.00    +0.000 A 
ATOM      2  C   UNL     1       1.746   5.082  19.426  0.00  0.00    +0.000 A 
ATOM      3  C   UNL     1       2.346   6.117  18.740  0.00  0.00    +0.000 A 
ATOM      4  N   UNL     1       1.688   7.286  18.812  0.00  0.00    +0.000 NA
ATOM      5  C   UNL     1       2.183   8.379  18.198  0.00  0.00    +0.000 A 
ATOM      6  C   UNL     1       3.358   8.311  17.483  0.00  0.00    +0.000 A 
ATOM      7  C   UNL     1       4.065   7.101  17.435  0.00  0.00    +0.000 A 
ATOM      8  C   UNL     1       3.561   5.916  18.065  0.00  0.00    +0.000 A 
ATOM      9  C   UNL     1       4.120   4.579  18.108  0.00  0.00    +0.000 A 
ATOM     10  C   UNL     1       3.475   3.521  18.802  0.00  0.00    +0.000 A 
ENDROOT
BRANCH   5  11
ATOM     11  C   UNL     1       1.394   9.619  18.321  0.00  0.00    +0.000 A 
ATOM     12  C   UNL     1       2.012  10.875  18.496  0.00  0.00    +0.000 A 
ATOM     13  C   UNL     1       1.267  12.058  18.543  0.00  0.00    +0.000 A 
ATOM     14  C   UNL     1      -0.115  11.996  18.431  0.00  0.00    +0.000 A 
ATOM     15  C   UNL     1      -0.760  10.775  18.294  0.00  0.00    +0.000 A 
ATOM     16  C   UNL     1      -0.011   9.596  18.247  0.00  0.00    +0.000 A 
BRANCH  14  17
ATOM     17  O   UNL     1      -0.880  13.124  18.451  0.00  0.00    +0.000 OA
ATOM     18  H   UNL     1      -0.425  13.818  17.946  0.00  0.00    +0.000 HD
ENDBRANCH  14  17
ENDBRANCH   5  11
BRANCH   1  20
ATOM     19  C   UNL     1       1.691   3.066  21.687  0.00  0.00    +0.000 C 
ATOM     20  O   UNL     1       1.724   2.823  20.281  0.00  0.00    +0.000 OA
ENDBRANCH   1  20
BRANCH   7  21
ATOM     21  C   UNL     1       5.327   7.172  16.642  0.00  0.00    +0.000 C 
ATOM     22  O   UNL     1       6.399   7.562  17.058  0.00  0.00    +0.000 OA
BRANCH  21  23
ATOM     23  O   UNL     1       5.193   6.619  15.407  0.00  0.00    +0.000 OA
ATOM     24  H   UNL     1       5.396   5.669  15.330  0.00  0.00    +0.000 HD
ENDBRANCH  21  23
ENDBRANCH   7  21
BRANCH   9  25
ATOM     25  O   UNL     1       5.264   4.433  17.365  0.00  0.00    +0.000 OA
ATOM     26  C   UNL     1       6.535   4.380  17.992  0.00  0.00    +0.000 C 
ENDBRANCH   9  25
BRANCH  10  27
ATOM     27  O   UNL     1       4.075   2.289  18.774  0.00  0.00    +0.000 OA
ATOM     28  C   UNL     1       4.717   1.800  19.948  0.00  0.00    +0.000 C 
ENDBRANCH  10  27
TORSDOF 7
ENDMDL
MODEL 9
REMARK VINA RESULT:      -6.3      2.924      8.493
REMARK  Name = 
REMARK  10 active torsions:
REMARK  status: ('A' for Active; 'I' for Inactive)
REMARK    1  A    between atoms: C_1  and  O_2
REMARK    2  A    between atoms: O_2  and  C_3
REMARK    3  A    between atoms: C_7  and  C_8
REMARK    4  A    between atoms: C_11  and  O_12
REMARK    5  A    between atoms: C_16  and  C_17
REMARK    6  A    between atoms: C_17  and  O_19
REMARK    7  A    between atoms: C_21  and  O_22
REMARK    8  A    between atoms: O_22  and  C_23
REMARK    9  A    between atoms: C_24  and  O_25
REMARK   10  A    between atoms: O_25  and  C_26
REMARK                            x       y       z     vdW  Elec       q    Type
REMARK                         _______ _______ _______ _____ _____    ______ ____
ROOT
ATOM      1  C   UNL     1       1.170  12.508  18.929  0.00  0.00    +0.000 A 
ATOM      2  C   UNL     1       1.532  11.187  18.658  0.00  0.00    +0.000 A 
ATOM      3  C   UNL     1       1.373  10.163  19.568  0.00  0.00    +0.000 A 
ATOM      4  N   UNL     1       1.827   8.971  19.147  0.00  0.00    +0.000 NA
ATOM      5  C   UNL     1       1.746   7.894  19.953  0.00  0.00    +0.000 A 
ATOM      6  C   UNL     1       1.190   7.997  21.208  0.00  0.00    +0.000 A 
ATOM      7  C   UNL     1       0.748   9.247  21.665  0.00  0.00    +0.000 A 
ATOM      8  C   UNL     1       0.806  10.411  20.829  0.00  0.00    +0.000 A 
ATOM      9  C   UNL     1       0.381  11.770  21.100  0.00  0.00    +0.000 A 
ATOM     10  C   UNL     1       0.533  12.807  20.140  0.00  0.00    +0.000 A 
ENDROOT
BRANCH   5  11
ATOM     11  C   UNL     1       2.260   6.623  19.410  0.00  0.00    +0.000 A 
ATOM     12  C   UNL     1       2.928   6.565  18.170  0.00  0.00    +0.000 A 
ATOM     13  C   UNL     1       3.477   5.371  17.688  0.00  0.00    +0.000 A 
ATOM     14  C   UNL     1       3.348   4.212  18.439  0.00  0.00    +0.000 A 
ATOM     15  C   UNL     1       2.666   4.223  19.648  0.00  0.00    +0.000 A 
ATOM     16  C   UNL     1       2.120   5.419  20.125  0.00  0.00    +0.000 A 
BRANCH  14  17
ATOM     17  O   UNL     1       3.883   3.031  18.020  0.00  0.00    +0.000 OA
ATOM     18  H   UNL     1       4.682   2.847  18.542  0.00  0.00    +0.000 HD
ENDBRANCH  14  17
ENDBRANCH   5  11
BRANCH   1  20
ATOM     19  C   UNL     1       2.703  14.146  18.148  0.00  0.00    +0.000 C 
ATOM     20  O   UNL     1       1.426  13.518  18.034  0.00  0.00    +0.000 OA
ENDBRANCH   1  20
BRANCH   7  21
ATOM     21  C   UNL     1       0.184   9.220  23.045  0.00  0.00    +0.000 C 
ATOM     22  O   UNL     1       0.753   9.607  24.046  0.00  0.00    +0.000 OA
BRANCH  21  23
ATOM     23  O   UNL     1      -1.118   8.829  23.065  0.00  0.00    +0.000 OA
ATOM     24  H   UNL     1      -1.413   8.260  22.330  0.00  0.00    +0.000 HD
ENDBRANCH  21  23
ENDBRANCH   7  21
BRANCH   9  25
ATOM     25  O   UNL     1      -0.234  11.926  22.316  0.00  0.00    +0.000 OA
ATOM     26  C   UNL     1      -1.638  12.108  22.401  0.00  0.00    +0.000 C 
ENDBRANCH   9  25
BRANCH  10  27
ATOM     27  O   UNL     1       0.089  14.057  20.485  0.00  0.00    +0.000 OA
ATOM     28  C   UNL     1      -1.076  14.580  19.856  0.00  0.00    +0.000 C 
ENDBRANCH  10  27
TORSDOF 7
ENDMDL
