MODEL 1
REMARK VINA RESULT:      -6.2      0.000      0.000
REMARK  Name = 
REMARK  3 active torsions:
REMARK  status: ('A' for Active; 'I' for Inactive)
REMARK    1  A    between atoms: C_2  and  C_3
REMARK    2  A    between atoms: C_2  and  C_9
REMARK    3  A    between atoms: C_3  and  N_4
REMARK                            x       y       z     vdW  Elec       q    Type
REMARK                         _______ _______ _______ _____ _____    ______ ____
ROOT
ATOM      1  O   UNL     1       2.587   7.521  18.725  0.00  0.00    +0.000 OA
ATOM      2  C   UNL     1       3.085   6.419  18.508  0.00  0.00    +0.000 C 
ENDROOT
BRANCH   2   3
ATOM      3  C   UNL     1       2.341   5.216  18.978  0.00  0.00    +0.000 A 
ATOM      4  C   UNL     1       2.064   5.005  20.333  0.00  0.00    +0.000 A 
ATOM      5  C   UNL     1       1.301   3.903  20.723  0.00  0.00    +0.000 A 
ATOM      6  C   UNL     1       0.821   3.012  19.765  0.00  0.00    +0.000 A 
ATOM      7  C   UNL     1       1.130   3.199  18.417  0.00  0.00    +0.000 A 
ATOM      8  C   UNL     1       1.896   4.295  18.023  0.00  0.00    +0.000 A 
ENDBRANCH   2   3
BRANCH   2   9
ATOM      9  C   UNL     1       4.396   6.168  17.754  0.00  0.00    +0.000 C 
BRANCH   9  10
ATOM     10  N   UNL     1       5.161   5.013  18.276  0.00  0.00    +0.000 NA
ATOM     11  C   UNL     1       6.198   5.390  19.252  0.00  0.00    +0.000 C 
ATOM     12  C   UNL     1       7.372   5.848  18.409  0.00  0.00    +0.000 C 
ATOM     13  C   UNL     1       7.347   4.881  17.241  0.00  0.00    +0.000 C 
ATOM     14  C   UNL     1       5.911   4.365  17.181  0.00  0.00    +0.000 C 
ENDBRANCH   9  10
ENDBRANCH   2   9
TORSDOF 3
ENDMDL
MODEL 2
REMARK VINA RESULT:      -6.2      1.898      5.331
REMARK  Name = 
REMARK  3 active torsions:
REMARK  status: ('A' for Active; 'I' for Inactive)
REMARK    1  A    between atoms: C_2  and  C_3
REMARK    2  A    between atoms: C_2  and  C_9
REMARK    3  A    between atoms: C_3  and  N_4
REMARK                            x       y       z     vdW  Elec       q    Type
REMARK                         _______ _______ _______ _____ _____    ______ ____
ROOT
ATOM      1  O   UNL     1       6.045   5.011  19.784  0.00  0.00    +0.000 OA
ATOM      2  C   UNL     1       5.315   4.418  18.993  0.00  0.00    +0.000 C 
ENDROOT
BRANCH   2   3
ATOM      3  C   UNL     1       5.692   4.436  17.552  0.00  0.00    +0.000 A 
ATOM      4  C   UNL     1       4.745   4.240  16.541  0.00  0.00    +0.000 A 
ATOM      5  C   UNL     1       5.128   4.337  15.202  0.00  0.00    +0.000 A 
ATOM      6  C   UNL     1       6.451   4.623  14.873  0.00  0.00    +0.000 A 
ATOM      7  C   UNL     1       7.405   4.779  15.879  0.00  0.00    +0.000 A 
ATOM      8  C   UNL     1       7.030   4.679  17.218  0.00  0.00    +0.000 A 
ENDBRANCH   2   3
BRANCH   2   9
ATOM      9  C   UNL     1       4.060   3.622  19.368  0.00  0.00    +0.000 C 
BRANCH   9  10
ATOM     10  N   UNL     1       2.861   4.470  19.555  0.00  0.00    +0.000 NA
ATOM     11  C   UNL     1       2.383   4.511  20.947  0.00  0.00    +0.000 C 
ATOM     12  C   UNL     1       1.570   3.242  21.114  0.00  0.00    +0.000 C 
ATOM     13  C   UNL     1       0.865   3.115  19.777  0.00  0.00    +0.000 C 
ATOM     14  C   UNL     1       1.722   3.912  18.797  0.00  0.00    +0.000 C 
ENDBRANCH   9  10
ENDBRANCH   2   9
TORSDOF 3
ENDMDL
MODEL 3
REMARK VINA RESULT:      -6.2      1.976      5.213
REMARK  Name = 
REMARK  3 active torsions:
REMARK  status: ('A' for Active; 'I' for Inactive)
REMARK    1  A    between atoms: C_2  and  C_3
REMARK    2  A    between atoms: C_2  and  C_9
REMARK    3  A    between atoms: C_3  and  N_4
REMARK                            x       y       z     vdW  Elec       q    Type
REMARK                         _______ _______ _______ _____ _____    ______ ____
ROOT
ATOM      1  O   UNL     1       6.554   5.174  19.849  0.00  0.00    +0.000 OA
ATOM      2  C   UNL     1       5.595   5.232  19.083  0.00  0.00    +0.000 C 
ENDROOT
BRANCH   2   3
ATOM      3  C   UNL     1       5.874   5.240  17.620  0.00  0.00    +0.000 A 
ATOM      4  C   UNL     1       6.926   4.503  17.066  0.00  0.00    +0.000 A 
ATOM      5  C   UNL     1       7.107   4.480  15.683  0.00  0.00    +0.000 A 
ATOM      6  C   UNL     1       6.244   5.195  14.854  0.00  0.00    +0.000 A 
ATOM      7  C   UNL     1       5.218   5.963  15.406  0.00  0.00    +0.000 A 
ATOM      8  C   UNL     1       5.036   5.993  16.788  0.00  0.00    +0.000 A 
ENDBRANCH   2   3
BRANCH   2   9
ATOM      9  C   UNL     1       4.121   5.258  19.505  0.00  0.00    +0.000 C 
BRANCH   9  10
ATOM     10  N   UNL     1       3.556   3.911  19.744  0.00  0.00    +0.000 NA
ATOM     11  C   UNL     1       2.863   3.349  18.572  0.00  0.00    +0.000 C 
ATOM     12  C   UNL     1       1.486   3.983  18.597  0.00  0.00    +0.000 C 
ATOM     13  C   UNL     1       1.159   4.022  20.077  0.00  0.00    +0.000 C 
ATOM     14  C   UNL     1       2.510   3.978  20.786  0.00  0.00    +0.000 C 
ENDBRANCH   9  10
ENDBRANCH   2   9
TORSDOF 3
ENDMDL
MODEL 4
REMARK VINA RESULT:      -6.1      1.687      2.312
REMARK  Name = 
REMARK  3 active torsions:
REMARK  status: ('A' for Active; 'I' for Inactive)
REMARK    1  A    between atoms: C_2  and  C_3
REMARK    2  A    between atoms: C_2  and  C_9
REMARK    3  A    between atoms: C_3  and  N_4
REMARK                            x       y       z     vdW  Elec       q    Type
REMARK                         _______ _______ _______ _____ _____    ______ ____
ROOT
ATOM      1  O   UNL     1       4.293   3.621  16.788  0.00  0.00    +0.000 OA
ATOM      2  C   UNL     1       4.120   4.461  17.667  0.00  0.00    +0.000 C 
ENDROOT
BRANCH   2   3
ATOM      3  C   UNL     1       3.014   4.233  18.638  0.00  0.00    +0.000 A 
ATOM      4  C   UNL     1       1.952   3.366  18.355  0.00  0.00    +0.000 A 
ATOM      5  C   UNL     1       0.976   3.125  19.322  0.00  0.00    +0.000 A 
ATOM      6  C   UNL     1       1.053   3.750  20.565  0.00  0.00    +0.000 A 
ATOM      7  C   UNL     1       2.089   4.645  20.835  0.00  0.00    +0.000 A 
ATOM      8  C   UNL     1       3.065   4.894  19.872  0.00  0.00    +0.000 A 
ENDBRANCH   2   3
BRANCH   2   9
ATOM      9  C   UNL     1       4.975   5.716  17.879  0.00  0.00    +0.000 C 
BRANCH   9  10
ATOM     10  N   UNL     1       6.299   5.641  17.224  0.00  0.00    +0.000 NA
ATOM     11  C   UNL     1       7.274   4.822  17.965  0.00  0.00    +0.000 C 
ATOM     12  C   UNL     1       7.808   5.742  19.045  0.00  0.00    +0.000 C 
ATOM     13  C   UNL     1       7.901   7.079  18.335  0.00  0.00    +0.000 C 
ATOM     14  C   UNL     1       6.917   6.982  17.172  0.00  0.00    +0.000 C 
ENDBRANCH   9  10
ENDBRANCH   2   9
TORSDOF 3
ENDMDL
MODEL 5
REMARK VINA RESULT:      -6.1      1.934      5.316
REMARK  Name = 
REMARK  3 active torsions:
REMARK  status: ('A' for Active; 'I' for Inactive)
REMARK    1  A    between atoms: C_2  and  C_3
REMARK    2  A    between atoms: C_2  and  C_9
REMARK    3  A    between atoms: C_3  and  N_4
REMARK                            x       y       z     vdW  Elec       q    Type
REMARK                         _______ _______ _______ _____ _____    ______ ____
ROOT
ATOM      1  O   UNL     1       6.294   4.873  19.839  0.00  0.00    +0.000 OA
ATOM      2  C   UNL     1       5.377   4.880  19.021  0.00  0.00    +0.000 C 
ENDROOT
BRANCH   2   3
ATOM      3  C   UNL     1       5.726   4.697  17.585  0.00  0.00    +0.000 A 
ATOM      4  C   UNL     1       4.751   4.420  16.619  0.00  0.00    +0.000 A 
ATOM      5  C   UNL     1       5.112   4.329  15.275  0.00  0.00    +0.000 A 
ATOM      6  C   UNL     1       6.440   4.508  14.893  0.00  0.00    +0.000 A 
ATOM      7  C   UNL     1       7.420   4.745  15.858  0.00  0.00    +0.000 A 
ATOM      8  C   UNL     1       7.067   4.832  17.204  0.00  0.00    +0.000 A 
ENDBRANCH   2   3
BRANCH   2   9
ATOM      9  C   UNL     1       3.888   5.024  19.356  0.00  0.00    +0.000 C 
BRANCH   9  10
ATOM     10  N   UNL     1       3.343   3.873  20.111  0.00  0.00    +0.000 NA
ATOM     11  C   UNL     1       2.727   2.848  19.252  0.00  0.00    +0.000 C 
ATOM     12  C   UNL     1       1.335   3.375  18.960  0.00  0.00    +0.000 C 
ATOM     13  C   UNL     1       0.930   4.007  20.277  0.00  0.00    +0.000 C 
ATOM     14  C   UNL     1       2.243   4.318  20.991  0.00  0.00    +0.000 C 
ENDBRANCH   9  10
ENDBRANCH   2   9
TORSDOF 3
ENDMDL
MODEL 6
REMARK VINA RESULT:      -6.1      0.879      1.950
REMARK  Name = 
REMARK  3 active torsions:
REMARK  status: ('A' for Active; 'I' for Inactive)
REMARK    1  A    between atoms: C_2  and  C_3
REMARK    2  A    between atoms: C_2  and  C_9
REMARK    3  A    between atoms: C_3  and  N_4
REMARK                            x       y       z     vdW  Elec       q    Type
REMARK                         _______ _______ _______ _____ _____    ______ ____
ROOT
ATOM      1  O   UNL     1       3.021   7.214  18.695  0.00  0.00    +0.000 OA
ATOM      2  C   UNL     1       3.473   6.078  18.809  0.00  0.00    +0.000 C 
ENDROOT
BRANCH   2   3
ATOM      3  C   UNL     1       2.508   4.966  19.037  0.00  0.00    +0.000 A 
ATOM      4  C   UNL     1       2.194   4.044  18.032  0.00  0.00    +0.000 A 
ATOM      5  C   UNL     1       1.341   2.976  18.311  0.00  0.00    +0.000 A 
ATOM      6  C   UNL     1       0.799   2.829  19.586  0.00  0.00    +0.000 A 
ATOM      7  C   UNL     1       1.078   3.768  20.579  0.00  0.00    +0.000 A 
ATOM      8  C   UNL     1       1.926   4.841  20.305  0.00  0.00    +0.000 A 
ENDBRANCH   2   3
BRANCH   2   9
ATOM      9  C   UNL     1       4.953   5.694  18.696  0.00  0.00    +0.000 C 
BRANCH   9  10
ATOM     10  N   UNL     1       5.601   6.211  17.471  0.00  0.00    +0.000 NA
ATOM     11  C   UNL     1       5.026   5.668  16.229  0.00  0.00    +0.000 C 
ATOM     12  C   UNL     1       5.683   4.312  16.060  0.00  0.00    +0.000 C 
ATOM     13  C   UNL     1       7.104   4.565  16.522  0.00  0.00    +0.000 C 
ATOM     14  C   UNL     1       7.017   5.791  17.429  0.00  0.00    +0.000 C 
ENDBRANCH   9  10
ENDBRANCH   2   9
TORSDOF 3
ENDMDL
MODEL 7
REMARK VINA RESULT:      -6.1      1.808      2.050
REMARK  Name = 
REMARK  3 active torsions:
REMARK  status: ('A' for Active; 'I' for Inactive)
REMARK    1  A    between atoms: C_2  and  C_3
REMARK    2  A    between atoms: C_2  and  C_9
REMARK    3  A    between atoms: C_3  and  N_4
REMARK                            x       y       z     vdW  Elec       q    Type
REMARK                         _______ _______ _______ _____ _____    ______ ____
ROOT
ATOM      1  O   UNL     1       4.422   3.285  16.971  0.00  0.00    +0.000 OA
ATOM      2  C   UNL     1       4.207   4.124  17.842  0.00  0.00    +0.000 C 
ENDROOT
BRANCH   2   3
ATOM      3  C   UNL     1       3.069   3.884  18.773  0.00  0.00    +0.000 A 
ATOM      4  C   UNL     1       2.984   4.525  20.014  0.00  0.00    +0.000 A 
ATOM      5  C   UNL     1       1.864   4.327  20.822  0.00  0.00    +0.000 A 
ATOM      6  C   UNL     1       0.835   3.490  20.398  0.00  0.00    +0.000 A 
ATOM      7  C   UNL     1       0.935   2.819  19.179  0.00  0.00    +0.000 A 
ATOM      8  C   UNL     1       2.054   3.008  18.369  0.00  0.00    +0.000 A 
ENDBRANCH   2   3
BRANCH   2   9
ATOM      9  C   UNL     1       5.039   5.389  18.082  0.00  0.00    +0.000 C 
BRANCH   9  10
ATOM     10  N   UNL     1       6.307   5.410  17.320  0.00  0.00    +0.000 NA
ATOM     11  C   UNL     1       7.444   4.832  18.057  0.00  0.00    +0.000 C 
ATOM     12  C   UNL     1       7.919   5.947  18.970  0.00  0.00    +0.000 C 
ATOM     13  C   UNL     1       7.762   7.182  18.104  0.00  0.00    +0.000 C 
ATOM     14  C   UNL     1       6.718   6.805  17.056  0.00  0.00    +0.000 C 
ENDBRANCH   9  10
ENDBRANCH   2   9
TORSDOF 3
ENDMDL
MODEL 8
REMARK VINA RESULT:      -6.0      1.974      5.140
REMARK  Name = 
REMARK  3 active torsions:
REMARK  status: ('A' for Active; 'I' for Inactive)
REMARK    1  A    between atoms: C_2  and  C_3
REMARK    2  A    between atoms: C_2  and  C_9
REMARK    3  A    between atoms: C_3  and  N_4
REMARK                            x       y       z     vdW  Elec       q    Type
REMARK                         _______ _______ _______ _____ _____    ______ ____
ROOT
ATOM      1  O   UNL     1       6.254   4.919  19.788  0.00  0.00    +0.000 OA
ATOM      2  C   UNL     1       5.321   4.555  19.076  0.00  0.00    +0.000 C 
ENDROOT
BRANCH   2   3
ATOM      3  C   UNL     1       5.383   4.888  17.626  0.00  0.00    +0.000 A 
ATOM      4  C   UNL     1       5.637   3.912  16.656  0.00  0.00    +0.000 A 
ATOM      5  C   UNL     1       5.614   4.254  15.303  0.00  0.00    +0.000 A 
ATOM      6  C   UNL     1       5.345   5.565  14.918  0.00  0.00    +0.000 A 
ATOM      7  C   UNL     1       5.131   6.549  15.884  0.00  0.00    +0.000 A 
ATOM      8  C   UNL     1       5.158   6.215  17.238  0.00  0.00    +0.000 A 
ENDBRANCH   2   3
BRANCH   2   9
ATOM      9  C   UNL     1       4.106   3.747  19.546  0.00  0.00    +0.000 C 
BRANCH   9  10
ATOM     10  N   UNL     1       2.864   4.548  19.627  0.00  0.00    +0.000 NA
ATOM     11  C   UNL     1       2.272   4.576  20.976  0.00  0.00    +0.000 C 
ATOM     12  C   UNL     1       1.497   3.277  21.084  0.00  0.00    +0.000 C 
ATOM     13  C   UNL     1       0.911   3.117  19.696  0.00  0.00    +0.000 C 
ATOM     14  C   UNL     1       1.814   3.943  18.783  0.00  0.00    +0.000 C 
ENDBRANCH   9  10
ENDBRANCH   2   9
TORSDOF 3
ENDMDL
MODEL 9
REMARK VINA RESULT:      -6.0      2.209      5.062
REMARK  Name = 
REMARK  3 active torsions:
REMARK  status: ('A' for Active; 'I' for Inactive)
REMARK    1  A    between atoms: C_2  and  C_3
REMARK    2  A    between atoms: C_2  and  C_9
REMARK    3  A    between atoms: C_3  and  N_4
REMARK                            x       y       z     vdW  Elec       q    Type
REMARK                         _______ _______ _______ _____ _____    ______ ____
ROOT
ATOM      1  O   UNL     1       5.833   4.057  19.637  0.00  0.00    +0.000 OA
ATOM      2  C   UNL     1       4.826   4.440  19.045  0.00  0.00    +0.000 C 
ENDROOT
BRANCH   2   3
ATOM      3  C   UNL     1       4.979   4.885  17.631  0.00  0.00    +0.000 A 
ATOM      4  C   UNL     1       4.887   6.234  17.270  0.00  0.00    +0.000 A 
ATOM      5  C   UNL     1       5.109   6.615  15.946  0.00  0.00    +0.000 A 
ATOM      6  C   UNL     1       5.417   5.655  14.985  0.00  0.00    +0.000 A 
ATOM      7  C   UNL     1       5.471   4.305  15.335  0.00  0.00    +0.000 A 
ATOM      8  C   UNL     1       5.245   3.918  16.655  0.00  0.00    +0.000 A 
ENDBRANCH   2   3
BRANCH   2   9
ATOM      9  C   UNL     1       3.408   4.462  19.625  0.00  0.00    +0.000 C 
BRANCH   9  10
ATOM     10  N   UNL     1       2.925   3.128  20.045  0.00  0.00    +0.000 NA
ATOM     11  C   UNL     1       3.167   2.075  19.045  0.00  0.00    +0.000 C 
ATOM     12  C   UNL     1       2.034   2.223  18.047  0.00  0.00    +0.000 C 
ATOM     13  C   UNL     1       0.850   2.564  18.929  0.00  0.00    +0.000 C 
ATOM     14  C   UNL     1       1.456   3.147  20.204  0.00  0.00    +0.000 C 
ENDBRANCH   9  10
ENDBRANCH   2   9
TORSDOF 3
ENDMDL
