MODEL 1
REMARK VINA RESULT:      -8.4      0.000      0.000
REMARK  Name = 
REMARK  4 active torsions:
REMARK  status: ('A' for Active; 'I' for Inactive)
REMARK    1  A    between atoms: C_4  and  C_5
REMARK    2  A    between atoms: N_7  and  C_8
REMARK    3  A    between atoms: C_8  and  C_9
REMARK    4  A    between atoms: C_11  and  C_12
REMARK                            x       y       z     vdW  Elec       q    Type
REMARK                         _______ _______ _______ _____ _____    ______ ____
ROOT
ATOM      1  C   UNL     1       3.371   3.245  18.144  0.00  0.00    +0.000 C 
ATOM      2  C   UNL     1       2.482   2.168  17.534  0.00  0.00    +0.000 C 
ATOM      3  C   UNL     1       3.283   1.847  18.749  0.00  0.00    +0.000 C 
ENDROOT
BRANCH   1   4
ATOM      4  C   UNL     1       2.697   4.371  18.932  0.00  0.00    +0.000 A 
ATOM      5  C   UNL     1       2.574   5.647  18.336  0.00  0.00    +0.000 A 
ATOM      6  C   UNL     1       2.177   6.781  19.062  0.00  0.00    +0.000 A 
ATOM      7  C   UNL     1       1.872   6.637  20.420  0.00  0.00    +0.000 A 
ATOM      8  C   UNL     1       1.892   5.376  21.013  0.00  0.00    +0.000 A 
ATOM      9  C   UNL     1       2.271   4.253  20.270  0.00  0.00    +0.000 A 
ATOM     10 CL   UNL     1       2.202   2.717  21.064  0.00  0.00    +0.000 Cl
BRANCH   6  11
ATOM     11  C   UNL     1       2.131   8.145  18.415  0.00  0.00    +0.000 C 
ATOM     12  F   UNL     1       1.280   8.222  17.356  0.00  0.00    +0.000 F 
ATOM     13  F   UNL     1       1.737   9.118  19.283  0.00  0.00    +0.000 F 
ATOM     14  F   UNL     1       3.349   8.532  17.947  0.00  0.00    +0.000 F 
ENDBRANCH   6  11
ENDBRANCH   1   4
BRANCH   1  17
ATOM     15  C   UNL     1       5.717   4.045  18.101  0.00  0.00    +0.000 C 
ATOM     16  O   UNL     1       5.811   4.120  19.321  0.00  0.00    +0.000 OA
ATOM     17  N   UNL     1       4.575   3.623  17.447  0.00  0.00    +0.000 N 
ATOM     18  H   UNL     1       4.563   3.548  16.436  0.00  0.00    +0.000 HD
BRANCH  15  22
ATOM     19  O   UNL     1       7.258   5.166  13.715  0.00  0.00    +0.000 OA
ATOM     20  C   UNL     1       7.185   5.109  14.929  0.00  0.00    +0.000 C 
ATOM     21  C   UNL     1       6.581   3.984  15.723  0.00  0.00    +0.000 C 
ATOM     22  C   UNL     1       6.881   4.350  17.179  0.00  0.00    +0.000 C 
ATOM     23  C   UNL     1       7.190   5.843  17.139  0.00  0.00    +0.000 C 
ATOM     24  N   UNL     1       7.620   6.082  15.794  0.00  0.00    +0.000 N 
ATOM     25  H   UNL     1       7.919   6.978  15.429  0.00  0.00    +0.000 HD
ENDBRANCH  15  22
ENDBRANCH   1  17
TORSDOF 4
ENDMDL
MODEL 2
REMARK VINA RESULT:      -8.1      2.761      3.552
REMARK  Name = 
REMARK  4 active torsions:
REMARK  status: ('A' for Active; 'I' for Inactive)
REMARK    1  A    between atoms: C_4  and  C_5
REMARK    2  A    between atoms: N_7  and  C_8
REMARK    3  A    between atoms: C_8  and  C_9
REMARK    4  A    between atoms: C_11  and  C_12
REMARK                            x       y       z     vdW  Elec       q    Type
REMARK                         _______ _______ _______ _____ _____    ______ ____
ROOT
ATOM      1  C   UNL     1       2.694   5.746  19.740  0.00  0.00    +0.000 C 
ATOM      2  C   UNL     1       1.685   4.628  19.505  0.00  0.00    +0.000 C 
ATOM      3  C   UNL     1       2.234   4.834  20.875  0.00  0.00    +0.000 C 
ENDROOT
BRANCH   1   4
ATOM      4  C   UNL     1       2.174   7.186  19.772  0.00  0.00    +0.000 A 
ATOM      5  C   UNL     1       1.538   7.660  20.941  0.00  0.00    +0.000 A 
ATOM      6  C   UNL     1       0.841   8.879  20.977  0.00  0.00    +0.000 A 
ATOM      7  C   UNL     1       0.795   9.661  19.817  0.00  0.00    +0.000 A 
ATOM      8  C   UNL     1       1.491   9.266  18.677  0.00  0.00    +0.000 A 
ATOM      9  C   UNL     1       2.197   8.058  18.664  0.00  0.00    +0.000 A 
ATOM     10 CL   UNL     1       3.090   7.677  17.232  0.00  0.00    +0.000 Cl
BRANCH   6  11
ATOM     11  C   UNL     1       0.106   9.321  22.219  0.00  0.00    +0.000 C 
ATOM     12  F   UNL     1       0.884   9.355  23.336  0.00  0.00    +0.000 F 
ATOM     13  F   UNL     1      -0.423  10.569  22.093  0.00  0.00    +0.000 F 
ATOM     14  F   UNL     1      -0.939   8.500  22.516  0.00  0.00    +0.000 F 
ENDBRANCH   6  11
ENDBRANCH   1   4
BRANCH   1  17
ATOM     15  C   UNL     1       4.314   4.854  18.090  0.00  0.00    +0.000 C 
ATOM     16  O   UNL     1       3.459   4.288  17.418  0.00  0.00    +0.000 OA
ATOM     17  N   UNL     1       4.031   5.590  19.226  0.00  0.00    +0.000 N 
ATOM     18  H   UNL     1       4.774   6.065  19.726  0.00  0.00    +0.000 HD
BRANCH  15  22
ATOM     19  O   UNL     1       7.619   5.207  14.651  0.00  0.00    +0.000 OA
ATOM     20  C   UNL     1       7.072   5.299  15.735  0.00  0.00    +0.000 C 
ATOM     21  C   UNL     1       6.000   4.385  16.262  0.00  0.00    +0.000 C 
ATOM     22  C   UNL     1       5.780   4.857  17.701  0.00  0.00    +0.000 C 
ATOM     23  C   UNL     1       6.365   6.265  17.733  0.00  0.00    +0.000 C 
ATOM     24  N   UNL     1       7.320   6.277  16.665  0.00  0.00    +0.000 N 
ATOM     25  H   UNL     1       7.906   7.066  16.417  0.00  0.00    +0.000 HD
ENDBRANCH  15  22
ENDBRANCH   1  17
TORSDOF 4
ENDMDL
MODEL 3
REMARK VINA RESULT:      -8.1      2.094      3.254
REMARK  Name = 
REMARK  4 active torsions:
REMARK  status: ('A' for Active; 'I' for Inactive)
REMARK    1  A    between atoms: C_4  and  C_5
REMARK    2  A    between atoms: N_7  and  C_8
REMARK    3  A    between atoms: C_8  and  C_9
REMARK    4  A    between atoms: C_11  and  C_12
REMARK                            x       y       z     vdW  Elec       q    Type
REMARK                         _______ _______ _______ _____ _____    ______ ____
ROOT
ATOM      1  C   UNL     1       6.243   5.659  17.795  0.00  0.00    +0.000 C 
ATOM      2  C   UNL     1       7.371   5.799  18.810  0.00  0.00    +0.000 C 
ATOM      3  C   UNL     1       7.090   6.926  17.876  0.00  0.00    +0.000 C 
ENDROOT
BRANCH   1   4
ATOM      4  C   UNL     1       4.803   5.769  18.304  0.00  0.00    +0.000 A 
ATOM      5  C   UNL     1       4.049   6.921  17.985  0.00  0.00    +0.000 A 
ATOM      6  C   UNL     1       2.814   7.203  18.590  0.00  0.00    +0.000 A 
ATOM      7  C   UNL     1       2.302   6.299  19.527  0.00  0.00    +0.000 A 
ATOM      8  C   UNL     1       2.976   5.108  19.793  0.00  0.00    +0.000 A 
ATOM      9  C   UNL     1       4.196   4.834  19.167  0.00  0.00    +0.000 A 
ATOM     10 CL   UNL     1       4.932   3.303  19.500  0.00  0.00    +0.000 Cl
BRANCH   6  11
ATOM     11  C   UNL     1       2.069   8.481  18.285  0.00  0.00    +0.000 C 
ATOM     12  F   UNL     1       1.066   8.331  17.378  0.00  0.00    +0.000 F 
ATOM     13  F   UNL     1       1.493   9.023  19.394  0.00  0.00    +0.000 F 
ATOM     14  F   UNL     1       2.889   9.444  17.781  0.00  0.00    +0.000 F 
ENDBRANCH   6  11
ENDBRANCH   1   4
BRANCH   1  17
ATOM     15  C   UNL     1       6.165   5.153  15.370  0.00  0.00    +0.000 C 
ATOM     16  O   UNL     1       5.769   6.269  15.055  0.00  0.00    +0.000 OA
ATOM     17  N   UNL     1       6.428   4.774  16.674  0.00  0.00    +0.000 N 
ATOM     18  H   UNL     1       6.786   3.846  16.874  0.00  0.00    +0.000 HD
BRANCH  15  22
ATOM     19  O   UNL     1       4.907   2.873  11.358  0.00  0.00    +0.000 OA
ATOM     20  C   UNL     1       5.594   3.375  12.229  0.00  0.00    +0.000 C 
ATOM     21  C   UNL     1       5.206   3.538  13.673  0.00  0.00    +0.000 C 
ATOM     22  C   UNL     1       6.471   4.081  14.341  0.00  0.00    +0.000 C 
ATOM     23  C   UNL     1       7.303   4.632  13.188  0.00  0.00    +0.000 C 
ATOM     24  N   UNL     1       6.844   3.909  12.040  0.00  0.00    +0.000 N 
ATOM     25  H   UNL     1       7.203   4.021  11.099  0.00  0.00    +0.000 HD
ENDBRANCH  15  22
ENDBRANCH   1  17
TORSDOF 4
ENDMDL
MODEL 4
REMARK VINA RESULT:      -8.1      3.740      6.428
REMARK  Name = 
REMARK  4 active torsions:
REMARK  status: ('A' for Active; 'I' for Inactive)
REMARK    1  A    between atoms: C_4  and  C_5
REMARK    2  A    between atoms: N_7  and  C_8
REMARK    3  A    between atoms: C_8  and  C_9
REMARK    4  A    between atoms: C_11  and  C_12
REMARK                            x       y       z     vdW  Elec       q    Type
REMARK                         _______ _______ _______ _____ _____    ______ ____
ROOT
ATOM      1  C   UNL     1       3.849   5.914  17.774  0.00  0.00    +0.000 C 
ATOM      2  C   UNL     1       3.002   6.954  17.050  0.00  0.00    +0.000 C 
ATOM      3  C   UNL     1       3.803   7.367  18.237  0.00  0.00    +0.000 C 
ENDROOT
BRANCH   1   4
ATOM      4  C   UNL     1       5.147   5.454  17.104  0.00  0.00    +0.000 A 
ATOM      5  C   UNL     1       5.141   5.167  15.720  0.00  0.00    +0.000 A 
ATOM      6  C   UNL     1       6.217   4.533  15.078  0.00  0.00    +0.000 A 
ATOM      7  C   UNL     1       7.344   4.192  15.834  0.00  0.00    +0.000 A 
ATOM      8  C   UNL     1       7.419   4.547  17.180  0.00  0.00    +0.000 A 
ATOM      9  C   UNL     1       6.346   5.196  17.799  0.00  0.00    +0.000 A 
ATOM     10 CL   UNL     1       6.549   5.662  19.453  0.00  0.00    +0.000 Cl
BRANCH   6  11
ATOM     11  C   UNL     1       6.147   4.170  13.614  0.00  0.00    +0.000 C 
ATOM     12  F   UNL     1       6.426   2.862  13.358  0.00  0.00    +0.000 F 
ATOM     13  F   UNL     1       4.917   4.402  13.080  0.00  0.00    +0.000 F 
ATOM     14  F   UNL     1       7.023   4.894  12.864  0.00  0.00    +0.000 F 
ENDBRANCH   6  11
ENDBRANCH   1   4
BRANCH   1  17
ATOM     15  C   UNL     1       2.366   3.943  18.019  0.00  0.00    +0.000 C 
ATOM     16  O   UNL     1       2.149   3.840  16.818  0.00  0.00    +0.000 OA
ATOM     17  N   UNL     1       3.184   4.913  18.569  0.00  0.00    +0.000 N 
ATOM     18  H   UNL     1       3.355   4.931  19.568  0.00  0.00    +0.000 HD
BRANCH  15  22
ATOM     19  O   UNL     1       2.586   2.022  22.393  0.00  0.00    +0.000 OA
ATOM     20  C   UNL     1       2.137   2.444  21.344  0.00  0.00    +0.000 C 
ATOM     21  C   UNL     1       2.862   2.484  20.027  0.00  0.00    +0.000 C 
ATOM     22  C   UNL     1       1.804   2.963  19.031  0.00  0.00    +0.000 C 
ATOM     23  C   UNL     1       0.729   3.608  19.899  0.00  0.00    +0.000 C 
ATOM     24  N   UNL     1       0.888   2.988  21.181  0.00  0.00    +0.000 N 
ATOM     25  H   UNL     1       0.315   3.179  21.995  0.00  0.00    +0.000 HD
ENDBRANCH  15  22
ENDBRANCH   1  17
TORSDOF 4
ENDMDL
MODEL 5
REMARK VINA RESULT:      -8.1      3.412      4.543
REMARK  Name = 
REMARK  4 active torsions:
REMARK  status: ('A' for Active; 'I' for Inactive)
REMARK    1  A    between atoms: C_4  and  C_5
REMARK    2  A    between atoms: N_7  and  C_8
REMARK    3  A    between atoms: C_8  and  C_9
REMARK    4  A    between atoms: C_11  and  C_12
REMARK                            x       y       z     vdW  Elec       q    Type
REMARK                         _______ _______ _______ _____ _____    ______ ____
ROOT
ATOM      1  C   UNL     1       6.356   5.400  17.900  0.00  0.00    +0.000 C 
ATOM      2  C   UNL     1       7.521   5.593  18.864  0.00  0.00    +0.000 C 
ATOM      3  C   UNL     1       7.084   6.737  18.013  0.00  0.00    +0.000 C 
ENDROOT
BRANCH   1   4
ATOM      4  C   UNL     1       4.943   5.344  18.486  0.00  0.00    +0.000 A 
ATOM      5  C   UNL     1       4.616   4.309  19.391  0.00  0.00    +0.000 A 
ATOM      6  C   UNL     1       3.296   4.054  19.798  0.00  0.00    +0.000 A 
ATOM      7  C   UNL     1       2.271   4.869  19.304  0.00  0.00    +0.000 A 
ATOM      8  C   UNL     1       2.572   5.956  18.485  0.00  0.00    +0.000 A 
ATOM      9  C   UNL     1       3.895   6.208  18.106  0.00  0.00    +0.000 A 
ATOM     10 CL   UNL     1       4.190   7.616  17.145  0.00  0.00    +0.000 Cl
BRANCH   6  11
ATOM     11  C   UNL     1       2.970   2.892  20.705  0.00  0.00    +0.000 C 
ATOM     12  F   UNL     1       4.050   2.132  21.035  0.00  0.00    +0.000 F 
ATOM     13  F   UNL     1       2.419   3.293  21.884  0.00  0.00    +0.000 F 
ATOM     14  F   UNL     1       2.070   2.039  20.143  0.00  0.00    +0.000 F 
ENDBRANCH   6  11
ENDBRANCH   1   4
BRANCH   1  17
ATOM     15  C   UNL     1       6.344   5.078  15.443  0.00  0.00    +0.000 C 
ATOM     16  O   UNL     1       5.978   6.222  15.202  0.00  0.00    +0.000 OA
ATOM     17  N   UNL     1       6.561   4.598  16.721  0.00  0.00    +0.000 N 
ATOM     18  H   UNL     1       6.896   3.651  16.862  0.00  0.00    +0.000 HD
BRANCH  15  22
ATOM     19  O   UNL     1       4.997   2.872  11.419  0.00  0.00    +0.000 OA
ATOM     20  C   UNL     1       5.701   3.393  12.265  0.00  0.00    +0.000 C 
ATOM     21  C   UNL     1       5.403   3.461  13.738  0.00  0.00    +0.000 C 
ATOM     22  C   UNL     1       6.664   4.081  14.345  0.00  0.00    +0.000 C 
ATOM     23  C   UNL     1       7.365   4.749  13.168  0.00  0.00    +0.000 C 
ATOM     24  N   UNL     1       6.886   4.038  12.019  0.00  0.00    +0.000 N 
ATOM     25  H   UNL     1       7.168   4.220  11.063  0.00  0.00    +0.000 HD
ENDBRANCH  15  22
ENDBRANCH   1  17
TORSDOF 4
ENDMDL
MODEL 6
REMARK VINA RESULT:      -8.0      3.965      6.173
REMARK  Name = 
REMARK  4 active torsions:
REMARK  status: ('A' for Active; 'I' for Inactive)
REMARK    1  A    between atoms: C_4  and  C_5
REMARK    2  A    between atoms: N_7  and  C_8
REMARK    3  A    between atoms: C_8  and  C_9
REMARK    4  A    between atoms: C_11  and  C_12
REMARK                            x       y       z     vdW  Elec       q    Type
REMARK                         _______ _______ _______ _____ _____    ______ ____
ROOT
ATOM      1  C   UNL     1       2.569   5.282  20.015  0.00  0.00    +0.000 C 
ATOM      2  C   UNL     1       2.370   4.444  21.272  0.00  0.00    +0.000 C 
ATOM      3  C   UNL     1       1.393   4.319  20.153  0.00  0.00    +0.000 C 
ENDROOT
BRANCH   1   4
ATOM      4  C   UNL     1       3.678   4.867  19.044  0.00  0.00    +0.000 A 
ATOM      5  C   UNL     1       5.017   5.201  19.349  0.00  0.00    +0.000 A 
ATOM      6  C   UNL     1       6.058   5.059  18.417  0.00  0.00    +0.000 A 
ATOM      7  C   UNL     1       5.761   4.548  17.149  0.00  0.00    +0.000 A 
ATOM      8  C   UNL     1       4.468   4.121  16.851  0.00  0.00    +0.000 A 
ATOM      9  C   UNL     1       3.446   4.252  17.797  0.00  0.00    +0.000 A 
ATOM     10 CL   UNL     1       1.887   3.634  17.371  0.00  0.00    +0.000 Cl
BRANCH   6  11
ATOM     11  C   UNL     1       7.465   5.498  18.747  0.00  0.00    +0.000 C 
ATOM     12  F   UNL     1       7.820   6.682  18.176  0.00  0.00    +0.000 F 
ATOM     13  F   UNL     1       7.659   5.655  20.086  0.00  0.00    +0.000 F 
ATOM     14  F   UNL     1       8.394   4.592  18.338  0.00  0.00    +0.000 F 
ENDBRANCH   6  11
ENDBRANCH   1   4
BRANCH   1  17
ATOM     15  C   UNL     1       2.115   7.477  18.957  0.00  0.00    +0.000 C 
ATOM     16  O   UNL     1       2.122   7.032  17.815  0.00  0.00    +0.000 OA
ATOM     17  N   UNL     1       2.315   6.699  20.082  0.00  0.00    +0.000 N 
ATOM     18  H   UNL     1       2.266   7.114  21.006  0.00  0.00    +0.000 HD
BRANCH  15  22
ATOM     19  O   UNL     1      -0.736  11.268  18.348  0.00  0.00    +0.000 OA
ATOM     20  C   UNL     1       0.033  10.479  18.865  0.00  0.00    +0.000 C 
ATOM     21  C   UNL     1       1.022   9.608  18.139  0.00  0.00    +0.000 C 
ATOM     22  C   UNL     1       1.819   8.934  19.258  0.00  0.00    +0.000 C 
ATOM     23  C   UNL     1       0.940   9.084  20.494  0.00  0.00    +0.000 C 
ATOM     24  N   UNL     1       0.117  10.222  20.210  0.00  0.00    +0.000 N 
ATOM     25  H   UNL     1      -0.578  10.608  20.837  0.00  0.00    +0.000 HD
ENDBRANCH  15  22
ENDBRANCH   1  17
TORSDOF 4
ENDMDL
MODEL 7
REMARK VINA RESULT:      -8.0      2.352      2.973
REMARK  Name = 
REMARK  4 active torsions:
REMARK  status: ('A' for Active; 'I' for Inactive)
REMARK    1  A    between atoms: C_4  and  C_5
REMARK    2  A    between atoms: N_7  and  C_8
REMARK    3  A    between atoms: C_8  and  C_9
REMARK    4  A    between atoms: C_11  and  C_12
REMARK                            x       y       z     vdW  Elec       q    Type
REMARK                         _______ _______ _______ _____ _____    ______ ____
ROOT
ATOM      1  C   UNL     1       2.993   5.175  18.979  0.00  0.00    +0.000 C 
ATOM      2  C   UNL     1       1.881   4.138  19.091  0.00  0.00    +0.000 C 
ATOM      3  C   UNL     1       2.792   4.355  20.251  0.00  0.00    +0.000 C 
ENDROOT
BRANCH   1   4
ATOM      4  C   UNL     1       2.606   6.654  19.055  0.00  0.00    +0.000 A 
ATOM      5  C   UNL     1       1.885   7.117  20.179  0.00  0.00    +0.000 A 
ATOM      6  C   UNL     1       1.301   8.394  20.224  0.00  0.00    +0.000 A 
ATOM      7  C   UNL     1       1.458   9.244  19.124  0.00  0.00    +0.000 A 
ATOM      8  C   UNL     1       2.242   8.852  18.041  0.00  0.00    +0.000 A 
ATOM      9  C   UNL     1       2.833   7.584  18.021  0.00  0.00    +0.000 A 
ATOM     10 CL   UNL     1       3.847   7.204  16.671  0.00  0.00    +0.000 Cl
BRANCH   6  11
ATOM     11  C   UNL     1       0.470   8.830  21.408  0.00  0.00    +0.000 C 
ATOM     12  F   UNL     1      -0.621   8.047  21.632  0.00  0.00    +0.000 F 
ATOM     13  F   UNL     1       1.180   8.825  22.570  0.00  0.00    +0.000 F 
ATOM     14  F   UNL     1      -0.002  10.098  21.263  0.00  0.00    +0.000 F 
ENDBRANCH   6  11
ENDBRANCH   1   4
BRANCH   1  17
ATOM     15  C   UNL     1       5.434   5.038  18.567  0.00  0.00    +0.000 C 
ATOM     16  O   UNL     1       5.738   5.418  19.691  0.00  0.00    +0.000 OA
ATOM     17  N   UNL     1       4.128   4.883  18.140  0.00  0.00    +0.000 N 
ATOM     18  H   UNL     1       3.933   4.533  17.209  0.00  0.00    +0.000 HD
BRANCH  15  22
ATOM     19  O   UNL     1       6.542   4.245  13.983  0.00  0.00    +0.000 OA
ATOM     20  C   UNL     1       6.647   4.563  15.153  0.00  0.00    +0.000 C 
ATOM     21  C   UNL     1       5.843   4.002  16.294  0.00  0.00    +0.000 C 
ATOM     22  C   UNL     1       6.473   4.631  17.540  0.00  0.00    +0.000 C 
ATOM     23  C   UNL     1       7.240   5.837  17.010  0.00  0.00    +0.000 C 
ATOM     24  N   UNL     1       7.506   5.516  15.640  0.00  0.00    +0.000 N 
ATOM     25  H   UNL     1       8.019   6.104  14.993  0.00  0.00    +0.000 HD
ENDBRANCH  15  22
ENDBRANCH   1  17
TORSDOF 4
ENDMDL
MODEL 8
REMARK VINA RESULT:      -8.0      1.022      1.476
REMARK  Name = 
REMARK  4 active torsions:
REMARK  status: ('A' for Active; 'I' for Inactive)
REMARK    1  A    between atoms: C_4  and  C_5
REMARK    2  A    between atoms: N_7  and  C_8
REMARK    3  A    between atoms: C_8  and  C_9
REMARK    4  A    between atoms: C_11  and  C_12
REMARK                            x       y       z     vdW  Elec       q    Type
REMARK                         _______ _______ _______ _____ _____    ______ ____
ROOT
ATOM      1  C   UNL     1       2.873   4.549  18.099  0.00  0.00    +0.000 C 
ATOM      2  C   UNL     1       1.905   3.707  17.276  0.00  0.00    +0.000 C 
ATOM      3  C   UNL     1       2.469   3.143  18.536  0.00  0.00    +0.000 C 
ENDROOT
BRANCH   1   4
ATOM      4  C   UNL     1       2.297   5.708  18.918  0.00  0.00    +0.000 A 
ATOM      5  C   UNL     1       2.040   6.940  18.276  0.00  0.00    +0.000 A 
ATOM      6  C   UNL     1       1.728   8.109  18.989  0.00  0.00    +0.000 A 
ATOM      7  C   UNL     1       1.647   8.044  20.385  0.00  0.00    +0.000 A 
ATOM      8  C   UNL     1       1.802   6.824  21.040  0.00  0.00    +0.000 A 
ATOM      9  C   UNL     1       2.093   5.665  20.312  0.00  0.00    +0.000 A 
ATOM     10 CL   UNL     1       2.201   4.180  21.195  0.00  0.00    +0.000 Cl
BRANCH   6  11
ATOM     11  C   UNL     1       1.536   9.428  18.279  0.00  0.00    +0.000 C 
ATOM     12  F   UNL     1       1.509  10.503  19.114  0.00  0.00    +0.000 F 
ATOM     13  F   UNL     1       2.523   9.679  17.376  0.00  0.00    +0.000 F 
ATOM     14  F   UNL     1       0.369   9.468  17.579  0.00  0.00    +0.000 F 
ENDBRANCH   6  11
ENDBRANCH   1   4
BRANCH   1  17
ATOM     15  C   UNL     1       5.339   4.482  18.337  0.00  0.00    +0.000 C 
ATOM     16  O   UNL     1       5.310   4.020  19.471  0.00  0.00    +0.000 OA
ATOM     17  N   UNL     1       4.206   4.760  17.595  0.00  0.00    +0.000 N 
ATOM     18  H   UNL     1       4.289   5.111  16.647  0.00  0.00    +0.000 HD
BRANCH  15  22
ATOM     19  O   UNL     1       7.584   5.277  14.190  0.00  0.00    +0.000 OA
ATOM     20  C   UNL     1       7.309   5.317  15.375  0.00  0.00    +0.000 C 
ATOM     21  C   UNL     1       6.589   4.247  16.149  0.00  0.00    +0.000 C 
ATOM     22  C   UNL     1       6.639   4.736  17.598  0.00  0.00    +0.000 C 
ATOM     23  C   UNL     1       6.939   6.226  17.486  0.00  0.00    +0.000 C 
ATOM     24  N   UNL     1       7.586   6.365  16.216  0.00  0.00    +0.000 N 
ATOM     25  H   UNL     1       7.935   7.235  15.832  0.00  0.00    +0.000 HD
ENDBRANCH  15  22
ENDBRANCH   1  17
TORSDOF 4
ENDMDL
MODEL 9
REMARK VINA RESULT:      -7.9      2.072      2.667
REMARK  Name = 
REMARK  4 active torsions:
REMARK  status: ('A' for Active; 'I' for Inactive)
REMARK    1  A    between atoms: C_4  and  C_5
REMARK    2  A    between atoms: N_7  and  C_8
REMARK    3  A    between atoms: C_8  and  C_9
REMARK    4  A    between atoms: C_11  and  C_12
REMARK                            x       y       z     vdW  Elec       q    Type
REMARK                         _______ _______ _______ _____ _____    ______ ____
ROOT
ATOM      1  C   UNL     1       3.758   4.801  18.458  0.00  0.00    +0.000 C 
ATOM      2  C   UNL     1       3.233   3.910  17.339  0.00  0.00    +0.000 C 
ATOM      3  C   UNL     1       3.476   3.318  18.685  0.00  0.00    +0.000 C 
ENDROOT
BRANCH   1   4
ATOM      4  C   UNL     1       2.783   5.787  19.107  0.00  0.00    +0.000 A 
ATOM      5  C   UNL     1       2.492   7.000  18.445  0.00  0.00    +0.000 A 
ATOM      6  C   UNL     1       1.792   8.047  19.066  0.00  0.00    +0.000 A 
ATOM      7  C   UNL     1       1.349   7.872  20.382  0.00  0.00    +0.000 A 
ATOM      8  C   UNL     1       1.539   6.653  21.029  0.00  0.00    +0.000 A 
ATOM      9  C   UNL     1       2.221   5.613  20.388  0.00  0.00    +0.000 A 
ATOM     10 CL   UNL     1       2.351   4.110  21.235  0.00  0.00    +0.000 Cl
BRANCH   6  11
ATOM     11  C   UNL     1       1.564   9.362  18.358  0.00  0.00    +0.000 C 
ATOM     12  F   UNL     1       2.561   9.702  17.496  0.00  0.00    +0.000 F 
ATOM     13  F   UNL     1       0.417   9.364  17.625  0.00  0.00    +0.000 F 
ATOM     14  F   UNL     1       1.453  10.401  19.230  0.00  0.00    +0.000 F 
ENDBRANCH   6  11
ENDBRANCH   1   4
BRANCH   1  17
ATOM     15  C   UNL     1       5.686   5.815  17.273  0.00  0.00    +0.000 C 
ATOM     16  O   UNL     1       5.065   6.007  16.234  0.00  0.00    +0.000 OA
ATOM     17  N   UNL     1       5.128   5.244  18.403  0.00  0.00    +0.000 N 
ATOM     18  H   UNL     1       5.680   5.139  19.247  0.00  0.00    +0.000 HD
BRANCH  15  22
ATOM     19  O   UNL     1       8.792   9.210  18.574  0.00  0.00    +0.000 OA
ATOM     20  C   UNL     1       8.297   8.113  18.391  0.00  0.00    +0.000 C 
ATOM     21  C   UNL     1       7.298   7.765  17.322  0.00  0.00    +0.000 C 
ATOM     22  C   UNL     1       7.128   6.249  17.448  0.00  0.00    +0.000 C 
ATOM     23  C   UNL     1       7.647   5.923  18.844  0.00  0.00    +0.000 C 
ATOM     24  N   UNL     1       8.546   6.997  19.149  0.00  0.00    +0.000 N 
ATOM     25  H   UNL     1       9.080   7.083  20.005  0.00  0.00    +0.000 HD
ENDBRANCH  15  22
ENDBRANCH   1  17
TORSDOF 4
ENDMDL
