MODEL 1
REMARK VINA RESULT:      -7.4      0.000      0.000
REMARK  Name = 
REMARK  3 active torsions:
REMARK  status: ('A' for Active; 'I' for Inactive)
REMARK    1  A    between atoms: C_5  and  O_6
REMARK    2  A    between atoms: O_6  and  C_7
REMARK    3  A    between atoms: C_19  and  C_20
REMARK                            x       y       z     vdW  Elec       q    Type
REMARK                         _______ _______ _______ _____ _____    ______ ____
ROOT
ATOM      1  O   UNL     1       2.214  10.296  17.135  0.00  0.00    +0.000 OA
ATOM      2  C   UNL     1       1.883   9.701  18.163  0.00  0.00    +0.000 C 
ATOM      3  N   UNL     1       2.374   8.465  18.451  0.00  0.00    +0.000 N 
ATOM      4  C   UNL     1       3.270   7.611  17.697  0.00  0.00    +0.000 C 
ATOM      5  C   UNL     1       2.834   6.489  18.675  0.00  0.00    +0.000 C 
ATOM      6  C   UNL     1       2.432   7.634  19.632  0.00  0.00    +0.000 C 
ATOM      7  N   UNL     1       0.995  10.258  19.074  0.00  0.00    +0.000 N 
ATOM      8  N   UNL     1       0.413   9.556  20.101  0.00  0.00    +0.000 NA
ATOM      9  C   UNL     1      -0.539  10.295  20.562  0.00  0.00    +0.000 C 
ATOM     10  C   UNL     1      -0.747  11.604  19.881  0.00  0.00    +0.000 C 
ATOM     11  C   UNL     1       0.425  11.593  18.908  0.00  0.00    +0.000 C 
ENDROOT
BRANCH  11  12
ATOM     12  C   UNL     1       1.402  12.713  19.228  0.00  0.00    +0.000 A 
ATOM     13  C   UNL     1       1.757  13.047  20.546  0.00  0.00    +0.000 A 
ATOM     14  C   UNL     1       2.639  14.097  20.793  0.00  0.00    +0.000 A 
ATOM     15  F   UNL     1       2.970  14.392  22.056  0.00  0.00    +0.000 F 
ATOM     16  C   UNL     1       3.171  14.845  19.754  0.00  0.00    +0.000 A 
ATOM     17  C   UNL     1       2.815  14.525  18.453  0.00  0.00    +0.000 A 
ATOM     18  F   UNL     1       3.314  15.243  17.438  0.00  0.00    +0.000 F 
ATOM     19  C   UNL     1       1.941  13.475  18.179  0.00  0.00    +0.000 A 
ENDBRANCH  11  12
BRANCH   5  20
ATOM     20  O   UNL     1       1.768   5.633  18.185  0.00  0.00    +0.000 OA
BRANCH  20  21
ATOM     21  C   UNL     1       1.817   4.282  18.436  0.00  0.00    +0.000 A 
ATOM     22  C   UNL     1       2.519   3.536  17.484  0.00  0.00    +0.000 A 
ATOM     23  C   UNL     1       2.673   2.155  17.635  0.00  0.00    +0.000 A 
ATOM     24  C   UNL     1       2.117   1.507  18.736  0.00  0.00    +0.000 A 
ATOM     25  C   UNL     1       1.402   2.241  19.681  0.00  0.00    +0.000 A 
ATOM     26  C   UNL     1       1.256   3.620  19.529  0.00  0.00    +0.000 A 
ATOM     27  F   UNL     1       0.563   4.277  20.468  0.00  0.00    +0.000 F 
ENDBRANCH  20  21
ENDBRANCH   5  20
TORSDOF 3
ENDMDL
MODEL 2
REMARK VINA RESULT:      -7.3      0.169      1.580
REMARK  Name = 
REMARK  3 active torsions:
REMARK  status: ('A' for Active; 'I' for Inactive)
REMARK    1  A    between atoms: C_5  and  O_6
REMARK    2  A    between atoms: O_6  and  C_7
REMARK    3  A    between atoms: C_19  and  C_20
REMARK                            x       y       z     vdW  Elec       q    Type
REMARK                         _______ _______ _______ _____ _____    ______ ____
ROOT
ATOM      1  O   UNL     1       2.228  10.334  17.112  0.00  0.00    +0.000 OA
ATOM      2  C   UNL     1       1.873   9.743  18.134  0.00  0.00    +0.000 C 
ATOM      3  N   UNL     1       2.353   8.507  18.435  0.00  0.00    +0.000 N 
ATOM      4  C   UNL     1       3.264   7.648  17.704  0.00  0.00    +0.000 C 
ATOM      5  C   UNL     1       2.804   6.530  18.675  0.00  0.00    +0.000 C 
ATOM      6  C   UNL     1       2.383   7.679  19.620  0.00  0.00    +0.000 C 
ATOM      7  N   UNL     1       0.967  10.304  19.023  0.00  0.00    +0.000 N 
ATOM      8  N   UNL     1       0.359   9.607  20.039  0.00  0.00    +0.000 NA
ATOM      9  C   UNL     1      -0.600  10.350  20.477  0.00  0.00    +0.000 C 
ATOM     10  C   UNL     1      -0.790  11.658  19.788  0.00  0.00    +0.000 C 
ATOM     11  C   UNL     1       0.404  11.641  18.841  0.00  0.00    +0.000 C 
ENDROOT
BRANCH  11  12
ATOM     12  C   UNL     1       1.376  12.759  19.179  0.00  0.00    +0.000 A 
ATOM     13  C   UNL     1       2.114  13.437  18.193  0.00  0.00    +0.000 A 
ATOM     14  C   UNL     1       3.011  14.441  18.551  0.00  0.00    +0.000 A 
ATOM     15  F   UNL     1       3.697  15.078  17.595  0.00  0.00    +0.000 F 
ATOM     16  C   UNL     1       3.211  14.783  19.880  0.00  0.00    +0.000 A 
ATOM     17  C   UNL     1       2.492  14.111  20.856  0.00  0.00    +0.000 A 
ATOM     18  F   UNL     1       2.679  14.423  22.145  0.00  0.00    +0.000 F 
ATOM     19  C   UNL     1       1.583  13.108  20.524  0.00  0.00    +0.000 A 
ENDBRANCH  11  12
BRANCH   5  20
ATOM     20  O   UNL     1       1.746   5.675  18.164  0.00  0.00    +0.000 OA
BRANCH  20  21
ATOM     21  C   UNL     1       1.753   4.335  18.469  0.00  0.00    +0.000 A 
ATOM     22  C   UNL     1       2.370   3.521  17.514  0.00  0.00    +0.000 A 
ATOM     23  C   UNL     1       2.475   2.142  17.716  0.00  0.00    +0.000 A 
ATOM     24  C   UNL     1       1.955   1.564  18.873  0.00  0.00    +0.000 A 
ATOM     25  C   UNL     1       1.325   2.366  19.822  0.00  0.00    +0.000 A 
ATOM     26  C   UNL     1       1.228   3.743  19.619  0.00  0.00    +0.000 A 
ATOM     27  F   UNL     1       0.616   4.468  20.565  0.00  0.00    +0.000 F 
ENDBRANCH  20  21
ENDBRANCH   5  20
TORSDOF 3
ENDMDL
MODEL 3
REMARK VINA RESULT:      -7.3      3.361      4.766
REMARK  Name = 
REMARK  3 active torsions:
REMARK  status: ('A' for Active; 'I' for Inactive)
REMARK    1  A    between atoms: C_5  and  O_6
REMARK    2  A    between atoms: O_6  and  C_7
REMARK    3  A    between atoms: C_19  and  C_20
REMARK                            x       y       z     vdW  Elec       q    Type
REMARK                         _______ _______ _______ _____ _____    ______ ____
ROOT
ATOM      1  O   UNL     1       0.767   8.594  21.003  0.00  0.00    +0.000 OA
ATOM      2  C   UNL     1       1.376   8.529  19.933  0.00  0.00    +0.000 C 
ATOM      3  N   UNL     1       1.899   7.354  19.490  0.00  0.00    +0.000 N 
ATOM      4  C   UNL     1       1.913   6.040  20.105  0.00  0.00    +0.000 C 
ATOM      5  C   UNL     1       2.974   5.679  19.032  0.00  0.00    +0.000 C 
ATOM      6  C   UNL     1       2.397   6.865  18.224  0.00  0.00    +0.000 C 
ATOM      7  N   UNL     1       1.561   9.646  19.130  0.00  0.00    +0.000 N 
ATOM      8  N   UNL     1       2.422   9.686  18.061  0.00  0.00    +0.000 NA
ATOM      9  C   UNL     1       2.542  10.927  17.728  0.00  0.00    +0.000 C 
ATOM     10  C   UNL     1       1.786  11.909  18.555  0.00  0.00    +0.000 C 
ATOM     11  C   UNL     1       1.016  10.960  19.466  0.00  0.00    +0.000 C 
ENDROOT
BRANCH  11  12
ATOM     12  C   UNL     1      -0.480  11.077  19.225  0.00  0.00    +0.000 A 
ATOM     13  C   UNL     1      -1.151  10.290  18.273  0.00  0.00    +0.000 A 
ATOM     14  C   UNL     1      -2.521  10.448  18.070  0.00  0.00    +0.000 A 
ATOM     15  F   UNL     1      -3.140   9.682  17.164  0.00  0.00    +0.000 F 
ATOM     16  C   UNL     1      -3.248  11.388  18.783  0.00  0.00    +0.000 A 
ATOM     17  C   UNL     1      -2.587  12.172  19.716  0.00  0.00    +0.000 A 
ATOM     18  F   UNL     1      -3.273  13.091  20.409  0.00  0.00    +0.000 F 
ATOM     19  C   UNL     1      -1.220  12.030  19.944  0.00  0.00    +0.000 A 
ENDBRANCH  11  12
BRANCH   5  20
ATOM     20  O   UNL     1       4.353   5.791  19.475  0.00  0.00    +0.000 OA
BRANCH  20  21
ATOM     21  C   UNL     1       5.365   5.371  18.645  0.00  0.00    +0.000 A 
ATOM     22  C   UNL     1       4.941   4.889  17.403  0.00  0.00    +0.000 A 
ATOM     23  C   UNL     1       5.871   4.460  16.451  0.00  0.00    +0.000 A 
ATOM     24  C   UNL     1       7.234   4.502  16.740  0.00  0.00    +0.000 A 
ATOM     25  C   UNL     1       7.664   4.965  17.981  0.00  0.00    +0.000 A 
ATOM     26  C   UNL     1       6.732   5.397  18.925  0.00  0.00    +0.000 A 
ATOM     27  F   UNL     1       7.200   5.837  20.101  0.00  0.00    +0.000 F 
ENDBRANCH  20  21
ENDBRANCH   5  20
TORSDOF 3
ENDMDL
MODEL 4
REMARK VINA RESULT:      -7.3      0.910      1.302
REMARK  Name = 
REMARK  3 active torsions:
REMARK  status: ('A' for Active; 'I' for Inactive)
REMARK    1  A    between atoms: C_5  and  O_6
REMARK    2  A    between atoms: O_6  and  C_7
REMARK    3  A    between atoms: C_19  and  C_20
REMARK                            x       y       z     vdW  Elec       q    Type
REMARK                         _______ _______ _______ _____ _____    ______ ____
ROOT
ATOM      1  O   UNL     1       2.188  10.276  17.150  0.00  0.00    +0.000 OA
ATOM      2  C   UNL     1       1.870   9.679  18.181  0.00  0.00    +0.000 C 
ATOM      3  N   UNL     1       2.378   8.450  18.469  0.00  0.00    +0.000 N 
ATOM      4  C   UNL     1       3.282   7.606  17.713  0.00  0.00    +0.000 C 
ATOM      5  C   UNL     1       2.865   6.481  18.696  0.00  0.00    +0.000 C 
ATOM      6  C   UNL     1       2.452   7.623  19.652  0.00  0.00    +0.000 C 
ATOM      7  N   UNL     1       0.979  10.226  19.094  0.00  0.00    +0.000 N 
ATOM      8  N   UNL     1       0.410   9.519  20.126  0.00  0.00    +0.000 NA
ATOM      9  C   UNL     1      -0.549  10.246  20.589  0.00  0.00    +0.000 C 
ATOM     10  C   UNL     1      -0.778  11.551  19.906  0.00  0.00    +0.000 C 
ATOM     11  C   UNL     1       0.390  11.553  18.928  0.00  0.00    +0.000 C 
ENDROOT
BRANCH  11  12
ATOM     12  C   UNL     1       1.353  12.687  19.240  0.00  0.00    +0.000 A 
ATOM     13  C   UNL     1       1.689  13.046  20.557  0.00  0.00    +0.000 A 
ATOM     14  C   UNL     1       2.559  14.108  20.797  0.00  0.00    +0.000 A 
ATOM     15  F   UNL     1       2.871  14.426  22.059  0.00  0.00    +0.000 F 
ATOM     16  C   UNL     1       3.098  14.842  19.752  0.00  0.00    +0.000 A 
ATOM     17  C   UNL     1       2.762  14.497  18.452  0.00  0.00    +0.000 A 
ATOM     18  F   UNL     1       3.268  15.201  17.432  0.00  0.00    +0.000 F 
ATOM     19  C   UNL     1       1.900  13.435  18.185  0.00  0.00    +0.000 A 
ENDBRANCH  11  12
BRANCH   5  20
ATOM     20  O   UNL     1       1.808   5.609  18.213  0.00  0.00    +0.000 OA
BRANCH  20  21
ATOM     21  C   UNL     1       1.754   4.307  18.649  0.00  0.00    +0.000 A 
ATOM     22  C   UNL     1       1.267   4.146  19.951  0.00  0.00    +0.000 A 
ATOM     23  C   UNL     1       1.130   2.870  20.506  0.00  0.00    +0.000 A 
ATOM     24  C   UNL     1       1.488   1.745  19.765  0.00  0.00    +0.000 A 
ATOM     25  C   UNL     1       1.988   1.898  18.475  0.00  0.00    +0.000 A 
ATOM     26  C   UNL     1       2.118   3.173  17.923  0.00  0.00    +0.000 A 
ATOM     27  F   UNL     1       2.600   3.262  16.676  0.00  0.00    +0.000 F 
ENDBRANCH  20  21
ENDBRANCH   5  20
TORSDOF 3
ENDMDL
MODEL 5
REMARK VINA RESULT:      -7.2      3.345      4.599
REMARK  Name = 
REMARK  3 active torsions:
REMARK  status: ('A' for Active; 'I' for Inactive)
REMARK    1  A    between atoms: C_5  and  O_6
REMARK    2  A    between atoms: O_6  and  C_7
REMARK    3  A    between atoms: C_19  and  C_20
REMARK                            x       y       z     vdW  Elec       q    Type
REMARK                         _______ _______ _______ _____ _____    ______ ____
ROOT
ATOM      1  O   UNL     1       0.811   8.696  21.006  0.00  0.00    +0.000 OA
ATOM      2  C   UNL     1       1.404   8.634  19.927  0.00  0.00    +0.000 C 
ATOM      3  N   UNL     1       1.913   7.459  19.469  0.00  0.00    +0.000 N 
ATOM      4  C   UNL     1       1.929   6.142  20.075  0.00  0.00    +0.000 C 
ATOM      5  C   UNL     1       2.971   5.781  18.984  0.00  0.00    +0.000 C 
ATOM      6  C   UNL     1       2.390   6.975  18.193  0.00  0.00    +0.000 C 
ATOM      7  N   UNL     1       1.583   9.755  19.128  0.00  0.00    +0.000 N 
ATOM      8  N   UNL     1       2.429   9.797  18.046  0.00  0.00    +0.000 NA
ATOM      9  C   UNL     1       2.551  11.039  17.719  0.00  0.00    +0.000 C 
ATOM     10  C   UNL     1       1.813  12.021  18.564  0.00  0.00    +0.000 C 
ATOM     11  C   UNL     1       1.052  11.071  19.480  0.00  0.00    +0.000 C 
ENDROOT
BRANCH  11  12
ATOM     12  C   UNL     1      -0.447  11.198  19.263  0.00  0.00    +0.000 A 
ATOM     13  C   UNL     1      -1.239  12.098  19.996  0.00  0.00    +0.000 A 
ATOM     14  C   UNL     1      -2.614  12.164  19.778  0.00  0.00    +0.000 A 
ATOM     15  F   UNL     1      -3.347  13.035  20.482  0.00  0.00    +0.000 F 
ATOM     16  C   UNL     1      -3.234  11.338  18.853  0.00  0.00    +0.000 A 
ATOM     17  C   UNL     1      -2.457  10.442  18.135  0.00  0.00    +0.000 A 
ATOM     18  F   UNL     1      -3.041   9.631  17.243  0.00  0.00    +0.000 F 
ATOM     19  C   UNL     1      -1.080  10.361  18.328  0.00  0.00    +0.000 A 
ENDBRANCH  11  12
BRANCH   5  20
ATOM     20  O   UNL     1       4.357   5.882  19.407  0.00  0.00    +0.000 OA
BRANCH  20  21
ATOM     21  C   UNL     1       5.350   5.406  18.586  0.00  0.00    +0.000 A 
ATOM     22  C   UNL     1       4.906   4.915  17.354  0.00  0.00    +0.000 A 
ATOM     23  C   UNL     1       5.816   4.430  16.411  0.00  0.00    +0.000 A 
ATOM     24  C   UNL     1       7.181   4.425  16.696  0.00  0.00    +0.000 A 
ATOM     25  C   UNL     1       7.630   4.897  17.927  0.00  0.00    +0.000 A 
ATOM     26  C   UNL     1       6.718   5.385  18.863  0.00  0.00    +0.000 A 
ATOM     27  F   UNL     1       7.205   5.831  20.029  0.00  0.00    +0.000 F 
ENDBRANCH  20  21
ENDBRANCH   5  20
TORSDOF 3
ENDMDL
MODEL 6
REMARK VINA RESULT:      -7.1      0.938      2.045
REMARK  Name = 
REMARK  3 active torsions:
REMARK  status: ('A' for Active; 'I' for Inactive)
REMARK    1  A    between atoms: C_5  and  O_6
REMARK    2  A    between atoms: O_6  and  C_7
REMARK    3  A    between atoms: C_19  and  C_20
REMARK                            x       y       z     vdW  Elec       q    Type
REMARK                         _______ _______ _______ _____ _____    ______ ____
ROOT
ATOM      1  O   UNL     1       2.211  10.293  17.126  0.00  0.00    +0.000 OA
ATOM      2  C   UNL     1       1.868   9.708  18.155  0.00  0.00    +0.000 C 
ATOM      3  N   UNL     1       2.367   8.481  18.468  0.00  0.00    +0.000 N 
ATOM      4  C   UNL     1       3.286   7.627  17.742  0.00  0.00    +0.000 C 
ATOM      5  C   UNL     1       2.845   6.513  18.726  0.00  0.00    +0.000 C 
ATOM      6  C   UNL     1       2.412   7.666  19.661  0.00  0.00    +0.000 C 
ATOM      7  N   UNL     1       0.958  10.266  19.042  0.00  0.00    +0.000 N 
ATOM      8  N   UNL     1       0.364   9.571  20.068  0.00  0.00    +0.000 NA
ATOM      9  C   UNL     1      -0.604  10.305  20.501  0.00  0.00    +0.000 C 
ATOM     10  C   UNL     1      -0.814  11.603  19.800  0.00  0.00    +0.000 C 
ATOM     11  C   UNL     1       0.376  11.592  18.849  0.00  0.00    +0.000 C 
ENDROOT
BRANCH  11  12
ATOM     12  C   UNL     1       1.334  12.727  19.171  0.00  0.00    +0.000 A 
ATOM     13  C   UNL     1       2.067  13.397  18.176  0.00  0.00    +0.000 A 
ATOM     14  C   UNL     1       2.951  14.418  18.521  0.00  0.00    +0.000 A 
ATOM     15  F   UNL     1       3.632  15.047  17.556  0.00  0.00    +0.000 F 
ATOM     16  C   UNL     1       3.143  14.784  19.844  0.00  0.00    +0.000 A 
ATOM     17  C   UNL     1       2.429  14.119  20.829  0.00  0.00    +0.000 A 
ATOM     18  F   UNL     1       2.608  14.454  22.113  0.00  0.00    +0.000 F 
ATOM     19  C   UNL     1       1.533  13.100  20.510  0.00  0.00    +0.000 A 
ENDBRANCH  11  12
BRANCH   5  20
ATOM     20  O   UNL     1       1.797   5.638  18.228  0.00  0.00    +0.000 OA
BRANCH  20  21
ATOM     21  C   UNL     1       1.852   4.293  18.504  0.00  0.00    +0.000 A 
ATOM     22  C   UNL     1       1.176   3.905  19.665  0.00  0.00    +0.000 A 
ATOM     23  C   UNL     1       1.126   2.561  20.043  0.00  0.00    +0.000 A 
ATOM     24  C   UNL     1       1.762   1.593  19.266  0.00  0.00    +0.000 A 
ATOM     25  C   UNL     1       2.451   1.973  18.117  0.00  0.00    +0.000 A 
ATOM     26  C   UNL     1       2.493   3.316  17.741  0.00  0.00    +0.000 A 
ATOM     27  F   UNL     1       3.166   3.626  16.624  0.00  0.00    +0.000 F 
ENDBRANCH  20  21
ENDBRANCH   5  20
TORSDOF 3
ENDMDL
MODEL 7
REMARK VINA RESULT:      -7.0      3.215      4.588
REMARK  Name = 
REMARK  3 active torsions:
REMARK  status: ('A' for Active; 'I' for Inactive)
REMARK    1  A    between atoms: C_5  and  O_6
REMARK    2  A    between atoms: O_6  and  C_7
REMARK    3  A    between atoms: C_19  and  C_20
REMARK                            x       y       z     vdW  Elec       q    Type
REMARK                         _______ _______ _______ _____ _____    ______ ____
ROOT
ATOM      1  O   UNL     1       1.069   9.615  21.400  0.00  0.00    +0.000 OA
ATOM      2  C   UNL     1       1.250   9.915  20.217  0.00  0.00    +0.000 C 
ATOM      3  N   UNL     1       1.561   8.969  19.290  0.00  0.00    +0.000 N 
ATOM      4  C   UNL     1       1.776   7.543  19.439  0.00  0.00    +0.000 C 
ATOM      5  C   UNL     1       2.372   7.603  18.008  0.00  0.00    +0.000 C 
ATOM      6  C   UNL     1       1.562   8.910  17.846  0.00  0.00    +0.000 C 
ATOM      7  N   UNL     1       1.150  11.227  19.774  0.00  0.00    +0.000 N 
ATOM      8  N   UNL     1       1.569  11.650  18.536  0.00  0.00    +0.000 NA
ATOM      9  C   UNL     1       1.580  12.940  18.570  0.00  0.00    +0.000 C 
ATOM     10  C   UNL     1       1.188  13.571  19.862  0.00  0.00    +0.000 C 
ATOM     11  C   UNL     1       0.784  12.334  20.655  0.00  0.00    +0.000 C 
ENDROOT
BRANCH  11  12
ATOM     12  C   UNL     1      -0.697  12.373  20.997  0.00  0.00    +0.000 A 
ATOM     13  C   UNL     1      -1.691  12.511  20.014  0.00  0.00    +0.000 A 
ATOM     14  C   UNL     1      -3.036  12.565  20.376  0.00  0.00    +0.000 A 
ATOM     15  F   UNL     1      -3.966  12.690  19.421  0.00  0.00    +0.000 F 
ATOM     16  C   UNL     1      -3.423  12.501  21.705  0.00  0.00    +0.000 A 
ATOM     17  C   UNL     1      -2.445  12.374  22.679  0.00  0.00    +0.000 A 
ATOM     18  F   UNL     1      -2.801  12.318  23.968  0.00  0.00    +0.000 F 
ATOM     19  C   UNL     1      -1.094  12.310  22.343  0.00  0.00    +0.000 A 
ENDBRANCH  11  12
BRANCH   5  20
ATOM     20  O   UNL     1       3.820   7.714  17.955  0.00  0.00    +0.000 OA
BRANCH  20  21
ATOM     21  C   UNL     1       4.567   6.629  17.565  0.00  0.00    +0.000 A 
ATOM     22  C   UNL     1       4.905   6.608  16.208  0.00  0.00    +0.000 A 
ATOM     23  C   UNL     1       5.689   5.576  15.685  0.00  0.00    +0.000 A 
ATOM     24  C   UNL     1       6.136   4.550  16.516  0.00  0.00    +0.000 A 
ATOM     25  C   UNL     1       5.790   4.554  17.866  0.00  0.00    +0.000 A 
ATOM     26  C   UNL     1       5.011   5.589  18.384  0.00  0.00    +0.000 A 
ATOM     27  F   UNL     1       4.711   5.547  19.689  0.00  0.00    +0.000 F 
ENDBRANCH  20  21
ENDBRANCH   5  20
TORSDOF 3
ENDMDL
MODEL 8
REMARK VINA RESULT:      -7.0      1.619      2.472
REMARK  Name = 
REMARK  3 active torsions:
REMARK  status: ('A' for Active; 'I' for Inactive)
REMARK    1  A    between atoms: C_5  and  O_6
REMARK    2  A    between atoms: O_6  and  C_7
REMARK    3  A    between atoms: C_19  and  C_20
REMARK                            x       y       z     vdW  Elec       q    Type
REMARK                         _______ _______ _______ _____ _____    ______ ____
ROOT
ATOM      1  O   UNL     1       1.858   9.229  17.204  0.00  0.00    +0.000 OA
ATOM      2  C   UNL     1       2.069   8.596  18.241  0.00  0.00    +0.000 C 
ATOM      3  N   UNL     1       2.961   7.569  18.271  0.00  0.00    +0.000 N 
ATOM      4  C   UNL     1       3.766   6.993  17.211  0.00  0.00    +0.000 C 
ATOM      5  C   UNL     1       4.018   5.824  18.200  0.00  0.00    +0.000 C 
ATOM      6  C   UNL     1       3.640   6.830  19.311  0.00  0.00    +0.000 C 
ATOM      7  N   UNL     1       1.409   8.895  19.425  0.00  0.00    +0.000 N 
ATOM      8  N   UNL     1       1.424   8.086  20.536  0.00  0.00    +0.000 NA
ATOM      9  C   UNL     1       0.507   8.527  21.328  0.00  0.00    +0.000 C 
ATOM     10  C   UNL     1      -0.282   9.695  20.842  0.00  0.00    +0.000 C 
ATOM     11  C   UNL     1       0.457   9.998  19.543  0.00  0.00    +0.000 C 
ENDROOT
BRANCH  11  12
ATOM     12  C   UNL     1       1.117  11.365  19.605  0.00  0.00    +0.000 A 
ATOM     13  C   UNL     1       1.903  11.869  18.554  0.00  0.00    +0.000 A 
ATOM     14  C   UNL     1       2.508  13.119  18.664  0.00  0.00    +0.000 A 
ATOM     15  F   UNL     1       3.245  13.582  17.648  0.00  0.00    +0.000 F 
ATOM     16  C   UNL     1       2.367  13.886  19.811  0.00  0.00    +0.000 A 
ATOM     17  C   UNL     1       1.600  13.388  20.854  0.00  0.00    +0.000 A 
ATOM     18  F   UNL     1       1.460  14.112  21.972  0.00  0.00    +0.000 F 
ATOM     19  C   UNL     1       0.978  12.144  20.766  0.00  0.00    +0.000 A 
ENDBRANCH  11  12
BRANCH   5  20
ATOM     20  O   UNL     1       3.145   4.676  18.024  0.00  0.00    +0.000 OA
BRANCH  20  21
ATOM     21  C   UNL     1       2.712   3.981  19.127  0.00  0.00    +0.000 A 
ATOM     22  C   UNL     1       1.337   4.064  19.370  0.00  0.00    +0.000 A 
ATOM     23  C   UNL     1       0.761   3.377  20.442  0.00  0.00    +0.000 A 
ATOM     24  C   UNL     1       1.559   2.607  21.287  0.00  0.00    +0.000 A 
ATOM     25  C   UNL     1       2.932   2.533  21.063  0.00  0.00    +0.000 A 
ATOM     26  C   UNL     1       3.501   3.215  19.987  0.00  0.00    +0.000 A 
ATOM     27  F   UNL     1       4.826   3.105  19.814  0.00  0.00    +0.000 F 
ENDBRANCH  20  21
ENDBRANCH   5  20
TORSDOF 3
ENDMDL
MODEL 9
REMARK VINA RESULT:      -7.0      3.309      4.796
REMARK  Name = 
REMARK  3 active torsions:
REMARK  status: ('A' for Active; 'I' for Inactive)
REMARK    1  A    between atoms: C_5  and  O_6
REMARK    2  A    between atoms: O_6  and  C_7
REMARK    3  A    between atoms: C_19  and  C_20
REMARK                            x       y       z     vdW  Elec       q    Type
REMARK                         _______ _______ _______ _____ _____    ______ ____
ROOT
ATOM      1  O   UNL     1       1.076   9.517  21.423  0.00  0.00    +0.000 OA
ATOM      2  C   UNL     1       1.295   9.808  20.245  0.00  0.00    +0.000 C 
ATOM      3  N   UNL     1       1.630   8.855  19.334  0.00  0.00    +0.000 N 
ATOM      4  C   UNL     1       1.835   7.429  19.499  0.00  0.00    +0.000 C 
ATOM      5  C   UNL     1       2.475   7.477  18.087  0.00  0.00    +0.000 C 
ATOM      6  C   UNL     1       1.675   8.786  17.891  0.00  0.00    +0.000 C 
ATOM      7  N   UNL     1       1.213  11.117  19.790  0.00  0.00    +0.000 N 
ATOM      8  N   UNL     1       1.671  11.531  18.562  0.00  0.00    +0.000 NA
ATOM      9  C   UNL     1       1.686  12.820  18.587  0.00  0.00    +0.000 C 
ATOM     10  C   UNL     1       1.257  13.462  19.863  0.00  0.00    +0.000 C 
ATOM     11  C   UNL     1       0.824  12.232  20.652  0.00  0.00    +0.000 C 
ENDROOT
BRANCH  11  12
ATOM     12  C   UNL     1      -0.666  12.278  20.948  0.00  0.00    +0.000 A 
ATOM     13  C   UNL     1      -1.629  12.421  19.934  0.00  0.00    +0.000 A 
ATOM     14  C   UNL     1      -2.984  12.482  20.254  0.00  0.00    +0.000 A 
ATOM     15  F   UNL     1      -3.884  12.610  19.272  0.00  0.00    +0.000 F 
ATOM     16  C   UNL     1      -3.413  12.420  21.571  0.00  0.00    +0.000 A 
ATOM     17  C   UNL     1      -2.465  12.289  22.574  0.00  0.00    +0.000 A 
ATOM     18  F   UNL     1      -2.862  12.236  23.852  0.00  0.00    +0.000 F 
ATOM     19  C   UNL     1      -1.105  12.218  22.280  0.00  0.00    +0.000 A 
ENDBRANCH  11  12
BRANCH   5  20
ATOM     20  O   UNL     1       3.925   7.583  18.077  0.00  0.00    +0.000 OA
BRANCH  20  21
ATOM     21  C   UNL     1       4.669   6.604  17.465  0.00  0.00    +0.000 A 
ATOM     22  C   UNL     1       3.991   5.399  17.255  0.00  0.00    +0.000 A 
ATOM     23  C   UNL     1       4.622   4.330  16.612  0.00  0.00    +0.000 A 
ATOM     24  C   UNL     1       5.942   4.456  16.182  0.00  0.00    +0.000 A 
ATOM     25  C   UNL     1       6.630   5.647  16.403  0.00  0.00    +0.000 A 
ATOM     26  C   UNL     1       5.994   6.712  17.039  0.00  0.00    +0.000 A 
ATOM     27  F   UNL     1       6.700   7.837  17.222  0.00  0.00    +0.000 F 
ENDBRANCH  20  21
ENDBRANCH   5  20
TORSDOF 3
ENDMDL
