MODEL 1
REMARK VINA RESULT:      -5.7      0.000      0.000
REMARK  Name = 
REMARK  10 active torsions:
REMARK  status: ('A' for Active; 'I' for Inactive)
REMARK    1  A    between atoms: C_1  and  C_2
REMARK    2  A    between atoms: C_2  and  C_3
REMARK    3  A    between atoms: C_2  and  C_4
REMARK    4  A    between atoms: C_2  and  C_5
REMARK    5  A    between atoms: C_8  and  O_9
REMARK    6  A    between atoms: C_10  and  C_11
REMARK    7  A    between atoms: C_11  and  N_12
REMARK    8  A    between atoms: N_12  and  C_13
REMARK    9  A    between atoms: N_12  and  C_14
REMARK   10  A    between atoms: N_12  and  C_15
REMARK                            x       y       z     vdW  Elec       q    Type
REMARK                         _______ _______ _______ _____ _____    ______ ____
ROOT
ATOM      1  C   UNL     1       4.485   5.849  17.615  0.00  0.00    +0.000 A 
ATOM      2  C   UNL     1       3.824   7.094  17.545  0.00  0.00    +0.000 A 
ATOM      3  C   UNL     1       2.893   7.472  18.515  0.00  0.00    +0.000 A 
ATOM      4  C   UNL     1       2.591   6.619  19.584  0.00  0.00    +0.000 A 
ATOM      5  C   UNL     1       3.245   5.375  19.685  0.00  0.00    +0.000 A 
ATOM      6  C   UNL     1       4.174   5.005  18.702  0.00  0.00    +0.000 A 
ENDROOT
BRANCH   1   8
ATOM      7  C   UNL     1       5.275   6.302  15.264  0.00  0.00    +0.000 C 
ATOM      8  C   UNL     1       5.502   5.447  16.528  0.00  0.00    +0.000 C 
ATOM      9  C   UNL     1       5.323   3.953  16.188  0.00  0.00    +0.000 C 
ATOM     10  C   UNL     1       6.972   5.653  16.975  0.00  0.00    +0.000 C 
ENDBRANCH   1   8
BRANCH   4  11
ATOM     11  O   UNL     1       1.678   6.989  20.508  0.00  0.00    +0.000 OA
ATOM     12  H   UNL     1       0.943   6.412  20.765  0.00  0.00    +0.000 HD
ENDBRANCH   4  11
BRANCH   5  13
ATOM     13  C   UNL     1       2.940   4.381  20.796  0.00  0.00    +0.000 C 
BRANCH  13  14
ATOM     14  N   UNL     1       2.068   3.231  20.409  0.00  0.00    +0.000 N 
ATOM     15  C   UNL     1       2.831   2.254  19.599  0.00  0.00    +0.000 C 
ATOM     16  C   UNL     1       1.603   2.568  21.652  0.00  0.00    +0.000 C 
ATOM     17  C   UNL     1       0.872   3.667  19.647  0.00  0.00    +0.000 C 
ENDBRANCH  13  14
ENDBRANCH   5  13
TORSDOF 4
ENDMDL
MODEL 2
REMARK VINA RESULT:      -5.7      2.075      4.986
REMARK  Name = 
REMARK  10 active torsions:
REMARK  status: ('A' for Active; 'I' for Inactive)
REMARK    1  A    between atoms: C_1  and  C_2
REMARK    2  A    between atoms: C_2  and  C_3
REMARK    3  A    between atoms: C_2  and  C_4
REMARK    4  A    between atoms: C_2  and  C_5
REMARK    5  A    between atoms: C_8  and  O_9
REMARK    6  A    between atoms: C_10  and  C_11
REMARK    7  A    between atoms: C_11  and  N_12
REMARK    8  A    between atoms: N_12  and  C_13
REMARK    9  A    between atoms: N_12  and  C_14
REMARK   10  A    between atoms: N_12  and  C_15
REMARK                            x       y       z     vdW  Elec       q    Type
REMARK                         _______ _______ _______ _____ _____    ______ ____
ROOT
ATOM      1  C   UNL     1       2.527   4.077  18.910  0.00  0.00    +0.000 A 
ATOM      2  C   UNL     1       1.838   5.230  19.341  0.00  0.00    +0.000 A 
ATOM      3  C   UNL     1       2.252   6.506  18.952  0.00  0.00    +0.000 A 
ATOM      4  C   UNL     1       3.368   6.670  18.121  0.00  0.00    +0.000 A 
ATOM      5  C   UNL     1       4.067   5.534  17.666  0.00  0.00    +0.000 A 
ATOM      6  C   UNL     1       3.645   4.259  18.068  0.00  0.00    +0.000 A 
ENDROOT
BRANCH   1   8
ATOM      7  C   UNL     1       1.923   2.647  20.896  0.00  0.00    +0.000 C 
ATOM      8  C   UNL     1       2.059   2.678  19.360  0.00  0.00    +0.000 C 
ATOM      9  C   UNL     1       3.089   1.623  18.905  0.00  0.00    +0.000 C 
ATOM     10  C   UNL     1       0.686   2.282  18.759  0.00  0.00    +0.000 C 
ENDBRANCH   1   8
BRANCH   4  11
ATOM     11  O   UNL     1       3.768   7.909  17.763  0.00  0.00    +0.000 OA
ATOM     12  H   UNL     1       3.325   8.411  17.061  0.00  0.00    +0.000 HD
ENDBRANCH   4  11
BRANCH   5  13
ATOM     13  C   UNL     1       5.311   5.638  16.793  0.00  0.00    +0.000 C 
BRANCH  13  14
ATOM     14  N   UNL     1       6.610   5.691  17.529  0.00  0.00    +0.000 N 
ATOM     15  C   UNL     1       6.391   5.474  18.978  0.00  0.00    +0.000 C 
ATOM     16  C   UNL     1       7.478   4.607  17.006  0.00  0.00    +0.000 C 
ATOM     17  C   UNL     1       7.316   6.980  17.330  0.00  0.00    +0.000 C 
ENDBRANCH  13  14
ENDBRANCH   5  13
TORSDOF 4
ENDMDL
MODEL 3
REMARK VINA RESULT:      -5.7      2.056      5.002
REMARK  Name = 
REMARK  10 active torsions:
REMARK  status: ('A' for Active; 'I' for Inactive)
REMARK    1  A    between atoms: C_1  and  C_2
REMARK    2  A    between atoms: C_2  and  C_3
REMARK    3  A    between atoms: C_2  and  C_4
REMARK    4  A    between atoms: C_2  and  C_5
REMARK    5  A    between atoms: C_8  and  O_9
REMARK    6  A    between atoms: C_10  and  C_11
REMARK    7  A    between atoms: C_11  and  N_12
REMARK    8  A    between atoms: N_12  and  C_13
REMARK    9  A    between atoms: N_12  and  C_14
REMARK   10  A    between atoms: N_12  and  C_15
REMARK                            x       y       z     vdW  Elec       q    Type
REMARK                         _______ _______ _______ _____ _____    ______ ____
ROOT
ATOM      1  C   UNL     1       2.507   4.072  18.922  0.00  0.00    +0.000 A 
ATOM      2  C   UNL     1       1.985   5.230  19.538  0.00  0.00    +0.000 A 
ATOM      3  C   UNL     1       2.399   6.505  19.145  0.00  0.00    +0.000 A 
ATOM      4  C   UNL     1       3.347   6.664  18.127  0.00  0.00    +0.000 A 
ATOM      5  C   UNL     1       3.875   5.526  17.486  0.00  0.00    +0.000 A 
ATOM      6  C   UNL     1       3.456   4.251  17.893  0.00  0.00    +0.000 A 
ENDROOT
BRANCH   1   8
ATOM      7  C   UNL     1       1.933   2.640  20.915  0.00  0.00    +0.000 C 
ATOM      8  C   UNL     1       2.044   2.674  19.377  0.00  0.00    +0.000 C 
ATOM      9  C   UNL     1       3.065   1.618  18.903  0.00  0.00    +0.000 C 
ATOM     10  C   UNL     1       0.661   2.281  18.798  0.00  0.00    +0.000 C 
ENDBRANCH   1   8
BRANCH   4  11
ATOM     11  O   UNL     1       3.750   7.902  17.766  0.00  0.00    +0.000 OA
ATOM     12  H   UNL     1       3.196   8.685  17.905  0.00  0.00    +0.000 HD
ENDBRANCH   4  11
BRANCH   5  13
ATOM     13  C   UNL     1       4.937   5.621  16.399  0.00  0.00    +0.000 C 
BRANCH  13  14
ATOM     14  N   UNL     1       6.343   5.399  16.852  0.00  0.00    +0.000 N 
ATOM     15  C   UNL     1       7.103   4.648  15.826  0.00  0.00    +0.000 C 
ATOM     16  C   UNL     1       6.978   6.726  17.046  0.00  0.00    +0.000 C 
ATOM     17  C   UNL     1       6.408   4.667  18.141  0.00  0.00    +0.000 C 
ENDBRANCH  13  14
ENDBRANCH   5  13
TORSDOF 4
ENDMDL
MODEL 4
REMARK VINA RESULT:      -5.7      2.033      4.961
REMARK  Name = 
REMARK  10 active torsions:
REMARK  status: ('A' for Active; 'I' for Inactive)
REMARK    1  A    between atoms: C_1  and  C_2
REMARK    2  A    between atoms: C_2  and  C_3
REMARK    3  A    between atoms: C_2  and  C_4
REMARK    4  A    between atoms: C_2  and  C_5
REMARK    5  A    between atoms: C_8  and  O_9
REMARK    6  A    between atoms: C_10  and  C_11
REMARK    7  A    between atoms: C_11  and  N_12
REMARK    8  A    between atoms: N_12  and  C_13
REMARK    9  A    between atoms: N_12  and  C_14
REMARK   10  A    between atoms: N_12  and  C_15
REMARK                            x       y       z     vdW  Elec       q    Type
REMARK                         _______ _______ _______ _____ _____    ______ ____
ROOT
ATOM      1  C   UNL     1       2.428   4.129  19.018  0.00  0.00    +0.000 A 
ATOM      2  C   UNL     1       1.934   5.301  19.629  0.00  0.00    +0.000 A 
ATOM      3  C   UNL     1       2.364   6.565  19.217  0.00  0.00    +0.000 A 
ATOM      4  C   UNL     1       3.300   6.698  18.184  0.00  0.00    +0.000 A 
ATOM      5  C   UNL     1       3.801   5.543  17.548  0.00  0.00    +0.000 A 
ATOM      6  C   UNL     1       3.365   4.280  17.974  0.00  0.00    +0.000 A 
ENDROOT
BRANCH   1   8
ATOM      7  C   UNL     1       3.010   1.680  19.149  0.00  0.00    +0.000 C 
ATOM      8  C   UNL     1       1.948   2.743  19.494  0.00  0.00    +0.000 C 
ATOM      9  C   UNL     1       0.615   2.397  18.798  0.00  0.00    +0.000 C 
ATOM     10  C   UNL     1       1.707   2.685  21.024  0.00  0.00    +0.000 C 
ENDBRANCH   1   8
BRANCH   4  11
ATOM     11  O   UNL     1       3.719   7.924  17.804  0.00  0.00    +0.000 OA
ATOM     12  H   UNL     1       4.479   8.049  17.215  0.00  0.00    +0.000 HD
ENDBRANCH   4  11
BRANCH   5  13
ATOM     13  C   UNL     1       4.848   5.609  16.446  0.00  0.00    +0.000 C 
BRANCH  13  14
ATOM     14  N   UNL     1       6.262   5.424  16.891  0.00  0.00    +0.000 N 
ATOM     15  C   UNL     1       7.041   4.711  15.852  0.00  0.00    +0.000 C 
ATOM     16  C   UNL     1       6.857   6.767  17.102  0.00  0.00    +0.000 C 
ATOM     17  C   UNL     1       6.355   4.676  18.168  0.00  0.00    +0.000 C 
ENDBRANCH  13  14
ENDBRANCH   5  13
TORSDOF 4
ENDMDL
MODEL 5
REMARK VINA RESULT:      -5.7      3.035      5.611
REMARK  Name = 
REMARK  10 active torsions:
REMARK  status: ('A' for Active; 'I' for Inactive)
REMARK    1  A    between atoms: C_1  and  C_2
REMARK    2  A    between atoms: C_2  and  C_3
REMARK    3  A    between atoms: C_2  and  C_4
REMARK    4  A    between atoms: C_2  and  C_5
REMARK    5  A    between atoms: C_8  and  O_9
REMARK    6  A    between atoms: C_10  and  C_11
REMARK    7  A    between atoms: C_11  and  N_12
REMARK    8  A    between atoms: N_12  and  C_13
REMARK    9  A    between atoms: N_12  and  C_14
REMARK   10  A    between atoms: N_12  and  C_15
REMARK                            x       y       z     vdW  Elec       q    Type
REMARK                         _______ _______ _______ _____ _____    ______ ____
ROOT
ATOM      1  C   UNL     1       3.612   4.175  18.509  0.00  0.00    +0.000 A 
ATOM      2  C   UNL     1       4.405   4.823  19.481  0.00  0.00    +0.000 A 
ATOM      3  C   UNL     1       5.753   5.101  19.243  0.00  0.00    +0.000 A 
ATOM      4  C   UNL     1       6.352   4.740  18.030  0.00  0.00    +0.000 A 
ATOM      5  C   UNL     1       5.580   4.103  17.037  0.00  0.00    +0.000 A 
ATOM      6  C   UNL     1       4.229   3.825  17.290  0.00  0.00    +0.000 A 
ENDROOT
BRANCH   1   8
ATOM      7  C   UNL     1       1.264   4.339  17.608  0.00  0.00    +0.000 C 
ATOM      8  C   UNL     1       2.129   3.868  18.795  0.00  0.00    +0.000 C 
ATOM      9  C   UNL     1       1.694   4.601  20.082  0.00  0.00    +0.000 C 
ATOM     10  C   UNL     1       1.856   2.357  19.003  0.00  0.00    +0.000 C 
ENDBRANCH   1   8
BRANCH   4  11
ATOM     11  O   UNL     1       7.660   5.001  17.817  0.00  0.00    +0.000 OA
ATOM     12  H   UNL     1       7.959   5.816  17.386  0.00  0.00    +0.000 HD
ENDBRANCH   4  11
BRANCH   5  13
ATOM     13  C   UNL     1       6.173   3.648  15.711  0.00  0.00    +0.000 C 
BRANCH  13  14
ATOM     14  N   UNL     1       6.080   4.634  14.593  0.00  0.00    +0.000 N 
ATOM     15  C   UNL     1       7.433   4.990  14.105  0.00  0.00    +0.000 C 
ATOM     16  C   UNL     1       5.320   4.003  13.486  0.00  0.00    +0.000 C 
ATOM     17  C   UNL     1       5.366   5.871  14.994  0.00  0.00    +0.000 C 
ENDBRANCH  13  14
ENDBRANCH   5  13
TORSDOF 4
ENDMDL
MODEL 6
REMARK VINA RESULT:      -5.7      0.315      1.074
REMARK  Name = 
REMARK  10 active torsions:
REMARK  status: ('A' for Active; 'I' for Inactive)
REMARK    1  A    between atoms: C_1  and  C_2
REMARK    2  A    between atoms: C_2  and  C_3
REMARK    3  A    between atoms: C_2  and  C_4
REMARK    4  A    between atoms: C_2  and  C_5
REMARK    5  A    between atoms: C_8  and  O_9
REMARK    6  A    between atoms: C_10  and  C_11
REMARK    7  A    between atoms: C_11  and  N_12
REMARK    8  A    between atoms: N_12  and  C_13
REMARK    9  A    between atoms: N_12  and  C_14
REMARK   10  A    between atoms: N_12  and  C_15
REMARK                            x       y       z     vdW  Elec       q    Type
REMARK                         _______ _______ _______ _____ _____    ______ ____
ROOT
ATOM      1  C   UNL     1       4.427   6.104  17.734  0.00  0.00    +0.000 A 
ATOM      2  C   UNL     1       3.680   7.297  17.631  0.00  0.00    +0.000 A 
ATOM      3  C   UNL     1       2.676   7.600  18.554  0.00  0.00    +0.000 A 
ATOM      4  C   UNL     1       2.385   6.723  19.606  0.00  0.00    +0.000 A 
ATOM      5  C   UNL     1       3.125   5.530  19.739  0.00  0.00    +0.000 A 
ATOM      6  C   UNL     1       4.127   5.234  18.804  0.00  0.00    +0.000 A 
ENDROOT
BRANCH   1   8
ATOM      7  C   UNL     1       6.892   6.266  17.228  0.00  0.00    +0.000 C 
ATOM      8  C   UNL     1       5.525   5.783  16.700  0.00  0.00    +0.000 C 
ATOM      9  C   UNL     1       5.197   6.494  15.370  0.00  0.00    +0.000 C 
ATOM     10  C   UNL     1       5.646   4.266  16.403  0.00  0.00    +0.000 C 
ENDBRANCH   1   8
BRANCH   4  11
ATOM     11  O   UNL     1       1.403   7.020  20.483  0.00  0.00    +0.000 OA
ATOM     12  H   UNL     1       1.474   7.761  21.105  0.00  0.00    +0.000 HD
ENDBRANCH   4  11
BRANCH   5  13
ATOM     13  C   UNL     1       2.839   4.512  20.834  0.00  0.00    +0.000 C 
BRANCH  13  14
ATOM     14  N   UNL     1       2.126   3.276  20.392  0.00  0.00    +0.000 N 
ATOM     15  C   UNL     1       3.081   2.320  19.783  0.00  0.00    +0.000 C 
ATOM     16  C   UNL     1       1.512   2.647  21.587  0.00  0.00    +0.000 C 
ATOM     17  C   UNL     1       1.044   3.569  19.421  0.00  0.00    +0.000 C 
ENDBRANCH  13  14
ENDBRANCH   5  13
TORSDOF 4
ENDMDL
MODEL 7
REMARK VINA RESULT:      -5.7      3.017      5.669
REMARK  Name = 
REMARK  10 active torsions:
REMARK  status: ('A' for Active; 'I' for Inactive)
REMARK    1  A    between atoms: C_1  and  C_2
REMARK    2  A    between atoms: C_2  and  C_3
REMARK    3  A    between atoms: C_2  and  C_4
REMARK    4  A    between atoms: C_2  and  C_5
REMARK    5  A    between atoms: C_8  and  O_9
REMARK    6  A    between atoms: C_10  and  C_11
REMARK    7  A    between atoms: C_11  and  N_12
REMARK    8  A    between atoms: N_12  and  C_13
REMARK    9  A    between atoms: N_12  and  C_14
REMARK   10  A    between atoms: N_12  and  C_15
REMARK                            x       y       z     vdW  Elec       q    Type
REMARK                         _______ _______ _______ _____ _____    ______ ____
ROOT
ATOM      1  C   UNL     1       3.818   4.357  18.587  0.00  0.00    +0.000 A 
ATOM      2  C   UNL     1       4.715   4.997  19.469  0.00  0.00    +0.000 A 
ATOM      3  C   UNL     1       6.053   5.193  19.120  0.00  0.00    +0.000 A 
ATOM      4  C   UNL     1       6.538   4.756  17.881  0.00  0.00    +0.000 A 
ATOM      5  C   UNL     1       5.660   4.125  16.976  0.00  0.00    +0.000 A 
ATOM      6  C   UNL     1       4.320   3.929  17.340  0.00  0.00    +0.000 A 
ENDROOT
BRANCH   1   8
ATOM      7  C   UNL     1       2.164   2.709  19.538  0.00  0.00    +0.000 C 
ATOM      8  C   UNL     1       2.347   4.142  18.996  0.00  0.00    +0.000 C 
ATOM      9  C   UNL     1       1.438   4.357  17.768  0.00  0.00    +0.000 C 
ATOM     10  C   UNL     1       1.881   5.124  20.101  0.00  0.00    +0.000 C 
ENDBRANCH   1   8
BRANCH   4  11
ATOM     11  O   UNL     1       7.837   4.938  17.560  0.00  0.00    +0.000 OA
ATOM     12  H   UNL     1       8.514   4.273  17.756  0.00  0.00    +0.000 HD
ENDBRANCH   4  11
BRANCH   5  13
ATOM     13  C   UNL     1       6.125   3.590  15.629  0.00  0.00    +0.000 C 
BRANCH  13  14
ATOM     14  N   UNL     1       6.065   4.560  14.495  0.00  0.00    +0.000 N 
ATOM     15  C   UNL     1       5.328   3.973  13.352  0.00  0.00    +0.000 C 
ATOM     16  C   UNL     1       5.343   5.769  14.964  0.00  0.00    +0.000 C 
ATOM     17  C   UNL     1       7.414   4.979  14.042  0.00  0.00    +0.000 C 
ENDBRANCH  13  14
ENDBRANCH   5  13
TORSDOF 4
ENDMDL
MODEL 8
REMARK VINA RESULT:      -5.7      0.307      1.104
REMARK  Name = 
REMARK  10 active torsions:
REMARK  status: ('A' for Active; 'I' for Inactive)
REMARK    1  A    between atoms: C_1  and  C_2
REMARK    2  A    between atoms: C_2  and  C_3
REMARK    3  A    between atoms: C_2  and  C_4
REMARK    4  A    between atoms: C_2  and  C_5
REMARK    5  A    between atoms: C_8  and  O_9
REMARK    6  A    between atoms: C_10  and  C_11
REMARK    7  A    between atoms: C_11  and  N_12
REMARK    8  A    between atoms: N_12  and  C_13
REMARK    9  A    between atoms: N_12  and  C_14
REMARK   10  A    between atoms: N_12  and  C_15
REMARK                            x       y       z     vdW  Elec       q    Type
REMARK                         _______ _______ _______ _____ _____    ______ ____
ROOT
ATOM      1  C   UNL     1       4.275   6.076  17.707  0.00  0.00    +0.000 A 
ATOM      2  C   UNL     1       3.584   7.303  17.619  0.00  0.00    +0.000 A 
ATOM      3  C   UNL     1       2.630   7.664  18.573  0.00  0.00    +0.000 A 
ATOM      4  C   UNL     1       2.335   6.812  19.644  0.00  0.00    +0.000 A 
ATOM      5  C   UNL     1       3.020   5.585  19.764  0.00  0.00    +0.000 A 
ATOM      6  C   UNL     1       3.972   5.232  18.796  0.00  0.00    +0.000 A 
ENDROOT
BRANCH   1   8
ATOM      7  C   UNL     1       5.098   4.229  16.202  0.00  0.00    +0.000 C 
ATOM      8  C   UNL     1       5.317   5.692  16.638  0.00  0.00    +0.000 C 
ATOM      9  C   UNL     1       6.735   5.856  17.224  0.00  0.00    +0.000 C 
ATOM     10  C   UNL     1       5.230   6.577  15.369  0.00  0.00    +0.000 C 
ENDBRANCH   1   8
BRANCH   4  11
ATOM     11  O   UNL     1       1.401   7.165  20.553  0.00  0.00    +0.000 OA
ATOM     12  H   UNL     1       0.915   6.508  21.074  0.00  0.00    +0.000 HD
ENDBRANCH   4  11
BRANCH   5  13
ATOM     13  C   UNL     1       2.724   4.592  20.879  0.00  0.00    +0.000 C 
BRANCH  13  14
ATOM     14  N   UNL     1       2.093   3.309  20.446  0.00  0.00    +0.000 N 
ATOM     15  C   UNL     1       3.094   2.437  19.790  0.00  0.00    +0.000 C 
ATOM     16  C   UNL     1       1.574   2.622  21.655  0.00  0.00    +0.000 C 
ATOM     17  C   UNL     1       0.955   3.528  19.520  0.00  0.00    +0.000 C 
ENDBRANCH  13  14
ENDBRANCH   5  13
TORSDOF 4
ENDMDL
MODEL 9
REMARK VINA RESULT:      -5.7      2.064      4.982
REMARK  Name = 
REMARK  10 active torsions:
REMARK  status: ('A' for Active; 'I' for Inactive)
REMARK    1  A    between atoms: C_1  and  C_2
REMARK    2  A    between atoms: C_2  and  C_3
REMARK    3  A    between atoms: C_2  and  C_4
REMARK    4  A    between atoms: C_2  and  C_5
REMARK    5  A    between atoms: C_8  and  O_9
REMARK    6  A    between atoms: C_10  and  C_11
REMARK    7  A    between atoms: C_11  and  N_12
REMARK    8  A    between atoms: N_12  and  C_13
REMARK    9  A    between atoms: N_12  and  C_14
REMARK   10  A    between atoms: N_12  and  C_15
REMARK                            x       y       z     vdW  Elec       q    Type
REMARK                         _______ _______ _______ _____ _____    ______ ____
ROOT
ATOM      1  C   UNL     1       2.535   4.110  18.944  0.00  0.00    +0.000 A 
ATOM      2  C   UNL     1       2.016   5.268  19.560  0.00  0.00    +0.000 A 
ATOM      3  C   UNL     1       2.419   6.543  19.155  0.00  0.00    +0.000 A 
ATOM      4  C   UNL     1       3.353   6.701  18.124  0.00  0.00    +0.000 A 
ATOM      5  C   UNL     1       3.879   5.561  17.483  0.00  0.00    +0.000 A 
ATOM      6  C   UNL     1       3.470   4.287  17.902  0.00  0.00    +0.000 A 
ENDROOT
BRANCH   1   8
ATOM      7  C   UNL     1       0.686   2.399  18.841  0.00  0.00    +0.000 C 
ATOM      8  C   UNL     1       2.085   2.712  19.413  0.00  0.00    +0.000 C 
ATOM      9  C   UNL     1       2.038   2.680  20.955  0.00  0.00    +0.000 C 
ATOM     10  C   UNL     1       3.043   1.585  18.950  0.00  0.00    +0.000 C 
ENDBRANCH   1   8
BRANCH   4  11
ATOM     11  O   UNL     1       3.746   7.938  17.751  0.00  0.00    +0.000 OA
ATOM     12  H   UNL     1       4.585   8.095  17.292  0.00  0.00    +0.000 HD
ENDBRANCH   4  11
BRANCH   5  13
ATOM     13  C   UNL     1       4.926   5.655  16.382  0.00  0.00    +0.000 C 
BRANCH  13  14
ATOM     14  N   UNL     1       6.343   5.502  16.829  0.00  0.00    +0.000 N 
ATOM     15  C   UNL     1       6.413   4.663  18.048  0.00  0.00    +0.000 C 
ATOM     16  C   UNL     1       7.098   4.832  15.740  0.00  0.00    +0.000 C 
ATOM     17  C   UNL     1       6.991   6.809  17.099  0.00  0.00    +0.000 C 
ENDBRANCH  13  14
ENDBRANCH   5  13
TORSDOF 4
ENDMDL
