MODEL 1
REMARK VINA RESULT:      -6.7      0.000      0.000
REMARK  Name = 
REMARK  10 active torsions:
REMARK  status: ('A' for Active; 'I' for Inactive)
REMARK    1  A    between atoms: C_1  and  C_2
REMARK    2  A    between atoms: C_2  and  O_3
REMARK    3  A    between atoms: O_3  and  C_4
REMARK    4  A    between atoms: C_6  and  N_7
REMARK    5  A    between atoms: N_7  and  C_8
REMARK    6  A    between atoms: N_7  and  C_10
REMARK    7  A    between atoms: C_8  and  C_9
REMARK    8  A    between atoms: C_10  and  C_11
REMARK    9  A    between atoms: C_14  and  C_15
REMARK   10  A    between atoms: C_26  and  C_27
REMARK                            x       y       z     vdW  Elec       q    Type
REMARK                         _______ _______ _______ _____ _____    ______ ____
ROOT
ATOM      1  C   UNL     1       1.467   8.640  20.465  0.00  0.00    +0.000 A 
ATOM      2  C   UNL     1       1.740   7.264  20.567  0.00  0.00    +0.000 A 
ATOM      3  C   UNL     1       2.308   6.551  19.509  0.00  0.00    +0.000 A 
ATOM      4  C   UNL     1       2.440   7.238  18.287  0.00  0.00    +0.000 A 
ATOM      5  C   UNL     1       2.086   8.589  18.140  0.00  0.00    +0.000 A 
ATOM      6  C   UNL     1       1.620   9.310  19.239  0.00  0.00    +0.000 A 
ENDROOT
BRANCH   6   7
ATOM      7  C   UNL     1       1.424  10.769  19.162  0.00  0.00    +0.000 C 
ATOM      8  C   UNL     1       0.232  11.303  18.859  0.00  0.00    +0.000 C 
ATOM      9  C   UNL     1      -1.065  10.598  18.713  0.00  0.00    +0.000 C 
ATOM     10  O   UNL     1      -1.314   9.449  19.032  0.00  0.00    +0.000 OA
ATOM     11  N   UNL     1      -1.873  11.584  18.148  0.00  0.00    +0.000 N 
ATOM     12  C   UNL     1      -3.173  11.335  17.792  0.00  0.00    +0.000 A 
ATOM     13  N   UNL     1      -3.919  10.272  18.000  0.00  0.00    +0.000 NA
ATOM     14  N   UNL     1      -5.140  10.541  17.431  0.00  0.00    +0.000 NA
ATOM     15  N   UNL     1      -5.142  11.735  16.855  0.00  0.00    +0.000 NA
ATOM     16  N   UNL     1      -3.916  12.227  17.079  0.00  0.00    +0.000 N 
ATOM     17  N   UNL     1      -1.278  12.829  17.990  0.00  0.00    +0.000 NA
ATOM     18  C   UNL     1      -0.057  12.690  18.445  0.00  0.00    +0.000 C 
ATOM     19  C   UNL     1       0.935  13.807  18.498  0.00  0.00    +0.000 C 
ATOM     20  H   UNL     1      -3.637  13.120  16.698  0.00  0.00    +0.000 HD
ENDBRANCH   6   7
BRANCH   1  21
ATOM     21  O   UNL     1       1.088   9.397  21.554  0.00  0.00    +0.000 OA
BRANCH  21  23
ATOM     22  C   UNL     1      -0.612  10.014  23.135  0.00  0.00    +0.000 C 
ATOM     23  C   UNL     1      -0.135   8.959  22.158  0.00  0.00    +0.000 C 
ENDBRANCH  21  23
ENDBRANCH   1  21
BRANCH   3  24
ATOM     24  N   UNL     1       2.776   5.234  19.636  0.00  0.00    +0.000 N 
BRANCH  24  25
ATOM     25  C   UNL     1       2.341   4.374  20.754  0.00  0.00    +0.000 C 
ATOM     26  C   UNL     1       1.120   3.538  20.414  0.00  0.00    +0.000 C 
ENDBRANCH  24  25
BRANCH  24  27
ATOM     27  C   UNL     1       4.200   5.064  19.258  0.00  0.00    +0.000 C 
ATOM     28  C   UNL     1       4.409   4.024  18.158  0.00  0.00    +0.000 C 
ENDBRANCH  24  27
ENDBRANCH   3  24
TORSDOF 6
ENDMDL
MODEL 2
REMARK VINA RESULT:      -6.6      0.450      1.349
REMARK  Name = 
REMARK  10 active torsions:
REMARK  status: ('A' for Active; 'I' for Inactive)
REMARK    1  A    between atoms: C_1  and  C_2
REMARK    2  A    between atoms: C_2  and  O_3
REMARK    3  A    between atoms: O_3  and  C_4
REMARK    4  A    between atoms: C_6  and  N_7
REMARK    5  A    between atoms: N_7  and  C_8
REMARK    6  A    between atoms: N_7  and  C_10
REMARK    7  A    between atoms: C_8  and  C_9
REMARK    8  A    between atoms: C_10  and  C_11
REMARK    9  A    between atoms: C_14  and  C_15
REMARK   10  A    between atoms: C_26  and  C_27
REMARK                            x       y       z     vdW  Elec       q    Type
REMARK                         _______ _______ _______ _____ _____    ______ ____
ROOT
ATOM      1  C   UNL     1       1.525   8.511  20.552  0.00  0.00    +0.000 A 
ATOM      2  C   UNL     1       1.758   7.128  20.661  0.00  0.00    +0.000 A 
ATOM      3  C   UNL     1       2.231   6.378  19.581  0.00  0.00    +0.000 A 
ATOM      4  C   UNL     1       2.305   7.040  18.341  0.00  0.00    +0.000 A 
ATOM      5  C   UNL     1       1.988   8.400  18.193  0.00  0.00    +0.000 A 
ATOM      6  C   UNL     1       1.619   9.154  19.306  0.00  0.00    +0.000 A 
ENDROOT
BRANCH   6   7
ATOM      7  C   UNL     1       1.468  10.618  19.215  0.00  0.00    +0.000 C 
ATOM      8  C   UNL     1       0.294  11.185  18.900  0.00  0.00    +0.000 C 
ATOM      9  C   UNL     1      -1.022  10.518  18.751  0.00  0.00    +0.000 C 
ATOM     10  O   UNL     1      -1.308   9.380  19.080  0.00  0.00    +0.000 OA
ATOM     11  N   UNL     1      -1.797  11.523  18.173  0.00  0.00    +0.000 N 
ATOM     12  C   UNL     1      -3.102  11.310  17.811  0.00  0.00    +0.000 A 
ATOM     13  N   UNL     1      -3.881  10.272  18.024  0.00  0.00    +0.000 NA
ATOM     14  N   UNL     1      -5.090  10.572  17.445  0.00  0.00    +0.000 NA
ATOM     15  N   UNL     1      -5.052  11.760  16.858  0.00  0.00    +0.000 NA
ATOM     16  N   UNL     1      -3.813  12.217  17.085  0.00  0.00    +0.000 N 
ATOM     17  N   UNL     1      -1.164  12.748  18.008  0.00  0.00    +0.000 NA
ATOM     18  C   UNL     1       0.050  12.576  18.472  0.00  0.00    +0.000 C 
ATOM     19  C   UNL     1       1.074  13.663  18.522  0.00  0.00    +0.000 C 
ATOM     20  H   UNL     1      -3.505  13.098  16.698  0.00  0.00    +0.000 HD
ENDBRANCH   6   7
BRANCH   1  21
ATOM     21  O   UNL     1       1.244   9.298  21.649  0.00  0.00    +0.000 OA
BRANCH  21  23
ATOM     22  C   UNL     1      -0.679  10.327  22.655  0.00  0.00    +0.000 C 
ATOM     23  C   UNL     1      -0.031   9.021  22.240  0.00  0.00    +0.000 C 
ENDBRANCH  21  23
ENDBRANCH   1  21
BRANCH   3  24
ATOM     24  N   UNL     1       2.661   5.048  19.702  0.00  0.00    +0.000 N 
BRANCH  24  25
ATOM     25  C   UNL     1       3.539   4.434  18.688  0.00  0.00    +0.000 C 
ATOM     26  C   UNL     1       4.976   4.295  19.158  0.00  0.00    +0.000 C 
ENDBRANCH  24  25
BRANCH  24  27
ATOM     27  C   UNL     1       1.629   4.131  20.247  0.00  0.00    +0.000 C 
ATOM     28  C   UNL     1       2.081   3.404  21.513  0.00  0.00    +0.000 C 
ENDBRANCH  24  27
ENDBRANCH   3  24
TORSDOF 6
ENDMDL
MODEL 3
REMARK VINA RESULT:      -6.5      2.742      8.172
REMARK  Name = 
REMARK  10 active torsions:
REMARK  status: ('A' for Active; 'I' for Inactive)
REMARK    1  A    between atoms: C_1  and  C_2
REMARK    2  A    between atoms: C_2  and  O_3
REMARK    3  A    between atoms: O_3  and  C_4
REMARK    4  A    between atoms: C_6  and  N_7
REMARK    5  A    between atoms: N_7  and  C_8
REMARK    6  A    between atoms: N_7  and  C_10
REMARK    7  A    between atoms: C_8  and  C_9
REMARK    8  A    between atoms: C_10  and  C_11
REMARK    9  A    between atoms: C_14  and  C_15
REMARK   10  A    between atoms: C_26  and  C_27
REMARK                            x       y       z     vdW  Elec       q    Type
REMARK                         _______ _______ _______ _____ _____    ______ ____
ROOT
ATOM      1  C   UNL     1       1.390   8.672  20.402  0.00  0.00    +0.000 A 
ATOM      2  C   UNL     1       0.938   9.947  20.021  0.00  0.00    +0.000 A 
ATOM      3  C   UNL     1       0.790  10.300  18.677  0.00  0.00    +0.000 A 
ATOM      4  C   UNL     1       1.270   9.378  17.729  0.00  0.00    +0.000 A 
ATOM      5  C   UNL     1       1.811   8.134  18.094  0.00  0.00    +0.000 A 
ATOM      6  C   UNL     1       1.852   7.760  19.436  0.00  0.00    +0.000 A 
ENDROOT
BRANCH   6   7
ATOM      7  C   UNL     1       2.234   6.392  19.832  0.00  0.00    +0.000 C 
ATOM      8  C   UNL     1       3.271   5.761  19.264  0.00  0.00    +0.000 C 
ATOM      9  C   UNL     1       4.264   6.323  18.315  0.00  0.00    +0.000 C 
ATOM     10  O   UNL     1       4.431   7.497  18.041  0.00  0.00    +0.000 OA
ATOM     11  N   UNL     1       4.924   5.178  17.869  0.00  0.00    +0.000 N 
ATOM     12  C   UNL     1       5.909   5.238  16.918  0.00  0.00    +0.000 A 
ATOM     13  N   UNL     1       6.492   6.281  16.367  0.00  0.00    +0.000 NA
ATOM     14  N   UNL     1       7.404   5.783  15.469  0.00  0.00    +0.000 NA
ATOM     15  N   UNL     1       7.367   4.458  15.441  0.00  0.00    +0.000 NA
ATOM     16  N   UNL     1       6.434   4.120  16.342  0.00  0.00    +0.000 N 
ATOM     17  N   UNL     1       4.527   3.987  18.462  0.00  0.00    +0.000 NA
ATOM     18  C   UNL     1       3.589   4.320  19.315  0.00  0.00    +0.000 C 
ATOM     19  C   UNL     1       2.900   3.339  20.207  0.00  0.00    +0.000 C 
ATOM     20  H   UNL     1       6.174   3.155  16.484  0.00  0.00    +0.000 HD
ENDBRANCH   6   7
BRANCH   1  21
ATOM     21  O   UNL     1       1.361   8.242  21.712  0.00  0.00    +0.000 OA
BRANCH  21  23
ATOM     22  C   UNL     1      -0.022   9.399  23.299  0.00  0.00    +0.000 C 
ATOM     23  C   UNL     1       1.351   9.311  22.665  0.00  0.00    +0.000 C 
ENDBRANCH  21  23
ENDBRANCH   1  21
BRANCH   3  24
ATOM     24  N   UNL     1       0.159  11.483  18.261  0.00  0.00    +0.000 N 
BRANCH  24  25
ATOM     25  C   UNL     1       0.621  12.802  18.733  0.00  0.00    +0.000 C 
ATOM     26  C   UNL     1       1.984  13.182  18.180  0.00  0.00    +0.000 C 
ENDBRANCH  24  25
BRANCH  24  27
ATOM     27  C   UNL     1      -1.315  11.365  18.137  0.00  0.00    +0.000 C 
ATOM     28  C   UNL     1      -2.068  12.025  19.291  0.00  0.00    +0.000 C 
ENDBRANCH  24  27
ENDBRANCH   3  24
TORSDOF 6
ENDMDL
MODEL 4
REMARK VINA RESULT:      -6.3      1.342      1.571
REMARK  Name = 
REMARK  10 active torsions:
REMARK  status: ('A' for Active; 'I' for Inactive)
REMARK    1  A    between atoms: C_1  and  C_2
REMARK    2  A    between atoms: C_2  and  O_3
REMARK    3  A    between atoms: O_3  and  C_4
REMARK    4  A    between atoms: C_6  and  N_7
REMARK    5  A    between atoms: N_7  and  C_8
REMARK    6  A    between atoms: N_7  and  C_10
REMARK    7  A    between atoms: C_8  and  C_9
REMARK    8  A    between atoms: C_10  and  C_11
REMARK    9  A    between atoms: C_14  and  C_15
REMARK   10  A    between atoms: C_26  and  C_27
REMARK                            x       y       z     vdW  Elec       q    Type
REMARK                         _______ _______ _______ _____ _____    ______ ____
ROOT
ATOM      1  C   UNL     1       1.544   8.737  20.210  0.00  0.00    +0.000 A 
ATOM      2  C   UNL     1       2.055   7.537  19.684  0.00  0.00    +0.000 A 
ATOM      3  C   UNL     1       2.509   7.452  18.365  0.00  0.00    +0.000 A 
ATOM      4  C   UNL     1       2.278   8.574  17.547  0.00  0.00    +0.000 A 
ATOM      5  C   UNL     1       1.684   9.750  18.032  0.00  0.00    +0.000 A 
ATOM      6  C   UNL     1       1.335   9.850  19.378  0.00  0.00    +0.000 A 
ENDROOT
BRANCH   6   7
ATOM      7  C   UNL     1       0.889  11.133  19.953  0.00  0.00    +0.000 C 
ATOM      8  C   UNL     1      -0.370  11.569  19.807  0.00  0.00    +0.000 C 
ATOM      9  C   UNL     1      -1.520  10.835  19.224  0.00  0.00    +0.000 C 
ATOM     10  O   UNL     1      -1.573   9.648  18.959  0.00  0.00    +0.000 OA
ATOM     11  N   UNL     1      -2.474  11.844  19.090  0.00  0.00    +0.000 N 
ATOM     12  C   UNL     1      -3.702  11.605  18.529  0.00  0.00    +0.000 A 
ATOM     13  N   UNL     1      -4.256  10.473  18.154  0.00  0.00    +0.000 NA
ATOM     14  N   UNL     1      -5.491  10.797  17.648  0.00  0.00    +0.000 NA
ATOM     15  N   UNL     1      -5.687  12.108  17.680  0.00  0.00    +0.000 NA
ATOM     16  N   UNL     1      -4.572  12.609  18.228  0.00  0.00    +0.000 N 
ATOM     17  N   UNL     1      -2.102  13.089  19.577  0.00  0.00    +0.000 NA
ATOM     18  C   UNL     1      -0.887  12.931  20.042  0.00  0.00    +0.000 C 
ATOM     19  C   UNL     1      -0.106  14.024  20.698  0.00  0.00    +0.000 C 
ATOM     20  H   UNL     1      -4.444  13.607  18.325  0.00  0.00    +0.000 HD
ENDBRANCH   6   7
BRANCH   1  21
ATOM     21  O   UNL     1       1.271   8.893  21.553  0.00  0.00    +0.000 OA
BRANCH  21  23
ATOM     22  C   UNL     1      -0.578   9.514  22.954  0.00  0.00    +0.000 C 
ATOM     23  C   UNL     1      -0.071   8.541  21.909  0.00  0.00    +0.000 C 
ENDBRANCH  21  23
ENDBRANCH   1  21
BRANCH   3  24
ATOM     24  N   UNL     1       3.204   6.340  17.865  0.00  0.00    +0.000 N 
BRANCH  24  25
ATOM     25  C   UNL     1       2.881   4.972  18.316  0.00  0.00    +0.000 C 
ATOM     26  C   UNL     1       3.994   4.345  19.137  0.00  0.00    +0.000 C 
ENDBRANCH  24  25
BRANCH  24  27
ATOM     27  C   UNL     1       4.652   6.583  17.652  0.00  0.00    +0.000 C 
ATOM     28  C   UNL     1       5.065   6.491  16.184  0.00  0.00    +0.000 C 
ENDBRANCH  24  27
ENDBRANCH   3  24
TORSDOF 6
ENDMDL
MODEL 5
REMARK VINA RESULT:      -6.2      3.245      4.794
REMARK  Name = 
REMARK  10 active torsions:
REMARK  status: ('A' for Active; 'I' for Inactive)
REMARK    1  A    between atoms: C_1  and  C_2
REMARK    2  A    between atoms: C_2  and  O_3
REMARK    3  A    between atoms: O_3  and  C_4
REMARK    4  A    between atoms: C_6  and  N_7
REMARK    5  A    between atoms: N_7  and  C_8
REMARK    6  A    between atoms: N_7  and  C_10
REMARK    7  A    between atoms: C_8  and  C_9
REMARK    8  A    between atoms: C_10  and  C_11
REMARK    9  A    between atoms: C_14  and  C_15
REMARK   10  A    between atoms: C_26  and  C_27
REMARK                            x       y       z     vdW  Elec       q    Type
REMARK                         _______ _______ _______ _____ _____    ______ ____
ROOT
ATOM      1  C   UNL     1       1.106   9.342  20.289  0.00  0.00    +0.000 A 
ATOM      2  C   UNL     1       1.861   8.168  20.117  0.00  0.00    +0.000 A 
ATOM      3  C   UNL     1       2.243   7.722  18.849  0.00  0.00    +0.000 A 
ATOM      4  C   UNL     1       1.697   8.412  17.750  0.00  0.00    +0.000 A 
ATOM      5  C   UNL     1       0.864   9.533  17.902  0.00  0.00    +0.000 A 
ATOM      6  C   UNL     1       0.583  10.023  19.176  0.00  0.00    +0.000 A 
ENDROOT
BRANCH   6   7
ATOM      7  C   UNL     1      -0.126  11.304  19.357  0.00  0.00    +0.000 C 
ATOM      8  C   UNL     1       0.496  12.480  19.192  0.00  0.00    +0.000 C 
ATOM      9  C   UNL     1       1.867  12.715  18.677  0.00  0.00    +0.000 C 
ATOM     10  O   UNL     1       2.593  11.904  18.131  0.00  0.00    +0.000 OA
ATOM     11  N   UNL     1       2.063  14.064  18.971  0.00  0.00    +0.000 N 
ATOM     12  C   UNL     1       3.250  14.695  18.702  0.00  0.00    +0.000 A 
ATOM     13  N   UNL     1       4.312  14.264  18.056  0.00  0.00    +0.000 NA
ATOM     14  N   UNL     1       5.223  15.291  18.081  0.00  0.00    +0.000 NA
ATOM     15  N   UNL     1       4.748  16.329  18.757  0.00  0.00    +0.000 NA
ATOM     16  N   UNL     1       3.521  15.955  19.144  0.00  0.00    +0.000 N 
ATOM     17  N   UNL     1       0.977  14.720  19.532  0.00  0.00    +0.000 NA
ATOM     18  C   UNL     1       0.035  13.813  19.626  0.00  0.00    +0.000 C 
ATOM     19  C   UNL     1      -1.335  14.099  20.150  0.00  0.00    +0.000 C 
ATOM     20  H   UNL     1       2.954  16.557  19.724  0.00  0.00    +0.000 HD
ENDBRANCH   6   7
BRANCH   1  21
ATOM     21  O   UNL     1       0.884   9.898  21.531  0.00  0.00    +0.000 OA
BRANCH  21  23
ATOM     22  C   UNL     1      -0.872  10.232  23.135  0.00  0.00    +0.000 C 
ATOM     23  C   UNL     1      -0.125   9.221  22.290  0.00  0.00    +0.000 C 
ENDBRANCH  21  23
ENDBRANCH   1  21
BRANCH   3  24
ATOM     24  N   UNL     1       3.156   6.676  18.648  0.00  0.00    +0.000 N 
BRANCH  24  25
ATOM     25  C   UNL     1       4.059   6.664  17.481  0.00  0.00    +0.000 C 
ATOM     26  C   UNL     1       5.425   6.081  17.799  0.00  0.00    +0.000 C 
ENDBRANCH  24  25
BRANCH  24  27
ATOM     27  C   UNL     1       2.628   5.340  19.020  0.00  0.00    +0.000 C 
ATOM     28  C   UNL     1       1.892   4.646  17.875  0.00  0.00    +0.000 C 
ENDBRANCH  24  27
ENDBRANCH   3  24
TORSDOF 6
ENDMDL
MODEL 6
REMARK VINA RESULT:      -6.2      2.960      8.058
REMARK  Name = 
REMARK  10 active torsions:
REMARK  status: ('A' for Active; 'I' for Inactive)
REMARK    1  A    between atoms: C_1  and  C_2
REMARK    2  A    between atoms: C_2  and  O_3
REMARK    3  A    between atoms: O_3  and  C_4
REMARK    4  A    between atoms: C_6  and  N_7
REMARK    5  A    between atoms: N_7  and  C_8
REMARK    6  A    between atoms: N_7  and  C_10
REMARK    7  A    between atoms: C_8  and  C_9
REMARK    8  A    between atoms: C_10  and  C_11
REMARK    9  A    between atoms: C_14  and  C_15
REMARK   10  A    between atoms: C_26  and  C_27
REMARK                            x       y       z     vdW  Elec       q    Type
REMARK                         _______ _______ _______ _____ _____    ______ ____
ROOT
ATOM      1  C   UNL     1       1.323   8.869  20.046  0.00  0.00    +0.000 A 
ATOM      2  C   UNL     1       1.264  10.274  20.035  0.00  0.00    +0.000 A 
ATOM      3  C   UNL     1       1.442  11.004  18.857  0.00  0.00    +0.000 A 
ATOM      4  C   UNL     1       1.845  10.277  17.722  0.00  0.00    +0.000 A 
ATOM      5  C   UNL     1       2.001   8.881  17.737  0.00  0.00    +0.000 A 
ATOM      6  C   UNL     1       1.715   8.162  18.896  0.00  0.00    +0.000 A 
ENDROOT
BRANCH   6   7
ATOM      7  C   UNL     1       1.683   6.687  18.887  0.00  0.00    +0.000 C 
ATOM      8  C   UNL     1       2.670   5.968  18.335  0.00  0.00    +0.000 C 
ATOM      9  C   UNL     1       3.967   6.462  17.811  0.00  0.00    +0.000 C 
ATOM     10  O   UNL     1       4.445   7.571  17.967  0.00  0.00    +0.000 OA
ATOM     11  N   UNL     1       4.458   5.342  17.139  0.00  0.00    +0.000 N 
ATOM     12  C   UNL     1       5.641   5.376  16.448  0.00  0.00    +0.000 A 
ATOM     13  N   UNL     1       6.553   6.322  16.377  0.00  0.00    +0.000 NA
ATOM     14  N   UNL     1       7.534   5.849  15.541  0.00  0.00    +0.000 NA
ATOM     15  N   UNL     1       7.223   4.646  15.077  0.00  0.00    +0.000 NA
ATOM     16  N   UNL     1       6.043   4.355  15.642  0.00  0.00    +0.000 N 
ATOM     17  N   UNL     1       3.679   4.197  17.234  0.00  0.00    +0.000 NA
ATOM     18  C   UNL     1       2.650   4.537  17.971  0.00  0.00    +0.000 C 
ATOM     19  C   UNL     1       1.564   3.587  18.360  0.00  0.00    +0.000 C 
ATOM     20  H   UNL     1       5.555   3.500  15.414  0.00  0.00    +0.000 HD
ENDBRANCH   6   7
BRANCH   1  21
ATOM     21  O   UNL     1       0.963   8.127  21.151  0.00  0.00    +0.000 OA
BRANCH  21  23
ATOM     22  C   UNL     1       0.017   9.286  23.031  0.00  0.00    +0.000 C 
ATOM     23  C   UNL     1      -0.274   8.543  21.743  0.00  0.00    +0.000 C 
ENDBRANCH  21  23
ENDBRANCH   1  21
BRANCH   3  24
ATOM     24  N   UNL     1       1.195  12.383  18.766  0.00  0.00    +0.000 N 
BRANCH  24  25
ATOM     25  C   UNL     1      -0.157  12.900  18.480  0.00  0.00    +0.000 C 
ATOM     26  C   UNL     1      -0.778  13.614  19.668  0.00  0.00    +0.000 C 
ENDBRANCH  24  25
BRANCH  24  27
ATOM     27  C   UNL     1       2.287  13.145  18.112  0.00  0.00    +0.000 C 
ATOM     28  C   UNL     1       3.044  14.057  19.077  0.00  0.00    +0.000 C 
ENDBRANCH  24  27
ENDBRANCH   3  24
TORSDOF 6
ENDMDL
MODEL 7
REMARK VINA RESULT:      -6.1      2.892      8.083
REMARK  Name = 
REMARK  10 active torsions:
REMARK  status: ('A' for Active; 'I' for Inactive)
REMARK    1  A    between atoms: C_1  and  C_2
REMARK    2  A    between atoms: C_2  and  O_3
REMARK    3  A    between atoms: O_3  and  C_4
REMARK    4  A    between atoms: C_6  and  N_7
REMARK    5  A    between atoms: N_7  and  C_8
REMARK    6  A    between atoms: N_7  and  C_10
REMARK    7  A    between atoms: C_8  and  C_9
REMARK    8  A    between atoms: C_10  and  C_11
REMARK    9  A    between atoms: C_14  and  C_15
REMARK   10  A    between atoms: C_26  and  C_27
REMARK                            x       y       z     vdW  Elec       q    Type
REMARK                         _______ _______ _______ _____ _____    ______ ____
ROOT
ATOM      1  C   UNL     1       1.405   8.801  20.080  0.00  0.00    +0.000 A 
ATOM      2  C   UNL     1       1.331  10.202  19.988  0.00  0.00    +0.000 A 
ATOM      3  C   UNL     1       1.515  10.866  18.772  0.00  0.00    +0.000 A 
ATOM      4  C   UNL     1       1.939  10.079  17.685  0.00  0.00    +0.000 A 
ATOM      5  C   UNL     1       2.109   8.688  17.782  0.00  0.00    +0.000 A 
ATOM      6  C   UNL     1       1.817   8.033  18.977  0.00  0.00    +0.000 A 
ENDROOT
BRANCH   6   7
ATOM      7  C   UNL     1       1.801   6.561  19.052  0.00  0.00    +0.000 C 
ATOM      8  C   UNL     1       2.726   5.816  18.430  0.00  0.00    +0.000 C 
ATOM      9  C   UNL     1       3.948   6.286  17.732  0.00  0.00    +0.000 C 
ATOM     10  O   UNL     1       4.428   7.405  17.771  0.00  0.00    +0.000 OA
ATOM     11  N   UNL     1       4.370   5.133  17.071  0.00  0.00    +0.000 N 
ATOM     12  C   UNL     1       5.465   5.135  16.246  0.00  0.00    +0.000 A 
ATOM     13  N   UNL     1       6.352   6.079  16.018  0.00  0.00    +0.000 NA
ATOM     14  N   UNL     1       7.236   5.565  15.101  0.00  0.00    +0.000 NA
ATOM     15  N   UNL     1       6.886   4.337  14.743  0.00  0.00    +0.000 NA
ATOM     16  N   UNL     1       5.783   4.072  15.456  0.00  0.00    +0.000 N 
ATOM     17  N   UNL     1       3.620   3.992  17.318  0.00  0.00    +0.000 NA
ATOM     18  C   UNL     1       2.679   4.368  18.149  0.00  0.00    +0.000 C 
ATOM     19  C   UNL     1       1.657   3.435  18.713  0.00  0.00    +0.000 C 
ATOM     20  H   UNL     1       5.282   3.203  15.333  0.00  0.00    +0.000 HD
ENDBRANCH   6   7
BRANCH   1  21
ATOM     21  O   UNL     1       1.039   8.120  21.222  0.00  0.00    +0.000 OA
BRANCH  21  23
ATOM     22  C   UNL     1       0.065   9.297  23.075  0.00  0.00    +0.000 C 
ATOM     23  C   UNL     1      -0.205   8.561  21.779  0.00  0.00    +0.000 C 
ENDBRANCH  21  23
ENDBRANCH   1  21
BRANCH   3  24
ATOM     24  N   UNL     1       1.255  12.234  18.599  0.00  0.00    +0.000 N 
BRANCH  24  25
ATOM     25  C   UNL     1       2.345  13.229  18.634  0.00  0.00    +0.000 C 
ATOM     26  C   UNL     1       2.615  13.757  20.032  0.00  0.00    +0.000 C 
ENDBRANCH  24  25
BRANCH  24  27
ATOM     27  C   UNL     1      -0.004  12.691  19.237  0.00  0.00    +0.000 C 
ATOM     28  C   UNL     1      -1.233  12.487  18.353  0.00  0.00    +0.000 C 
ENDBRANCH  24  27
ENDBRANCH   3  24
TORSDOF 6
ENDMDL
MODEL 8
REMARK VINA RESULT:      -6.1      4.610      6.098
REMARK  Name = 
REMARK  10 active torsions:
REMARK  status: ('A' for Active; 'I' for Inactive)
REMARK    1  A    between atoms: C_1  and  C_2
REMARK    2  A    between atoms: C_2  and  O_3
REMARK    3  A    between atoms: O_3  and  C_4
REMARK    4  A    between atoms: C_6  and  N_7
REMARK    5  A    between atoms: N_7  and  C_8
REMARK    6  A    between atoms: N_7  and  C_10
REMARK    7  A    between atoms: C_8  and  C_9
REMARK    8  A    between atoms: C_10  and  C_11
REMARK    9  A    between atoms: C_14  and  C_15
REMARK   10  A    between atoms: C_26  and  C_27
REMARK                            x       y       z     vdW  Elec       q    Type
REMARK                         _______ _______ _______ _____ _____    ______ ____
ROOT
ATOM      1  C   UNL     1      -0.526  11.905  21.636  0.00  0.00    +0.000 A 
ATOM      2  C   UNL     1      -0.268  11.039  20.558  0.00  0.00    +0.000 A 
ATOM      3  C   UNL     1      -0.345  11.476  19.234  0.00  0.00    +0.000 A 
ATOM      4  C   UNL     1      -0.852  12.773  19.028  0.00  0.00    +0.000 A 
ATOM      5  C   UNL     1      -1.205  13.621  20.091  0.00  0.00    +0.000 A 
ATOM      6  C   UNL     1      -1.019  13.201  21.408  0.00  0.00    +0.000 A 
ENDROOT
BRANCH   6   7
ATOM      7  C   UNL     1      -1.197  14.135  22.535  0.00  0.00    +0.000 C 
ATOM      8  C   UNL     1      -2.345  14.192  23.225  0.00  0.00    +0.000 C 
ATOM      9  C   UNL     1      -3.516  13.288  23.110  0.00  0.00    +0.000 C 
ATOM     10  O   UNL     1      -3.566  12.225  22.518  0.00  0.00    +0.000 OA
ATOM     11  N   UNL     1      -4.483  13.965  23.852  0.00  0.00    +0.000 N 
ATOM     12  C   UNL     1      -5.765  13.494  23.968  0.00  0.00    +0.000 A 
ATOM     13  N   UNL     1      -6.288  12.355  23.567  0.00  0.00    +0.000 NA
ATOM     14  N   UNL     1      -7.613  12.392  23.926  0.00  0.00    +0.000 NA
ATOM     15  N   UNL     1      -7.914  13.544  24.509  0.00  0.00    +0.000 NA
ATOM     16  N   UNL     1      -6.764  14.229  24.533  0.00  0.00    +0.000 N 
ATOM     17  N   UNL     1      -4.055  15.131  24.473  0.00  0.00    +0.000 NA
ATOM     18  C   UNL     1      -2.791  15.251  24.151  0.00  0.00    +0.000 C 
ATOM     19  C   UNL     1      -1.918  16.362  24.639  0.00  0.00    +0.000 C 
ATOM     20  H   UNL     1      -6.728  15.173  24.890  0.00  0.00    +0.000 HD
ENDBRANCH   6   7
BRANCH   1  21
ATOM     21  O   UNL     1      -0.271  11.548  22.943  0.00  0.00    +0.000 OA
BRANCH  21  23
ATOM     22  C   UNL     1       0.343   9.272  23.404  0.00  0.00    +0.000 C 
ATOM     23  C   UNL     1      -0.797  10.264  23.300  0.00  0.00    +0.000 C 
ENDBRANCH  21  23
ENDBRANCH   1  21
BRANCH   3  24
ATOM     24  N   UNL     1       0.095  10.706  18.146  0.00  0.00    +0.000 N 
BRANCH  24  25
ATOM     25  C   UNL     1      -0.671   9.534  17.681  0.00  0.00    +0.000 C 
ATOM     26  C   UNL     1      -1.839   9.910  16.785  0.00  0.00    +0.000 C 
ENDBRANCH  24  25
BRANCH  24  27
ATOM     27  C   UNL     1       1.567  10.529  18.092  0.00  0.00    +0.000 C 
ATOM     28  C   UNL     1       1.989   9.072  17.911  0.00  0.00    +0.000 C 
ENDBRANCH  24  27
ENDBRANCH   3  24
TORSDOF 6
ENDMDL
MODEL 9
REMARK VINA RESULT:      -5.9      4.090      7.413
REMARK  Name = 
REMARK  10 active torsions:
REMARK  status: ('A' for Active; 'I' for Inactive)
REMARK    1  A    between atoms: C_1  and  C_2
REMARK    2  A    between atoms: C_2  and  O_3
REMARK    3  A    between atoms: O_3  and  C_4
REMARK    4  A    between atoms: C_6  and  N_7
REMARK    5  A    between atoms: N_7  and  C_8
REMARK    6  A    between atoms: N_7  and  C_10
REMARK    7  A    between atoms: C_8  and  C_9
REMARK    8  A    between atoms: C_10  and  C_11
REMARK    9  A    between atoms: C_14  and  C_15
REMARK   10  A    between atoms: C_26  and  C_27
REMARK                            x       y       z     vdW  Elec       q    Type
REMARK                         _______ _______ _______ _____ _____    ______ ____
ROOT
ATOM      1  C   UNL     1       5.700   4.036  17.864  0.00  0.00    +0.000 A 
ATOM      2  C   UNL     1       6.465   4.193  16.694  0.00  0.00    +0.000 A 
ATOM      3  C   UNL     1       5.920   3.968  15.428  0.00  0.00    +0.000 A 
ATOM      4  C   UNL     1       4.624   3.420  15.389  0.00  0.00    +0.000 A 
ATOM      5  C   UNL     1       3.878   3.168  16.552  0.00  0.00    +0.000 A 
ATOM      6  C   UNL     1       4.402   3.500  17.801  0.00  0.00    +0.000 A 
ENDROOT
BRANCH   6   7
ATOM      7  C   UNL     1       3.571   3.427  19.017  0.00  0.00    +0.000 C 
ATOM      8  C   UNL     1       2.863   4.480  19.448  0.00  0.00    +0.000 C 
ATOM      9  C   UNL     1       2.658   5.778  18.758  0.00  0.00    +0.000 C 
ATOM     10  O   UNL     1       2.929   6.041  17.600  0.00  0.00    +0.000 OA
ATOM     11  N   UNL     1       2.083   6.556  19.762  0.00  0.00    +0.000 N 
ATOM     12  C   UNL     1       1.772   7.876  19.562  0.00  0.00    +0.000 A 
ATOM     13  N   UNL     1       1.811   8.598  18.463  0.00  0.00    +0.000 NA
ATOM     14  N   UNL     1       1.407   9.862  18.817  0.00  0.00    +0.000 NA
ATOM     15  N   UNL     1       1.151   9.931  20.116  0.00  0.00    +0.000 NA
ATOM     16  N   UNL     1       1.381   8.694  20.578  0.00  0.00    +0.000 N 
ATOM     17  N   UNL     1       1.835   5.902  20.961  0.00  0.00    +0.000 NA
ATOM     18  C   UNL     1       2.246   4.671  20.775  0.00  0.00    +0.000 C 
ATOM     19  C   UNL     1       2.133   3.600  21.811  0.00  0.00    +0.000 C 
ATOM     20  H   UNL     1       1.303   8.485  21.563  0.00  0.00    +0.000 HD
ENDBRANCH   6   7
BRANCH   1  21
ATOM     21  O   UNL     1       6.158   4.435  19.102  0.00  0.00    +0.000 OA
BRANCH  21  23
ATOM     22  C   UNL     1       8.113   5.772  19.501  0.00  0.00    +0.000 C 
ATOM     23  C   UNL     1       6.646   5.782  19.125  0.00  0.00    +0.000 C 
ENDBRANCH  21  23
ENDBRANCH   1  21
BRANCH   3  24
ATOM     24  N   UNL     1       6.584   4.303  14.238  0.00  0.00    +0.000 N 
BRANCH  24  25
ATOM     25  C   UNL     1       7.509   5.451  14.176  0.00  0.00    +0.000 C 
ATOM     26  C   UNL     1       8.205   5.575  12.832  0.00  0.00    +0.000 C 
ENDBRANCH  24  25
BRANCH  24  27
ATOM     27  C   UNL     1       5.757   4.124  13.019  0.00  0.00    +0.000 C 
ATOM     28  C   UNL     1       6.159   2.900  12.196  0.00  0.00    +0.000 C 
ENDBRANCH  24  27
ENDBRANCH   3  24
TORSDOF 6
ENDMDL
