MODEL 1
REMARK VINA RESULT:      -6.9      0.000      0.000
REMARK  Name = 
REMARK  2 active torsions:
REMARK  status: ('A' for Active; 'I' for Inactive)
REMARK    1  A    between atoms: C_9  and  C_10
REMARK    2  A    between atoms: C_10  and  C_11
REMARK                            x       y       z     vdW  Elec       q    Type
REMARK                         _______ _______ _______ _____ _____    ______ ____
ROOT
ATOM      1  C   UNL     1       3.037   2.019  18.862  0.00  0.00    +0.000 A 
ATOM      2  C   UNL     1       2.503   2.618  17.719  0.00  0.00    +0.000 A 
ATOM      3  C   UNL     1       3.128   3.734  17.158  0.00  0.00    +0.000 A 
ATOM      4  C   UNL     1       4.284   4.247  17.741  0.00  0.00    +0.000 A 
ATOM      5  C   UNL     1       4.799   3.669  18.908  0.00  0.00    +0.000 A 
ATOM      6  C   UNL     1       4.184   2.547  19.459  0.00  0.00    +0.000 A 
ATOM      7  O   UNL     1       5.925   4.133  19.541  0.00  0.00    +0.000 OA
ATOM      8  C   UNL     1       6.255   5.452  19.091  0.00  0.00    +0.000 C 
ATOM      9  C   UNL     1       6.228   5.538  17.564  0.00  0.00    +0.000 C 
ATOM     10  O   UNL     1       4.883   5.300  17.096  0.00  0.00    +0.000 OA
ENDROOT
BRANCH   9  11
ATOM     11  C   UNL     1       7.183   4.571  16.853  0.00  0.00    +0.000 C 
BRANCH  11  12
ATOM     12  C   UNL     1       6.972   4.556  15.370  0.00  0.00    +0.000 C 
ATOM     13  N   UNL     1       7.653   5.336  14.568  0.00  0.00    +0.000 NA
ATOM     14  C   UNL     1       7.101   5.018  13.216  0.00  0.00    +0.000 C 
ATOM     15  C   UNL     1       6.348   3.692  13.365  0.00  0.00    +0.000 C 
ATOM     16  N   UNL     1       6.077   3.701  14.783  0.00  0.00    +0.000 N 
ATOM     17  H   UNL     1       5.877   2.820  15.244  0.00  0.00    +0.000 HD
ENDBRANCH  11  12
ENDBRANCH   9  11
TORSDOF 2
ENDMDL
MODEL 2
REMARK VINA RESULT:      -6.7      3.326      5.691
REMARK  Name = 
REMARK  2 active torsions:
REMARK  status: ('A' for Active; 'I' for Inactive)
REMARK    1  A    between atoms: C_9  and  C_10
REMARK    2  A    between atoms: C_10  and  C_11
REMARK                            x       y       z     vdW  Elec       q    Type
REMARK                         _______ _______ _______ _____ _____    ______ ____
ROOT
ATOM      1  C   UNL     1       7.999   6.699  18.772  0.00  0.00    +0.000 A 
ATOM      2  C   UNL     1       7.596   7.354  17.607  0.00  0.00    +0.000 A 
ATOM      3  C   UNL     1       6.446   6.939  16.932  0.00  0.00    +0.000 A 
ATOM      4  C   UNL     1       5.702   5.870  17.426  0.00  0.00    +0.000 A 
ATOM      5  C   UNL     1       6.125   5.189  18.573  0.00  0.00    +0.000 A 
ATOM      6  C   UNL     1       7.264   5.613  19.254  0.00  0.00    +0.000 A 
ATOM      7  O   UNL     1       5.448   4.120  19.104  0.00  0.00    +0.000 OA
ATOM      8  C   UNL     1       4.520   3.582  18.154  0.00  0.00    +0.000 C 
ATOM      9  C   UNL     1       3.682   4.690  17.513  0.00  0.00    +0.000 C 
ATOM     10  O   UNL     1       4.547   5.562  16.752  0.00  0.00    +0.000 OA
ENDROOT
BRANCH   9  11
ATOM     11  C   UNL     1       2.869   5.532  18.504  0.00  0.00    +0.000 C 
BRANCH  11  12
ATOM     12  C   UNL     1       2.264   4.698  19.592  0.00  0.00    +0.000 C 
ATOM     13  N   UNL     1       1.304   3.842  19.350  0.00  0.00    +0.000 NA
ATOM     14  C   UNL     1       0.991   3.276  20.698  0.00  0.00    +0.000 C 
ATOM     15  C   UNL     1       2.178   3.637  21.597  0.00  0.00    +0.000 C 
ATOM     16  N   UNL     1       2.712   4.773  20.885  0.00  0.00    +0.000 N 
ATOM     17  H   UNL     1       3.678   5.037  21.046  0.00  0.00    +0.000 HD
ENDBRANCH  11  12
ENDBRANCH   9  11
TORSDOF 2
ENDMDL
MODEL 3
REMARK VINA RESULT:      -6.6      2.600      3.810
REMARK  Name = 
REMARK  2 active torsions:
REMARK  status: ('A' for Active; 'I' for Inactive)
REMARK    1  A    between atoms: C_9  and  C_10
REMARK    2  A    between atoms: C_10  and  C_11
REMARK                            x       y       z     vdW  Elec       q    Type
REMARK                         _______ _______ _______ _____ _____    ______ ____
ROOT
ATOM      1  C   UNL     1       1.229   2.973  21.306  0.00  0.00    +0.000 A 
ATOM      2  C   UNL     1       2.525   2.639  21.705  0.00  0.00    +0.000 A 
ATOM      3  C   UNL     1       3.571   2.663  20.780  0.00  0.00    +0.000 A 
ATOM      4  C   UNL     1       3.317   3.023  19.458  0.00  0.00    +0.000 A 
ATOM      5  C   UNL     1       2.012   3.323  19.049  0.00  0.00    +0.000 A 
ATOM      6  C   UNL     1       0.972   3.313  19.975  0.00  0.00    +0.000 A 
ATOM      7  O   UNL     1       1.691   3.671  17.761  0.00  0.00    +0.000 OA
ATOM      8  C   UNL     1       2.750   3.322  16.860  0.00  0.00    +0.000 C 
ATOM      9  C   UNL     1       4.105   3.792  17.392  0.00  0.00    +0.000 C 
ATOM     10  O   UNL     1       4.402   3.095  18.621  0.00  0.00    +0.000 OA
ENDROOT
BRANCH   9  11
ATOM     11  C   UNL     1       4.206   5.302  17.638  0.00  0.00    +0.000 C 
BRANCH  11  12
ATOM     12  C   UNL     1       5.622   5.750  17.838  0.00  0.00    +0.000 C 
ATOM     13  N   UNL     1       6.096   6.820  17.253  0.00  0.00    +0.000 NA
ATOM     14  C   UNL     1       7.523   6.861  17.697  0.00  0.00    +0.000 C 
ATOM     15  C   UNL     1       7.619   5.922  18.904  0.00  0.00    +0.000 C 
ATOM     16  N   UNL     1       6.476   5.072  18.669  0.00  0.00    +0.000 N 
ATOM     17  H   UNL     1       6.083   4.560  19.451  0.00  0.00    +0.000 HD
ENDBRANCH  11  12
ENDBRANCH   9  11
TORSDOF 2
ENDMDL
MODEL 4
REMARK VINA RESULT:      -6.5      1.966      2.282
REMARK  Name = 
REMARK  2 active torsions:
REMARK  status: ('A' for Active; 'I' for Inactive)
REMARK    1  A    between atoms: C_9  and  C_10
REMARK    2  A    between atoms: C_10  and  C_11
REMARK                            x       y       z     vdW  Elec       q    Type
REMARK                         _______ _______ _______ _____ _____    ______ ____
ROOT
ATOM      1  C   UNL     1       0.998   2.847  19.590  0.00  0.00    +0.000 A 
ATOM      2  C   UNL     1       0.819   4.045  20.282  0.00  0.00    +0.000 A 
ATOM      3  C   UNL     1       1.853   4.983  20.338  0.00  0.00    +0.000 A 
ATOM      4  C   UNL     1       3.062   4.718  19.699  0.00  0.00    +0.000 A 
ATOM      5  C   UNL     1       3.255   3.500  19.036  0.00  0.00    +0.000 A 
ATOM      6  C   UNL     1       2.219   2.572  18.968  0.00  0.00    +0.000 A 
ATOM      7  O   UNL     1       4.425   3.169  18.399  0.00  0.00    +0.000 OA
ATOM      8  C   UNL     1       5.493   4.027  18.819  0.00  0.00    +0.000 C 
ATOM      9  C   UNL     1       5.070   5.496  18.780  0.00  0.00    +0.000 C 
ATOM     10  O   UNL     1       4.008   5.712  19.735  0.00  0.00    +0.000 OA
ENDROOT
BRANCH   9  11
ATOM     11  C   UNL     1       4.612   5.993  17.403  0.00  0.00    +0.000 C 
BRANCH  11  12
ATOM     12  C   UNL     1       5.429   5.410  16.291  0.00  0.00    +0.000 C 
ATOM     13  N   UNL     1       6.593   5.907  15.957  0.00  0.00    +0.000 NA
ATOM     14  C   UNL     1       7.021   5.057  14.805  0.00  0.00    +0.000 C 
ATOM     15  C   UNL     1       6.135   3.807  14.847  0.00  0.00    +0.000 C 
ATOM     16  N   UNL     1       5.006   4.309  15.593  0.00  0.00    +0.000 N 
ATOM     17  H   UNL     1       4.400   3.645  16.062  0.00  0.00    +0.000 HD
ENDBRANCH  11  12
ENDBRANCH   9  11
TORSDOF 2
ENDMDL
MODEL 5
REMARK VINA RESULT:      -6.5      1.855      2.182
REMARK  Name = 
REMARK  2 active torsions:
REMARK  status: ('A' for Active; 'I' for Inactive)
REMARK    1  A    between atoms: C_9  and  C_10
REMARK    2  A    between atoms: C_10  and  C_11
REMARK                            x       y       z     vdW  Elec       q    Type
REMARK                         _______ _______ _______ _____ _____    ______ ____
ROOT
ATOM      1  C   UNL     1       2.735   6.009  19.249  0.00  0.00    +0.000 A 
ATOM      2  C   UNL     1       2.742   6.992  18.258  0.00  0.00    +0.000 A 
ATOM      3  C   UNL     1       3.859   7.147  17.434  0.00  0.00    +0.000 A 
ATOM      4  C   UNL     1       4.965   6.318  17.605  0.00  0.00    +0.000 A 
ATOM      5  C   UNL     1       4.974   5.357  18.622  0.00  0.00    +0.000 A 
ATOM      6  C   UNL     1       3.854   5.193  19.434  0.00  0.00    +0.000 A 
ATOM      7  O   UNL     1       6.035   4.519  18.854  0.00  0.00    +0.000 OA
ATOM      8  C   UNL     1       7.217   5.001  18.202  0.00  0.00    +0.000 C 
ATOM      9  C   UNL     1       6.930   5.378  16.748  0.00  0.00    +0.000 C 
ATOM     10  O   UNL     1       5.998   6.480  16.715  0.00  0.00    +0.000 OA
ENDROOT
BRANCH   9  11
ATOM     11  C   UNL     1       6.380   4.233  15.888  0.00  0.00    +0.000 C 
BRANCH  11  12
ATOM     12  C   UNL     1       6.731   4.394  14.440  0.00  0.00    +0.000 C 
ATOM     13  N   UNL     1       7.576   5.308  14.033  0.00  0.00    +0.000 NA
ATOM     14  C   UNL     1       7.594   5.132  12.549  0.00  0.00    +0.000 C 
ATOM     15  C   UNL     1       6.978   3.756  12.275  0.00  0.00    +0.000 C 
ATOM     16  N   UNL     1       6.206   3.569  13.480  0.00  0.00    +0.000 N 
ATOM     17  H   UNL     1       5.942   2.627  13.746  0.00  0.00    +0.000 HD
ENDBRANCH  11  12
ENDBRANCH   9  11
TORSDOF 2
ENDMDL
MODEL 6
REMARK VINA RESULT:      -6.5      1.421      1.476
REMARK  Name = 
REMARK  2 active torsions:
REMARK  status: ('A' for Active; 'I' for Inactive)
REMARK    1  A    between atoms: C_9  and  C_10
REMARK    2  A    between atoms: C_10  and  C_11
REMARK                            x       y       z     vdW  Elec       q    Type
REMARK                         _______ _______ _______ _____ _____    ______ ____
ROOT
ATOM      1  C   UNL     1       2.723   4.576  19.320  0.00  0.00    +0.000 A 
ATOM      2  C   UNL     1       2.528   5.347  18.172  0.00  0.00    +0.000 A 
ATOM      3  C   UNL     1       3.616   5.960  17.547  0.00  0.00    +0.000 A 
ATOM      4  C   UNL     1       4.896   5.798  18.071  0.00  0.00    +0.000 A 
ATOM      5  C   UNL     1       5.088   5.056  19.242  0.00  0.00    +0.000 A 
ATOM      6  C   UNL     1       4.005   4.433  19.857  0.00  0.00    +0.000 A 
ATOM      7  O   UNL     1       6.319   4.870  19.819  0.00  0.00    +0.000 OA
ATOM      8  C   UNL     1       7.269   5.812  19.307  0.00  0.00    +0.000 C 
ATOM      9  C   UNL     1       7.217   5.874  17.780  0.00  0.00    +0.000 C 
ATOM     10  O   UNL     1       5.925   6.370  17.366  0.00  0.00    +0.000 OA
ENDROOT
BRANCH   9  11
ATOM     11  C   UNL     1       7.488   4.538  17.077  0.00  0.00    +0.000 C 
BRANCH  11  12
ATOM     12  C   UNL     1       7.075   4.563  15.636  0.00  0.00    +0.000 C 
ATOM     13  N   UNL     1       7.768   5.207  14.732  0.00  0.00    +0.000 NA
ATOM     14  C   UNL     1       6.987   4.996  13.475  0.00  0.00    +0.000 C 
ATOM     15  C   UNL     1       6.037   3.827  13.757  0.00  0.00    +0.000 C 
ATOM     16  N   UNL     1       5.969   3.884  15.197  0.00  0.00    +0.000 N 
ATOM     17  H   UNL     1       5.681   3.053  15.702  0.00  0.00    +0.000 HD
ENDBRANCH  11  12
ENDBRANCH   9  11
TORSDOF 2
ENDMDL
MODEL 7
REMARK VINA RESULT:      -6.4      1.605      1.934
REMARK  Name = 
REMARK  2 active torsions:
REMARK  status: ('A' for Active; 'I' for Inactive)
REMARK    1  A    between atoms: C_9  and  C_10
REMARK    2  A    between atoms: C_10  and  C_11
REMARK                            x       y       z     vdW  Elec       q    Type
REMARK                         _______ _______ _______ _____ _____    ______ ____
ROOT
ATOM      1  C   UNL     1       2.733   4.990  19.207  0.00  0.00    +0.000 A 
ATOM      2  C   UNL     1       2.641   5.704  18.011  0.00  0.00    +0.000 A 
ATOM      3  C   UNL     1       3.795   6.192  17.396  0.00  0.00    +0.000 A 
ATOM      4  C   UNL     1       5.039   5.965  17.980  0.00  0.00    +0.000 A 
ATOM      5  C   UNL     1       5.130   5.282  19.198  0.00  0.00    +0.000 A 
ATOM      6  C   UNL     1       3.979   4.781  19.803  0.00  0.00    +0.000 A 
ATOM      7  O   UNL     1       6.321   5.037  19.834  0.00  0.00    +0.000 OA
ATOM      8  C   UNL     1       7.360   5.871  19.308  0.00  0.00    +0.000 C 
ATOM      9  C   UNL     1       7.368   5.845  17.778  0.00  0.00    +0.000 C 
ATOM     10  O   UNL     1       6.135   6.412  17.285  0.00  0.00    +0.000 OA
ENDROOT
BRANCH   9  11
ATOM     11  C   UNL     1       7.558   4.452  17.164  0.00  0.00    +0.000 C 
BRANCH  11  12
ATOM     12  C   UNL     1       7.125   4.403  15.730  0.00  0.00    +0.000 C 
ATOM     13  N   UNL     1       6.140   3.638  15.333  0.00  0.00    +0.000 NA
ATOM     14  C   UNL     1       6.083   3.874  13.859  0.00  0.00    +0.000 C 
ATOM     15  C   UNL     1       6.882   5.157  13.602  0.00  0.00    +0.000 C 
ATOM     16  N   UNL     1       7.725   5.181  14.774  0.00  0.00    +0.000 N 
ATOM     17  H   UNL     1       8.135   6.064  15.059  0.00  0.00    +0.000 HD
ENDBRANCH  11  12
ENDBRANCH   9  11
TORSDOF 2
ENDMDL
MODEL 8
REMARK VINA RESULT:      -6.4      2.376      2.769
REMARK  Name = 
REMARK  2 active torsions:
REMARK  status: ('A' for Active; 'I' for Inactive)
REMARK    1  A    between atoms: C_9  and  C_10
REMARK    2  A    between atoms: C_10  and  C_11
REMARK                            x       y       z     vdW  Elec       q    Type
REMARK                         _______ _______ _______ _____ _____    ______ ____
ROOT
ATOM      1  C   UNL     1       1.591   3.028  21.054  0.00  0.00    +0.000 A 
ATOM      2  C   UNL     1       1.494   2.397  19.813  0.00  0.00    +0.000 A 
ATOM      3  C   UNL     1       1.792   3.101  18.644  0.00  0.00    +0.000 A 
ATOM      4  C   UNL     1       2.186   4.434  18.721  0.00  0.00    +0.000 A 
ATOM      5  C   UNL     1       2.248   5.079  19.962  0.00  0.00    +0.000 A 
ATOM      6  C   UNL     1       1.966   4.372  21.129  0.00  0.00    +0.000 A 
ATOM      7  O   UNL     1       2.615   6.393  20.107  0.00  0.00    +0.000 OA
ATOM      8  C   UNL     1       2.548   7.082  18.853  0.00  0.00    +0.000 C 
ATOM      9  C   UNL     1       3.240   6.284  17.747  0.00  0.00    +0.000 C 
ATOM     10  O   UNL     1       2.531   5.042  17.540  0.00  0.00    +0.000 OA
ENDROOT
BRANCH   9  11
ATOM     11  C   UNL     1       4.719   5.976  18.010  0.00  0.00    +0.000 C 
BRANCH  11  12
ATOM     12  C   UNL     1       5.399   5.397  16.807  0.00  0.00    +0.000 C 
ATOM     13  N   UNL     1       6.398   6.005  16.220  0.00  0.00    +0.000 NA
ATOM     14  C   UNL     1       6.731   5.107  15.073  0.00  0.00    +0.000 C 
ATOM     15  C   UNL     1       6.061   3.763  15.377  0.00  0.00    +0.000 C 
ATOM     16  N   UNL     1       5.024   4.185  16.288  0.00  0.00    +0.000 N 
ATOM     17  H   UNL     1       4.617   3.498  16.912  0.00  0.00    +0.000 HD
ENDBRANCH  11  12
ENDBRANCH   9  11
TORSDOF 2
ENDMDL
MODEL 9
REMARK VINA RESULT:      -6.4      3.330      5.644
REMARK  Name = 
REMARK  2 active torsions:
REMARK  status: ('A' for Active; 'I' for Inactive)
REMARK    1  A    between atoms: C_9  and  C_10
REMARK    2  A    between atoms: C_10  and  C_11
REMARK                            x       y       z     vdW  Elec       q    Type
REMARK                         _______ _______ _______ _____ _____    ______ ____
ROOT
ATOM      1  C   UNL     1       8.115   6.805  18.769  0.00  0.00    +0.000 A 
ATOM      2  C   UNL     1       7.647   7.567  17.698  0.00  0.00    +0.000 A 
ATOM      3  C   UNL     1       6.477   7.195  17.032  0.00  0.00    +0.000 A 
ATOM      4  C   UNL     1       5.779   6.061  17.441  0.00  0.00    +0.000 A 
ATOM      5  C   UNL     1       6.268   5.276  18.492  0.00  0.00    +0.000 A 
ATOM      6  C   UNL     1       7.426   5.656  19.165  0.00  0.00    +0.000 A 
ATOM      7  O   UNL     1       5.638   4.140  18.935  0.00  0.00    +0.000 OA
ATOM      8  C   UNL     1       4.680   3.680  17.974  0.00  0.00    +0.000 C 
ATOM      9  C   UNL     1       3.791   4.827  17.489  0.00  0.00    +0.000 C 
ATOM     10  O   UNL     1       4.602   5.796  16.789  0.00  0.00    +0.000 OA
ENDROOT
BRANCH   9  11
ATOM     11  C   UNL     1       3.006   5.539  18.597  0.00  0.00    +0.000 C 
BRANCH  11  12
ATOM     12  C   UNL     1       2.327   4.574  19.520  0.00  0.00    +0.000 C 
ATOM     13  N   UNL     1       2.572   4.562  20.806  0.00  0.00    +0.000 NA
ATOM     14  C   UNL     1       1.723   3.442  21.315  0.00  0.00    +0.000 C 
ATOM     15  C   UNL     1       0.703   3.146  20.211  0.00  0.00    +0.000 C 
ATOM     16  N   UNL     1       1.396   3.679  19.062  0.00  0.00    +0.000 N 
ATOM     17  H   UNL     1       0.855   3.924  18.240  0.00  0.00    +0.000 HD
ENDBRANCH  11  12
ENDBRANCH   9  11
TORSDOF 2
ENDMDL
