MODEL 1
REMARK VINA RESULT:      -7.6      0.000      0.000
REMARK  Name = 
REMARK  1 active torsions:
REMARK  status: ('A' for Active; 'I' for Inactive)
REMARK    1  A    between atoms: C_6  and  O_7
REMARK                            x       y       z     vdW  Elec       q    Type
REMARK                         _______ _______ _______ _____ _____    ______ ____
ROOT
ATOM      1  O   UNL     1       5.959   6.308  15.143  0.00  0.00    +0.000 OA
ATOM      2  C   UNL     1       6.465   5.847  16.167  0.00  0.00    +0.000 C 
ATOM      3  C   UNL     1       6.826   6.742  17.252  0.00  0.00    +0.000 A 
ATOM      4  C   UNL     1       6.572   8.111  17.103  0.00  0.00    +0.000 A 
ATOM      5  C   UNL     1       7.366   9.008  17.790  0.00  0.00    +0.000 A 
ATOM      6  C   UNL     1       8.368   8.507  18.616  0.00  0.00    +0.000 A 
ATOM      7  C   UNL     1       8.452   7.142  18.925  0.00  0.00    +0.000 A 
ATOM      8  C   UNL     1       7.630   6.244  18.258  0.00  0.00    +0.000 A 
ATOM      9  O   UNL     1       7.701   4.905  18.546  0.00  0.00    +0.000 OA
ATOM     10  C   UNL     1       6.919   4.024  17.721  0.00  0.00    +0.000 C 
ATOM     11  C   UNL     1       5.526   3.793  18.243  0.00  0.00    +0.000 A 
ATOM     12  N   UNL     1       5.132   3.503  19.525  0.00  0.00    +0.000 N 
ATOM     13  C   UNL     1       3.748   3.502  19.590  0.00  0.00    +0.000 A 
ATOM     14  C   UNL     1       2.876   3.311  20.670  0.00  0.00    +0.000 A 
ATOM     15  C   UNL     1       1.508   3.513  20.444  0.00  0.00    +0.000 A 
ATOM     16  C   UNL     1       1.026   3.882  19.189  0.00  0.00    +0.000 A 
ATOM     17  C   UNL     1       1.894   3.983  18.103  0.00  0.00    +0.000 A 
ATOM     18  C   UNL     1       3.269   3.768  18.304  0.00  0.00    +0.000 A 
ATOM     19  C   UNL     1       4.387   3.738  17.448  0.00  0.00    +0.000 A 
ATOM     20  C   UNL     1       4.444   3.784  15.949  0.00  0.00    +0.000 C 
ATOM     21  C   UNL     1       5.921   3.644  15.500  0.00  0.00    +0.000 C 
ATOM     22  N   UNL     1       6.752   4.498  16.348  0.00  0.00    +0.000 N 
ATOM     23  H   UNL     1       5.743   3.367  20.320  0.00  0.00    +0.000 HD
ENDROOT
BRANCH   6  24
ATOM     24  O   UNL     1       9.343   9.348  19.071  0.00  0.00    +0.000 OA
ATOM     25  H   UNL     1       9.121   9.559  19.998  0.00  0.00    +0.000 HD
ENDBRANCH   6  24
TORSDOF 1
ENDMDL
MODEL 2
REMARK VINA RESULT:      -7.4      9.826     11.524
REMARK  Name = 
REMARK  1 active torsions:
REMARK  status: ('A' for Active; 'I' for Inactive)
REMARK    1  A    between atoms: C_6  and  O_7
REMARK                            x       y       z     vdW  Elec       q    Type
REMARK                         _______ _______ _______ _____ _____    ______ ____
ROOT
ATOM      1  O   UNL     1      -1.692  12.996  23.477  0.00  0.00    +0.000 OA
ATOM      2  C   UNL     1      -1.346  12.679  22.338  0.00  0.00    +0.000 C 
ATOM      3  C   UNL     1      -0.897  11.323  22.078  0.00  0.00    +0.000 A 
ATOM      4  C   UNL     1      -0.885  10.407  23.137  0.00  0.00    +0.000 A 
ATOM      5  C   UNL     1       0.014   9.360  23.094  0.00  0.00    +0.000 A 
ATOM      6  C   UNL     1       0.852   9.252  21.989  0.00  0.00    +0.000 A 
ATOM      7  C   UNL     1       0.665  10.040  20.845  0.00  0.00    +0.000 A 
ATOM      8  C   UNL     1      -0.264  11.073  20.876  0.00  0.00    +0.000 A 
ATOM      9  O   UNL     1      -0.457  11.856  19.768  0.00  0.00    +0.000 OA
ATOM     10  C   UNL     1      -1.333  12.986  19.920  0.00  0.00    +0.000 C 
ATOM     11  C   UNL     1      -2.776  12.670  19.624  0.00  0.00    +0.000 A 
ATOM     12  N   UNL     1      -3.297  11.972  18.565  0.00  0.00    +0.000 N 
ATOM     13  C   UNL     1      -4.659  11.802  18.754  0.00  0.00    +0.000 A 
ATOM     14  C   UNL     1      -5.618  11.126  17.989  0.00  0.00    +0.000 A 
ATOM     15  C   UNL     1      -6.910  11.008  18.522  0.00  0.00    +0.000 A 
ATOM     16  C   UNL     1      -7.234  11.551  19.764  0.00  0.00    +0.000 A 
ATOM     17  C   UNL     1      -6.295  12.297  20.474  0.00  0.00    +0.000 A 
ATOM     18  C   UNL     1      -4.999  12.442  19.949  0.00  0.00    +0.000 A 
ATOM     19  C   UNL     1      -3.852  13.149  20.363  0.00  0.00    +0.000 A 
ATOM     20  C   UNL     1      -3.692  14.142  21.476  0.00  0.00    +0.000 C 
ATOM     21  C   UNL     1      -2.240  14.684  21.458  0.00  0.00    +0.000 C 
ATOM     22  N   UNL     1      -1.323  13.562  21.263  0.00  0.00    +0.000 N 
ATOM     23  H   UNL     1      -2.774  11.585  17.791  0.00  0.00    +0.000 HD
ENDROOT
BRANCH   6  24
ATOM     24  O   UNL     1       1.933   8.421  22.048  0.00  0.00    +0.000 OA
ATOM     25  H   UNL     1       2.714   8.960  21.818  0.00  0.00    +0.000 HD
ENDBRANCH   6  24
TORSDOF 1
ENDMDL
MODEL 3
REMARK VINA RESULT:      -7.3      7.882      9.458
REMARK  Name = 
REMARK  1 active torsions:
REMARK  status: ('A' for Active; 'I' for Inactive)
REMARK    1  A    between atoms: C_6  and  O_7
REMARK                            x       y       z     vdW  Elec       q    Type
REMARK                         _______ _______ _______ _____ _____    ______ ____
ROOT
ATOM      1  O   UNL     1       0.483  10.933  22.211  0.00  0.00    +0.000 OA
ATOM      2  C   UNL     1       0.736  10.817  21.012  0.00  0.00    +0.000 C 
ATOM      3  C   UNL     1       0.865   9.491  20.433  0.00  0.00    +0.000 A 
ATOM      4  C   UNL     1       0.681   8.378  21.264  0.00  0.00    +0.000 A 
ATOM      5  C   UNL     1       1.321   7.199  20.937  0.00  0.00    +0.000 A 
ATOM      6  C   UNL     1       2.100   7.166  19.784  0.00  0.00    +0.000 A 
ATOM      7  C   UNL     1       2.083   8.215  18.854  0.00  0.00    +0.000 A 
ATOM      8  C   UNL     1       1.411   9.389  19.169  0.00  0.00    +0.000 A 
ATOM      9  O   UNL     1       1.386  10.427  18.273  0.00  0.00    +0.000 OA
ATOM     10  C   UNL     1       0.789  11.655  18.724  0.00  0.00    +0.000 C 
ATOM     11  C   UNL     1      -0.691  11.736  18.456  0.00  0.00    +0.000 A 
ATOM     12  N   UNL     1      -1.369  11.427  17.304  0.00  0.00    +0.000 N 
ATOM     13  C   UNL     1      -2.731  11.518  17.536  0.00  0.00    +0.000 A 
ATOM     14  C   UNL     1      -3.827  11.259  16.703  0.00  0.00    +0.000 A 
ATOM     15  C   UNL     1      -5.105  11.306  17.277  0.00  0.00    +0.000 A 
ATOM     16  C   UNL     1      -5.285  11.609  18.625  0.00  0.00    +0.000 A 
ATOM     17  C   UNL     1      -4.193  11.952  19.421  0.00  0.00    +0.000 A 
ATOM     18  C   UNL     1      -2.904  11.927  18.861  0.00  0.00    +0.000 A 
ATOM     19  C   UNL     1      -1.623  12.256  19.348  0.00  0.00    +0.000 A 
ATOM     20  C   UNL     1      -1.230  12.911  20.639  0.00  0.00    +0.000 C 
ATOM     21  C   UNL     1       0.306  13.115  20.650  0.00  0.00    +0.000 C 
ATOM     22  N   UNL     1       0.945  11.894  20.157  0.00  0.00    +0.000 N 
ATOM     23  H   UNL     1      -0.955  11.122  16.433  0.00  0.00    +0.000 HD
ENDROOT
BRANCH   6  24
ATOM     24  O   UNL     1       2.967   6.129  19.592  0.00  0.00    +0.000 OA
ATOM     25  H   UNL     1       2.516   5.491  19.006  0.00  0.00    +0.000 HD
ENDBRANCH   6  24
TORSDOF 1
ENDMDL
MODEL 4
REMARK VINA RESULT:      -7.1      9.157     10.822
REMARK  Name = 
REMARK  1 active torsions:
REMARK  status: ('A' for Active; 'I' for Inactive)
REMARK    1  A    between atoms: C_6  and  O_7
REMARK                            x       y       z     vdW  Elec       q    Type
REMARK                         _______ _______ _______ _____ _____    ______ ____
ROOT
ATOM      1  O   UNL     1      -0.722  12.183  22.801  0.00  0.00    +0.000 OA
ATOM      2  C   UNL     1      -0.578  11.972  21.596  0.00  0.00    +0.000 C 
ATOM      3  C   UNL     1      -0.283  10.627  21.135  0.00  0.00    +0.000 A 
ATOM      4  C   UNL     1      -0.185   9.601  22.084  0.00  0.00    +0.000 A 
ATOM      5  C   UNL     1       0.611   8.511  21.796  0.00  0.00    +0.000 A 
ATOM      6  C   UNL     1       1.261   8.472  20.567  0.00  0.00    +0.000 A 
ATOM      7  C   UNL     1       0.967   9.391  19.550  0.00  0.00    +0.000 A 
ATOM      8  C   UNL     1       0.139  10.470  19.830  0.00  0.00    +0.000 A 
ATOM      9  O   UNL     1      -0.156  11.381  18.849  0.00  0.00    +0.000 OA
ATOM     10  C   UNL     1      -0.906  12.541  19.249  0.00  0.00    +0.000 C 
ATOM     11  C   UNL     1      -2.398  12.352  19.156  0.00  0.00    +0.000 A 
ATOM     12  N   UNL     1      -3.127  11.809  18.129  0.00  0.00    +0.000 N 
ATOM     13  C   UNL     1      -4.454  11.706  18.514  0.00  0.00    +0.000 A 
ATOM     14  C   UNL     1      -5.568  11.181  17.847  0.00  0.00    +0.000 A 
ATOM     15  C   UNL     1      -6.769  11.087  18.564  0.00  0.00    +0.000 A 
ATOM     16  C   UNL     1      -6.859  11.510  19.890  0.00  0.00    +0.000 A 
ATOM     17  C   UNL     1      -5.766  12.112  20.511  0.00  0.00    +0.000 A 
ATOM     18  C   UNL     1      -4.557  12.231  19.805  0.00  0.00    +0.000 A 
ATOM     19  C   UNL     1      -3.308  12.814  20.099  0.00  0.00    +0.000 A 
ATOM     20  C   UNL     1      -2.903  13.667  21.266  0.00  0.00    +0.000 C 
ATOM     21  C   UNL     1      -1.432  14.115  21.071  0.00  0.00    +0.000 C 
ATOM     22  N   UNL     1      -0.647  12.964  20.624  0.00  0.00    +0.000 N 
ATOM     23  H   UNL     1      -2.759  11.477  17.247  0.00  0.00    +0.000 HD
ENDROOT
BRANCH   6  24
ATOM     24  O   UNL     1       2.269   7.572  20.371  0.00  0.00    +0.000 OA
ATOM     25  H   UNL     1       2.366   7.073  21.205  0.00  0.00    +0.000 HD
ENDBRANCH   6  24
TORSDOF 1
ENDMDL
MODEL 5
REMARK VINA RESULT:      -6.7      7.814      9.184
REMARK  Name = 
REMARK  1 active torsions:
REMARK  status: ('A' for Active; 'I' for Inactive)
REMARK    1  A    between atoms: C_6  and  O_7
REMARK                            x       y       z     vdW  Elec       q    Type
REMARK                         _______ _______ _______ _____ _____    ______ ____
ROOT
ATOM      1  O   UNL     1       0.346  13.501  22.338  0.00  0.00    +0.000 OA
ATOM      2  C   UNL     1       0.399  13.536  21.108  0.00  0.00    +0.000 C 
ATOM      3  C   UNL     1       1.583  14.070  20.458  0.00  0.00    +0.000 A 
ATOM      4  C   UNL     1       2.641  14.519  21.258  0.00  0.00    +0.000 A 
ATOM      5  C   UNL     1       3.474  15.500  20.759  0.00  0.00    +0.000 A 
ATOM      6  C   UNL     1       3.237  15.981  19.476  0.00  0.00    +0.000 A 
ATOM      7  C   UNL     1       2.322  15.358  18.615  0.00  0.00    +0.000 A 
ATOM      8  C   UNL     1       1.506  14.348  19.107  0.00  0.00    +0.000 A 
ATOM      9  O   UNL     1       0.603  13.731  18.281  0.00  0.00    +0.000 OA
ATOM     10  C   UNL     1      -0.298  12.792  18.894  0.00  0.00    +0.000 C 
ATOM     11  C   UNL     1       0.235  11.384  18.928  0.00  0.00    +0.000 A 
ATOM     12  N   UNL     1       0.837  10.674  17.920  0.00  0.00    +0.000 N 
ATOM     13  C   UNL     1       1.293   9.465  18.421  0.00  0.00    +0.000 A 
ATOM     14  C   UNL     1       2.005   8.425  17.809  0.00  0.00    +0.000 A 
ATOM     15  C   UNL     1       2.454   7.378  18.626  0.00  0.00    +0.000 A 
ATOM     16  C   UNL     1       2.195   7.363  19.995  0.00  0.00    +0.000 A 
ATOM     17  C   UNL     1       1.410   8.359  20.574  0.00  0.00    +0.000 A 
ATOM     18  C   UNL     1       0.936   9.410  19.770  0.00  0.00    +0.000 A 
ATOM     19  C   UNL     1       0.100  10.519  20.008  0.00  0.00    +0.000 A 
ATOM     20  C   UNL     1      -0.709  10.862  21.224  0.00  0.00    +0.000 C 
ATOM     21  C   UNL     1      -1.515  12.156  20.940  0.00  0.00    +0.000 C 
ATOM     22  N   UNL     1      -0.636  13.120  20.278  0.00  0.00    +0.000 N 
ATOM     23  H   UNL     1       0.984  10.994  16.972  0.00  0.00    +0.000 HD
ENDROOT
BRANCH   6  24
ATOM     24  O   UNL     1       3.844  17.135  19.070  0.00  0.00    +0.000 OA
ATOM     25  H   UNL     1       4.367  16.912  18.277  0.00  0.00    +0.000 HD
ENDBRANCH   6  24
TORSDOF 1
ENDMDL
MODEL 6
REMARK VINA RESULT:      -6.7      9.292     10.635
REMARK  Name = 
REMARK  1 active torsions:
REMARK  status: ('A' for Active; 'I' for Inactive)
REMARK    1  A    between atoms: C_6  and  O_7
REMARK                            x       y       z     vdW  Elec       q    Type
REMARK                         _______ _______ _______ _____ _____    ______ ____
ROOT
ATOM      1  O   UNL     1       1.827  12.255  19.979  0.00  0.00    +0.000 OA
ATOM      2  C   UNL     1       0.760  12.845  20.147  0.00  0.00    +0.000 C 
ATOM      3  C   UNL     1       0.555  14.143  19.528  0.00  0.00    +0.000 A 
ATOM      4  C   UNL     1       1.583  14.679  18.741  0.00  0.00    +0.000 A 
ATOM      5  C   UNL     1       1.676  16.051  18.624  0.00  0.00    +0.000 A 
ATOM      6  C   UNL     1       0.730  16.837  19.275  0.00  0.00    +0.000 A 
ATOM      7  C   UNL     1      -0.414  16.277  19.861  0.00  0.00    +0.000 A 
ATOM      8  C   UNL     1      -0.524  14.895  19.949  0.00  0.00    +0.000 A 
ATOM      9  O   UNL     1      -1.634  14.330  20.522  0.00  0.00    +0.000 OA
ATOM     10  C   UNL     1      -1.613  12.903  20.700  0.00  0.00    +0.000 C 
ATOM     11  C   UNL     1      -2.160  12.144  19.519  0.00  0.00    +0.000 A 
ATOM     12  N   UNL     1      -3.307  12.385  18.806  0.00  0.00    +0.000 N 
ATOM     13  C   UNL     1      -3.359  11.526  17.720  0.00  0.00    +0.000 A 
ATOM     14  C   UNL     1      -4.291  11.412  16.681  0.00  0.00    +0.000 A 
ATOM     15  C   UNL     1      -3.992  10.529  15.634  0.00  0.00    +0.000 A 
ATOM     16  C   UNL     1      -2.814   9.783  15.627  0.00  0.00    +0.000 A 
ATOM     17  C   UNL     1      -1.939   9.841  16.710  0.00  0.00    +0.000 A 
ATOM     18  C   UNL     1      -2.228  10.708  17.779  0.00  0.00    +0.000 A 
ATOM     19  C   UNL     1      -1.609  10.971  19.017  0.00  0.00    +0.000 A 
ATOM     20  C   UNL     1      -0.466  10.262  19.683  0.00  0.00    +0.000 C 
ATOM     21  C   UNL     1      -0.222  10.903  21.073  0.00  0.00    +0.000 C 
ATOM     22  N   UNL     1      -0.278  12.358  20.935  0.00  0.00    +0.000 N 
ATOM     23  H   UNL     1      -3.986  13.109  18.997  0.00  0.00    +0.000 HD
ENDROOT
BRANCH   6  24
ATOM     24  O   UNL     1       0.958  18.175  19.423  0.00  0.00    +0.000 OA
ATOM     25  H   UNL     1       0.282  18.508  20.043  0.00  0.00    +0.000 HD
ENDBRANCH   6  24
TORSDOF 1
ENDMDL
MODEL 7
REMARK VINA RESULT:      -6.6      8.306      9.448
REMARK  Name = 
REMARK  1 active torsions:
REMARK  status: ('A' for Active; 'I' for Inactive)
REMARK    1  A    between atoms: C_6  and  O_7
REMARK                            x       y       z     vdW  Elec       q    Type
REMARK                         _______ _______ _______ _____ _____    ______ ____
ROOT
ATOM      1  O   UNL     1       2.641  11.427  17.918  0.00  0.00    +0.000 OA
ATOM      2  C   UNL     1       1.879  11.830  18.797  0.00  0.00    +0.000 C 
ATOM      3  C   UNL     1       1.629  13.254  18.931  0.00  0.00    +0.000 A 
ATOM      4  C   UNL     1       2.259  14.130  18.038  0.00  0.00    +0.000 A 
ATOM      5  C   UNL     1       2.511  15.424  18.450  0.00  0.00    +0.000 A 
ATOM      6  C   UNL     1       2.106  15.802  19.726  0.00  0.00    +0.000 A 
ATOM      7  C   UNL     1       1.279  14.984  20.508  0.00  0.00    +0.000 A 
ATOM      8  C   UNL     1       0.998  13.694  20.078  0.00  0.00    +0.000 A 
ATOM      9  O   UNL     1       0.194  12.878  20.831  0.00  0.00    +0.000 OA
ATOM     10  C   UNL     1       0.060  11.516  20.390  0.00  0.00    +0.000 C 
ATOM     11  C   UNL     1      -1.078  11.307  19.426  0.00  0.00    +0.000 A 
ATOM     12  N   UNL     1      -2.367  11.767  19.515  0.00  0.00    +0.000 N 
ATOM     13  C   UNL     1      -3.046  11.455  18.348  0.00  0.00    +0.000 A 
ATOM     14  C   UNL     1      -4.353  11.745  17.937  0.00  0.00    +0.000 A 
ATOM     15  C   UNL     1      -4.710  11.414  16.623  0.00  0.00    +0.000 A 
ATOM     16  C   UNL     1      -3.803  10.808  15.755  0.00  0.00    +0.000 A 
ATOM     17  C   UNL     1      -2.534  10.444  16.205  0.00  0.00    +0.000 A 
ATOM     18  C   UNL     1      -2.162  10.752  17.525  0.00  0.00    +0.000 A 
ATOM     19  C   UNL     1      -1.014  10.493  18.301  0.00  0.00    +0.000 A 
ATOM     20  C   UNL     1       0.174   9.631  17.990  0.00  0.00    +0.000 C 
ATOM     21  C   UNL     1       1.123   9.628  19.216  0.00  0.00    +0.000 C 
ATOM     22  N   UNL     1       1.249  10.996  19.716  0.00  0.00    +0.000 N 
ATOM     23  H   UNL     1      -2.758  12.302  20.280  0.00  0.00    +0.000 HD
ENDROOT
BRANCH   6  24
ATOM     24  O   UNL     1       2.591  16.959  20.267  0.00  0.00    +0.000 OA
ATOM     25  H   UNL     1       2.711  16.793  21.221  0.00  0.00    +0.000 HD
ENDBRANCH   6  24
TORSDOF 1
ENDMDL
MODEL 8
REMARK VINA RESULT:      -6.5      4.137      6.234
REMARK  Name = 
REMARK  1 active torsions:
REMARK  status: ('A' for Active; 'I' for Inactive)
REMARK    1  A    between atoms: C_6  and  O_7
REMARK                            x       y       z     vdW  Elec       q    Type
REMARK                         _______ _______ _______ _____ _____    ______ ____
ROOT
ATOM      1  O   UNL     1       1.621   5.444  21.166  0.00  0.00    +0.000 OA
ATOM      2  C   UNL     1       1.701   6.138  20.152  0.00  0.00    +0.000 C 
ATOM      3  C   UNL     1       1.695   7.585  20.273  0.00  0.00    +0.000 A 
ATOM      4  C   UNL     1       1.612   8.149  21.553  0.00  0.00    +0.000 A 
ATOM      5  C   UNL     1       1.050   9.403  21.684  0.00  0.00    +0.000 A 
ATOM      6  C   UNL     1       0.614  10.058  20.537  0.00  0.00    +0.000 A 
ATOM      7  C   UNL     1       0.916   9.575  19.255  0.00  0.00    +0.000 A 
ATOM      8  C   UNL     1       1.512   8.327  19.123  0.00  0.00    +0.000 A 
ATOM      9  O   UNL     1       1.811   7.838  17.878  0.00  0.00    +0.000 OA
ATOM     10  C   UNL     1       2.299   6.487  17.815  0.00  0.00    +0.000 C 
ATOM     11  C   UNL     1       3.798   6.385  17.927  0.00  0.00    +0.000 A 
ATOM     12  N   UNL     1       4.754   7.126  17.281  0.00  0.00    +0.000 N 
ATOM     13  C   UNL     1       6.005   6.792  17.776  0.00  0.00    +0.000 A 
ATOM     14  C   UNL     1       7.277   7.295  17.479  0.00  0.00    +0.000 A 
ATOM     15  C   UNL     1       8.351   6.848  18.261  0.00  0.00    +0.000 A 
ATOM     16  C   UNL     1       8.166   5.929  19.292  0.00  0.00    +0.000 A 
ATOM     17  C   UNL     1       6.909   5.369  19.518  0.00  0.00    +0.000 A 
ATOM     18  C   UNL     1       5.821   5.792  18.734  0.00  0.00    +0.000 A 
ATOM     19  C   UNL     1       4.466   5.411  18.660  0.00  0.00    +0.000 A 
ATOM     20  C   UNL     1       3.756   4.270  19.328  0.00  0.00    +0.000 C 
ATOM     21  C   UNL     1       2.282   4.250  18.850  0.00  0.00    +0.000 C 
ATOM     22  N   UNL     1       1.766   5.619  18.863  0.00  0.00    +0.000 N 
ATOM     23  H   UNL     1       4.585   7.847  16.592  0.00  0.00    +0.000 HD
ENDROOT
BRANCH   6  24
ATOM     24  O   UNL     1      -0.198  11.149  20.656  0.00  0.00    +0.000 OA
ATOM     25  H   UNL     1       0.262  11.890  20.217  0.00  0.00    +0.000 HD
ENDBRANCH   6  24
TORSDOF 1
ENDMDL
MODEL 9
REMARK VINA RESULT:      -6.2     10.328     11.908
REMARK  Name = 
REMARK  1 active torsions:
REMARK  status: ('A' for Active; 'I' for Inactive)
REMARK    1  A    between atoms: C_6  and  O_7
REMARK                            x       y       z     vdW  Elec       q    Type
REMARK                         _______ _______ _______ _____ _____    ______ ____
ROOT
ATOM      1  O   UNL     1      -0.610  11.160  23.092  0.00  0.00    +0.000 OA
ATOM      2  C   UNL     1      -0.626  11.985  22.178  0.00  0.00    +0.000 C 
ATOM      3  C   UNL     1      -0.445  11.538  20.808  0.00  0.00    +0.000 A 
ATOM      4  C   UNL     1      -0.271  10.169  20.568  0.00  0.00    +0.000 A 
ATOM      5  C   UNL     1       0.439   9.780  19.450  0.00  0.00    +0.000 A 
ATOM      6  C   UNL     1       0.929  10.767  18.601  0.00  0.00    +0.000 A 
ATOM      7  C   UNL     1       0.548  12.110  18.737  0.00  0.00    +0.000 A 
ATOM      8  C   UNL     1      -0.195  12.495  19.845  0.00  0.00    +0.000 A 
ATOM      9  O   UNL     1      -0.573  13.804  19.996  0.00  0.00    +0.000 OA
ATOM     10  C   UNL     1      -1.221  14.151  21.232  0.00  0.00    +0.000 C 
ATOM     11  C   UNL     1      -2.718  13.998  21.188  0.00  0.00    +0.000 A 
ATOM     12  N   UNL     1      -3.591  14.414  20.215  0.00  0.00    +0.000 N 
ATOM     13  C   UNL     1      -4.863  13.951  20.513  0.00  0.00    +0.000 A 
ATOM     14  C   UNL     1      -6.072  14.068  19.815  0.00  0.00    +0.000 A 
ATOM     15  C   UNL     1      -7.177  13.360  20.307  0.00  0.00    +0.000 A 
ATOM     16  C   UNL     1      -7.084  12.575  21.455  0.00  0.00    +0.000 A 
ATOM     17  C   UNL     1      -5.899  12.540  22.189  0.00  0.00    +0.000 A 
ATOM     18  C   UNL     1      -4.783  13.256  21.722  0.00  0.00    +0.000 A 
ATOM     19  C   UNL     1      -3.485  13.476  22.224  0.00  0.00    +0.000 A 
ATOM     20  C   UNL     1      -2.904  13.118  23.561  0.00  0.00    +0.000 C 
ATOM     21  C   UNL     1      -1.452  13.655  23.635  0.00  0.00    +0.000 C 
ATOM     22  N   UNL     1      -0.776  13.354  22.374  0.00  0.00    +0.000 N 
ATOM     23  H   UNL     1      -3.349  14.927  19.378  0.00  0.00    +0.000 HD
ENDROOT
BRANCH   6  24
ATOM     24  O   UNL     1       1.868  10.440  17.665  0.00  0.00    +0.000 OA
ATOM     25  H   UNL     1       2.740  10.596  18.077  0.00  0.00    +0.000 HD
ENDBRANCH   6  24
TORSDOF 1
ENDMDL
