MODEL 1
REMARK VINA RESULT:      -8.2      0.000      0.000
REMARK  Name = 
REMARK  9 active torsions:
REMARK  status: ('A' for Active; 'I' for Inactive)
REMARK    1  A    between atoms: C_1  and  C_2
REMARK    2  A    between atoms: C_2  and  O_3
REMARK    3  A    between atoms: O_3  and  C_4
REMARK    4  A    between atoms: C_9  and  N_10
REMARK    5  A    between atoms: C_11  and  C_13
REMARK    6  A    between atoms: C_13  and  O_14
REMARK    7  A    between atoms: C_13  and  C_20
REMARK    8  A    between atoms: O_14  and  C_15
REMARK    9  A    between atoms: C_15  and  C_17
REMARK                            x       y       z     vdW  Elec       q    Type
REMARK                         _______ _______ _______ _____ _____    ______ ____
ROOT
ATOM      1  N   UNL     1       4.499   4.233  18.528  0.00  0.00    +0.000 N 
ATOM      2  C   UNL     1       4.396   4.160  17.137  0.00  0.00    +0.000 C 
ATOM      3  O   UNL     1       3.404   3.798  16.514  0.00  0.00    +0.000 OA
ATOM      4  H   UNL     1       5.413   4.477  18.855  0.00  0.00    +0.000 HD
ENDROOT
BRANCH   1  10
ATOM      5  C   UNL     1       2.311   4.742  19.621  0.00  0.00    +0.000 A 
ATOM      6  C   UNL     1       1.356   4.390  20.596  0.00  0.00    +0.000 A 
ATOM      7  C   UNL     1       1.525   3.279  21.420  0.00  0.00    +0.000 A 
ATOM      8  C   UNL     1       2.666   2.504  21.280  0.00  0.00    +0.000 A 
ATOM      9  C   UNL     1       3.640   2.853  20.339  0.00  0.00    +0.000 A 
ATOM     10  C   UNL     1       3.494   3.970  19.496  0.00  0.00    +0.000 A 
BRANCH   5  11
ATOM     11  O   UNL     1       1.891   5.860  18.938  0.00  0.00    +0.000 OA
BRANCH  11  13
ATOM     12  C   UNL     1       2.896   7.797  17.904  0.00  0.00    +0.000 C 
ATOM     13  C   UNL     1       2.511   7.103  19.192  0.00  0.00    +0.000 C 
ENDBRANCH  11  13
ENDBRANCH   5  11
ENDBRANCH   1  10
BRANCH   2  14
ATOM     14  C   UNL     1       5.739   4.492  16.402  0.00  0.00    +0.000 C 
BRANCH  14  15
ATOM     15  C   UNL     1       6.587   5.490  17.196  0.00  0.00    +0.000 A 
ATOM     16  C   UNL     1       6.556   6.866  16.916  0.00  0.00    +0.000 A 
ATOM     17  C   UNL     1       7.344   7.768  17.649  0.00  0.00    +0.000 A 
ATOM     18  C   UNL     1       8.167   7.309  18.670  0.00  0.00    +0.000 A 
ATOM     19  C   UNL     1       8.201   5.951  18.975  0.00  0.00    +0.000 A 
ATOM     20  C   UNL     1       7.410   5.057  18.247  0.00  0.00    +0.000 A 
ENDBRANCH  14  15
BRANCH  14  21
ATOM     21  O   UNL     1       5.587   5.046  15.082  0.00  0.00    +0.000 OA
BRANCH  21  22
ATOM     22  C   UNL     1       6.580   4.723  14.214  0.00  0.00    +0.000 C 
ATOM     23  O   UNL     1       7.651   5.300  14.110  0.00  0.00    +0.000 OA
BRANCH  22  24
ATOM     24  C   UNL     1       6.240   3.504  13.440  0.00  0.00    +0.000 C 
ATOM     25  C   UNL     1       5.151   3.511  12.390  0.00  0.00    +0.000 C 
ATOM     26  C   UNL     1       6.591   3.440  11.971  0.00  0.00    +0.000 C 
ENDBRANCH  22  24
ENDBRANCH  21  22
ENDBRANCH  14  21
ENDBRANCH   2  14
TORSDOF 8
ENDMDL
MODEL 2
REMARK VINA RESULT:      -7.8      1.229      1.366
REMARK  Name = 
REMARK  9 active torsions:
REMARK  status: ('A' for Active; 'I' for Inactive)
REMARK    1  A    between atoms: C_1  and  C_2
REMARK    2  A    between atoms: C_2  and  O_3
REMARK    3  A    between atoms: O_3  and  C_4
REMARK    4  A    between atoms: C_9  and  N_10
REMARK    5  A    between atoms: C_11  and  C_13
REMARK    6  A    between atoms: C_13  and  O_14
REMARK    7  A    between atoms: C_13  and  C_20
REMARK    8  A    between atoms: O_14  and  C_15
REMARK    9  A    between atoms: C_15  and  C_17
REMARK                            x       y       z     vdW  Elec       q    Type
REMARK                         _______ _______ _______ _____ _____    ______ ____
ROOT
ATOM      1  N   UNL     1       4.249   4.148  17.904  0.00  0.00    +0.000 N 
ATOM      2  C   UNL     1       4.477   5.266  17.098  0.00  0.00    +0.000 C 
ATOM      3  O   UNL     1       3.639   6.106  16.793  0.00  0.00    +0.000 OA
ATOM      4  H   UNL     1       5.036   3.534  17.978  0.00  0.00    +0.000 HD
ENDROOT
BRANCH   1  10
ATOM      5  C   UNL     1       2.450   4.573  19.583  0.00  0.00    +0.000 A 
ATOM      6  C   UNL     1       1.246   4.139  20.176  0.00  0.00    +0.000 A 
ATOM      7  C   UNL     1       0.612   2.966  19.772  0.00  0.00    +0.000 A 
ATOM      8  C   UNL     1       1.183   2.204  18.764  0.00  0.00    +0.000 A 
ATOM      9  C   UNL     1       2.392   2.601  18.184  0.00  0.00    +0.000 A 
ATOM     10  C   UNL     1       3.053   3.779  18.574  0.00  0.00    +0.000 A 
BRANCH   5  11
ATOM     11  O   UNL     1       2.848   5.762  20.150  0.00  0.00    +0.000 OA
BRANCH  11  13
ATOM     12  C   UNL     1       1.607   7.708  20.860  0.00  0.00    +0.000 C 
ATOM     13  C   UNL     1       2.263   6.970  19.713  0.00  0.00    +0.000 C 
ENDBRANCH  11  13
ENDBRANCH   5  11
ENDBRANCH   1  10
BRANCH   2  14
ATOM     14  C   UNL     1       5.925   5.311  16.501  0.00  0.00    +0.000 C 
BRANCH  14  15
ATOM     15  C   UNL     1       6.840   6.236  17.309  0.00  0.00    +0.000 A 
ATOM     16  C   UNL     1       7.038   7.577  16.942  0.00  0.00    +0.000 A 
ATOM     17  C   UNL     1       7.886   8.411  17.689  0.00  0.00    +0.000 A 
ATOM     18  C   UNL     1       8.541   7.919  18.811  0.00  0.00    +0.000 A 
ATOM     19  C   UNL     1       8.347   6.598  19.202  0.00  0.00    +0.000 A 
ATOM     20  C   UNL     1       7.497   5.772  18.460  0.00  0.00    +0.000 A 
ENDBRANCH  14  15
BRANCH  14  21
ATOM     21  O   UNL     1       6.003   5.753  15.134  0.00  0.00    +0.000 OA
BRANCH  21  22
ATOM     22  C   UNL     1       6.902   5.078  14.371  0.00  0.00    +0.000 C 
ATOM     23  O   UNL     1       8.062   5.405  14.180  0.00  0.00    +0.000 OA
BRANCH  22  24
ATOM     24  C   UNL     1       6.320   3.817  13.848  0.00  0.00    +0.000 C 
ATOM     25  C   UNL     1       5.079   3.817  12.984  0.00  0.00    +0.000 C 
ATOM     26  C   UNL     1       6.415   3.518  12.369  0.00  0.00    +0.000 C 
ENDBRANCH  22  24
ENDBRANCH  21  22
ENDBRANCH  14  21
ENDBRANCH   2  14
TORSDOF 8
ENDMDL
MODEL 3
REMARK VINA RESULT:      -7.6      2.043      4.299
REMARK  Name = 
REMARK  9 active torsions:
REMARK  status: ('A' for Active; 'I' for Inactive)
REMARK    1  A    between atoms: C_1  and  C_2
REMARK    2  A    between atoms: C_2  and  O_3
REMARK    3  A    between atoms: O_3  and  C_4
REMARK    4  A    between atoms: C_9  and  N_10
REMARK    5  A    between atoms: C_11  and  C_13
REMARK    6  A    between atoms: C_13  and  O_14
REMARK    7  A    between atoms: C_13  and  C_20
REMARK    8  A    between atoms: O_14  and  C_15
REMARK    9  A    between atoms: C_15  and  C_17
REMARK                            x       y       z     vdW  Elec       q    Type
REMARK                         _______ _______ _______ _____ _____    ______ ____
ROOT
ATOM      1  N   UNL     1       3.039   6.481  17.890  0.00  0.00    +0.000 N 
ATOM      2  C   UNL     1       4.378   6.426  17.497  0.00  0.00    +0.000 C 
ATOM      3  O   UNL     1       5.176   7.354  17.557  0.00  0.00    +0.000 OA
ATOM      4  H   UNL     1       2.524   5.646  17.693  0.00  0.00    +0.000 HD
ENDROOT
BRANCH   1  10
ATOM      5  C   UNL     1       1.896   7.568  19.826  0.00  0.00    +0.000 A 
ATOM      6  C   UNL     1       1.234   8.705  20.335  0.00  0.00    +0.000 A 
ATOM      7  C   UNL     1       1.038   9.846  19.560  0.00  0.00    +0.000 A 
ATOM      8  C   UNL     1       1.500   9.861  18.253  0.00  0.00    +0.000 A 
ATOM      9  C   UNL     1       2.132   8.733  17.720  0.00  0.00    +0.000 A 
ATOM     10  C   UNL     1       2.342   7.568  18.480  0.00  0.00    +0.000 A 
BRANCH   5  11
ATOM     11  O   UNL     1       1.973   6.598  20.799  0.00  0.00    +0.000 OA
BRANCH  11  13
ATOM     12  C   UNL     1       0.948   4.449  20.400  0.00  0.00    +0.000 C 
ATOM     13  C   UNL     1       2.225   5.259  20.426  0.00  0.00    +0.000 C 
ENDBRANCH  11  13
ENDBRANCH   5  11
ENDBRANCH   1  10
BRANCH   2  14
ATOM     14  C   UNL     1       4.774   5.056  16.847  0.00  0.00    +0.000 C 
BRANCH  14  15
ATOM     15  C   UNL     1       4.119   3.877  17.573  0.00  0.00    +0.000 A 
ATOM     16  C   UNL     1       2.948   3.273  17.087  0.00  0.00    +0.000 A 
ATOM     17  C   UNL     1       2.356   2.197  17.768  0.00  0.00    +0.000 A 
ATOM     18  C   UNL     1       2.926   1.709  18.937  0.00  0.00    +0.000 A 
ATOM     19  C   UNL     1       4.095   2.282  19.428  0.00  0.00    +0.000 A 
ATOM     20  C   UNL     1       4.686   3.349  18.744  0.00  0.00    +0.000 A 
ENDBRANCH  14  15
BRANCH  14  21
ATOM     21  O   UNL     1       6.187   4.785  16.821  0.00  0.00    +0.000 OA
BRANCH  21  22
ATOM     22  C   UNL     1       6.770   4.934  15.603  0.00  0.00    +0.000 C 
ATOM     23  O   UNL     1       7.569   5.806  15.298  0.00  0.00    +0.000 OA
BRANCH  22  24
ATOM     24  C   UNL     1       6.378   3.838  14.683  0.00  0.00    +0.000 C 
ATOM     25  C   UNL     1       5.234   3.996  13.706  0.00  0.00    +0.000 C 
ATOM     26  C   UNL     1       6.649   3.984  13.203  0.00  0.00    +0.000 C 
ENDBRANCH  22  24
ENDBRANCH  21  22
ENDBRANCH  14  21
ENDBRANCH   2  14
TORSDOF 8
ENDMDL
MODEL 4
REMARK VINA RESULT:      -7.6      1.753      6.535
REMARK  Name = 
REMARK  9 active torsions:
REMARK  status: ('A' for Active; 'I' for Inactive)
REMARK    1  A    between atoms: C_1  and  C_2
REMARK    2  A    between atoms: C_2  and  O_3
REMARK    3  A    between atoms: O_3  and  C_4
REMARK    4  A    between atoms: C_9  and  N_10
REMARK    5  A    between atoms: C_11  and  C_13
REMARK    6  A    between atoms: C_13  and  O_14
REMARK    7  A    between atoms: C_13  and  C_20
REMARK    8  A    between atoms: O_14  and  C_15
REMARK    9  A    between atoms: C_15  and  C_17
REMARK                            x       y       z     vdW  Elec       q    Type
REMARK                         _______ _______ _______ _____ _____    ______ ____
ROOT
ATOM      1  N   UNL     1       4.420   5.029  16.672  0.00  0.00    +0.000 N 
ATOM      2  C   UNL     1       4.155   6.192  17.397  0.00  0.00    +0.000 C 
ATOM      3  O   UNL     1       4.745   7.260  17.271  0.00  0.00    +0.000 OA
ATOM      4  H   UNL     1       3.888   4.235  16.970  0.00  0.00    +0.000 HD
ENDROOT
BRANCH   1  10
ATOM      5  C   UNL     1       6.742   5.125  15.757  0.00  0.00    +0.000 A 
ATOM      6  C   UNL     1       7.605   4.885  14.668  0.00  0.00    +0.000 A 
ATOM      7  C   UNL     1       7.141   4.344  13.471  0.00  0.00    +0.000 A 
ATOM      8  C   UNL     1       5.794   4.039  13.347  0.00  0.00    +0.000 A 
ATOM      9  C   UNL     1       4.916   4.297  14.405  0.00  0.00    +0.000 A 
ATOM     10  C   UNL     1       5.359   4.844  15.623  0.00  0.00    +0.000 A 
BRANCH   5  11
ATOM     11  O   UNL     1       7.457   5.640  16.814  0.00  0.00    +0.000 OA
BRANCH  11  13
ATOM     12  C   UNL     1       7.342   5.664  19.226  0.00  0.00    +0.000 C 
ATOM     13  C   UNL     1       7.635   4.860  17.978  0.00  0.00    +0.000 C 
ENDBRANCH  11  13
ENDBRANCH   5  11
ENDBRANCH   1  10
BRANCH   2  14
ATOM     14  C   UNL     1       3.068   5.992  18.508  0.00  0.00    +0.000 C 
BRANCH  14  15
ATOM     15  C   UNL     1       2.328   7.298  18.815  0.00  0.00    +0.000 A 
ATOM     16  C   UNL     1       1.994   8.210  17.800  0.00  0.00    +0.000 A 
ATOM     17  C   UNL     1       1.322   9.405  18.098  0.00  0.00    +0.000 A 
ATOM     18  C   UNL     1       0.972   9.704  19.409  0.00  0.00    +0.000 A 
ATOM     19  C   UNL     1       1.279   8.807  20.428  0.00  0.00    +0.000 A 
ATOM     20  C   UNL     1       1.942   7.614  20.127  0.00  0.00    +0.000 A 
ENDBRANCH  14  15
BRANCH  14  21
ATOM     21  O   UNL     1       3.569   5.503  19.765  0.00  0.00    +0.000 OA
BRANCH  21  22
ATOM     22  C   UNL     1       3.577   4.149  19.883  0.00  0.00    +0.000 C 
ATOM     23  O   UNL     1       4.410   3.397  19.403  0.00  0.00    +0.000 OA
BRANCH  22  24
ATOM     24  C   UNL     1       2.473   3.682  20.759  0.00  0.00    +0.000 C 
ATOM     25  C   UNL     1       1.040   4.101  20.517  0.00  0.00    +0.000 C 
ATOM     26  C   UNL     1       1.467   2.694  20.213  0.00  0.00    +0.000 C 
ENDBRANCH  22  24
ENDBRANCH  21  22
ENDBRANCH  14  21
ENDBRANCH   2  14
TORSDOF 8
ENDMDL
MODEL 5
REMARK VINA RESULT:      -7.6      2.025      4.355
REMARK  Name = 
REMARK  9 active torsions:
REMARK  status: ('A' for Active; 'I' for Inactive)
REMARK    1  A    between atoms: C_1  and  C_2
REMARK    2  A    between atoms: C_2  and  O_3
REMARK    3  A    between atoms: O_3  and  C_4
REMARK    4  A    between atoms: C_9  and  N_10
REMARK    5  A    between atoms: C_11  and  C_13
REMARK    6  A    between atoms: C_13  and  O_14
REMARK    7  A    between atoms: C_13  and  C_20
REMARK    8  A    between atoms: O_14  and  C_15
REMARK    9  A    between atoms: C_15  and  C_17
REMARK                            x       y       z     vdW  Elec       q    Type
REMARK                         _______ _______ _______ _____ _____    ______ ____
ROOT
ATOM      1  N   UNL     1       3.060   6.442  17.868  0.00  0.00    +0.000 N 
ATOM      2  C   UNL     1       4.377   6.405  17.405  0.00  0.00    +0.000 C 
ATOM      3  O   UNL     1       5.159   7.350  17.405  0.00  0.00    +0.000 OA
ATOM      4  H   UNL     1       2.552   5.593  17.714  0.00  0.00    +0.000 HD
ENDROOT
BRANCH   1  10
ATOM      5  C   UNL     1       1.926   7.510  19.820  0.00  0.00    +0.000 A 
ATOM      6  C   UNL     1       1.275   8.645  20.346  0.00  0.00    +0.000 A 
ATOM      7  C   UNL     1       1.092   9.800  19.589  0.00  0.00    +0.000 A 
ATOM      8  C   UNL     1       1.556   9.831  18.283  0.00  0.00    +0.000 A 
ATOM      9  C   UNL     1       2.177   8.705  17.733  0.00  0.00    +0.000 A 
ATOM     10  C   UNL     1       2.374   7.527  18.474  0.00  0.00    +0.000 A 
BRANCH   5  11
ATOM     11  O   UNL     1       1.992   6.523  20.777  0.00  0.00    +0.000 OA
BRANCH  11  13
ATOM     12  C   UNL     1       2.101   4.193  21.399  0.00  0.00    +0.000 C 
ATOM     13  C   UNL     1       1.500   5.233  20.479  0.00  0.00    +0.000 C 
ENDBRANCH  11  13
ENDBRANCH   5  11
ENDBRANCH   1  10
BRANCH   2  14
ATOM     14  C   UNL     1       4.766   5.031  16.760  0.00  0.00    +0.000 C 
BRANCH  14  15
ATOM     15  C   UNL     1       4.145   3.855  17.520  0.00  0.00    +0.000 A 
ATOM     16  C   UNL     1       4.724   3.351  18.696  0.00  0.00    +0.000 A 
ATOM     17  C   UNL     1       4.146   2.268  19.376  0.00  0.00    +0.000 A 
ATOM     18  C   UNL     1       2.983   1.678  18.896  0.00  0.00    +0.000 A 
ATOM     19  C   UNL     1       2.384   2.172  17.741  0.00  0.00    +0.000 A 
ATOM     20  C   UNL     1       2.958   3.255  17.069  0.00  0.00    +0.000 A 
ENDBRANCH  14  15
BRANCH  14  21
ATOM     21  O   UNL     1       6.180   4.771  16.694  0.00  0.00    +0.000 OA
BRANCH  21  22
ATOM     22  C   UNL     1       6.720   4.888  15.452  0.00  0.00    +0.000 C 
ATOM     23  O   UNL     1       7.549   5.716  15.111  0.00  0.00    +0.000 OA
BRANCH  22  24
ATOM     24  C   UNL     1       6.236   3.809  14.555  0.00  0.00    +0.000 C 
ATOM     25  C   UNL     1       5.194   4.074  13.491  0.00  0.00    +0.000 C 
ATOM     26  C   UNL     1       6.622   3.837  13.093  0.00  0.00    +0.000 C 
ENDBRANCH  22  24
ENDBRANCH  21  22
ENDBRANCH  14  21
ENDBRANCH   2  14
TORSDOF 8
ENDMDL
MODEL 6
REMARK VINA RESULT:      -7.6      2.482      5.739
REMARK  Name = 
REMARK  9 active torsions:
REMARK  status: ('A' for Active; 'I' for Inactive)
REMARK    1  A    between atoms: C_1  and  C_2
REMARK    2  A    between atoms: C_2  and  O_3
REMARK    3  A    between atoms: O_3  and  C_4
REMARK    4  A    between atoms: C_9  and  N_10
REMARK    5  A    between atoms: C_11  and  C_13
REMARK    6  A    between atoms: C_13  and  O_14
REMARK    7  A    between atoms: C_13  and  C_20
REMARK    8  A    between atoms: O_14  and  C_15
REMARK    9  A    between atoms: C_15  and  C_17
REMARK                            x       y       z     vdW  Elec       q    Type
REMARK                         _______ _______ _______ _____ _____    ______ ____
ROOT
ATOM      1  N   UNL     1       2.859   7.027  19.106  0.00  0.00    +0.000 N 
ATOM      2  C   UNL     1       2.702   5.798  18.462  0.00  0.00    +0.000 C 
ATOM      3  O   UNL     1       1.760   5.487  17.742  0.00  0.00    +0.000 OA
ATOM      4  H   UNL     1       3.654   7.068  19.714  0.00  0.00    +0.000 HD
ENDROOT
BRANCH   1  10
ATOM      5  C   UNL     1       1.294   8.680  20.134  0.00  0.00    +0.000 A 
ATOM      6  C   UNL     1       0.507   9.839  19.970  0.00  0.00    +0.000 A 
ATOM      7  C   UNL     1       0.455  10.522  18.757  0.00  0.00    +0.000 A 
ATOM      8  C   UNL     1       1.190  10.045  17.682  0.00  0.00    +0.000 A 
ATOM      9  C   UNL     1       1.952   8.880  17.816  0.00  0.00    +0.000 A 
ATOM     10  C   UNL     1       2.022   8.171  19.029  0.00  0.00    +0.000 A 
BRANCH   5  11
ATOM     11  O   UNL     1       1.183   8.219  21.426  0.00  0.00    +0.000 OA
BRANCH  11  13
ATOM     12  C   UNL     1       0.064   9.362  23.236  0.00  0.00    +0.000 C 
ATOM     13  C   UNL     1       1.365   9.116  22.502  0.00  0.00    +0.000 C 
ENDBRANCH  11  13
ENDBRANCH   5  11
ENDBRANCH   1  10
BRANCH   2  14
ATOM     14  C   UNL     1       3.820   4.763  18.828  0.00  0.00    +0.000 C 
BRANCH  14  15
ATOM     15  C   UNL     1       4.937   4.743  17.779  0.00  0.00    +0.000 A 
ATOM     16  C   UNL     1       4.880   3.894  16.662  0.00  0.00    +0.000 A 
ATOM     17  C   UNL     1       5.915   3.883  15.713  0.00  0.00    +0.000 A 
ATOM     18  C   UNL     1       7.014   4.720  15.865  0.00  0.00    +0.000 A 
ATOM     19  C   UNL     1       7.082   5.580  16.956  0.00  0.00    +0.000 A 
ATOM     20  C   UNL     1       6.047   5.594  17.896  0.00  0.00    +0.000 A 
ENDBRANCH  14  15
BRANCH  14  21
ATOM     21  O   UNL     1       3.366   3.404  18.965  0.00  0.00    +0.000 OA
BRANCH  21  22
ATOM     22  C   UNL     1       3.539   2.871  20.203  0.00  0.00    +0.000 C 
ATOM     23  O   UNL     1       4.440   2.117  20.534  0.00  0.00    +0.000 OA
BRANCH  22  24
ATOM     24  C   UNL     1       2.527   3.391  21.156  0.00  0.00    +0.000 C 
ATOM     25  C   UNL     1       1.070   3.519  20.770  0.00  0.00    +0.000 C 
ATOM     26  C   UNL     1       1.497   2.443  21.727  0.00  0.00    +0.000 C 
ENDBRANCH  22  24
ENDBRANCH  21  22
ENDBRANCH  14  21
ENDBRANCH   2  14
TORSDOF 8
ENDMDL
MODEL 7
REMARK VINA RESULT:      -7.6      3.019      5.424
REMARK  Name = 
REMARK  9 active torsions:
REMARK  status: ('A' for Active; 'I' for Inactive)
REMARK    1  A    between atoms: C_1  and  C_2
REMARK    2  A    between atoms: C_2  and  O_3
REMARK    3  A    between atoms: O_3  and  C_4
REMARK    4  A    between atoms: C_9  and  N_10
REMARK    5  A    between atoms: C_11  and  C_13
REMARK    6  A    between atoms: C_13  and  O_14
REMARK    7  A    between atoms: C_13  and  C_20
REMARK    8  A    between atoms: O_14  and  C_15
REMARK    9  A    between atoms: C_15  and  C_17
REMARK                            x       y       z     vdW  Elec       q    Type
REMARK                         _______ _______ _______ _____ _____    ______ ____
ROOT
ATOM      1  N   UNL     1       2.123   7.879  19.421  0.00  0.00    +0.000 N 
ATOM      2  C   UNL     1       2.338   6.506  19.549  0.00  0.00    +0.000 C 
ATOM      3  O   UNL     1       1.901   5.797  20.449  0.00  0.00    +0.000 OA
ATOM      4  H   UNL     1       2.625   8.300  18.663  0.00  0.00    +0.000 HD
ENDROOT
BRANCH   1  10
ATOM      5  C   UNL     1       0.434   9.694  19.726  0.00  0.00    +0.000 A 
ATOM      6  C   UNL     1      -0.333  10.470  20.619  0.00  0.00    +0.000 A 
ATOM      7  C   UNL     1      -0.263  10.284  21.998  0.00  0.00    +0.000 A 
ATOM      8  C   UNL     1       0.590   9.315  22.504  0.00  0.00    +0.000 A 
ATOM      9  C   UNL     1       1.381   8.556  21.638  0.00  0.00    +0.000 A 
ATOM     10  C   UNL     1       1.330   8.723  20.242  0.00  0.00    +0.000 A 
BRANCH   5  11
ATOM     11  O   UNL     1       0.160  10.065  18.430  0.00  0.00    +0.000 OA
BRANCH  11  13
ATOM     12  C   UNL     1      -1.876   9.889  17.143  0.00  0.00    +0.000 C 
ATOM     13  C   UNL     1      -1.066  10.699  18.133  0.00  0.00    +0.000 C 
ENDBRANCH  11  13
ENDBRANCH   5  11
ENDBRANCH   1  10
BRANCH   2  14
ATOM     14  C   UNL     1       3.310   5.930  18.463  0.00  0.00    +0.000 C 
BRANCH  14  15
ATOM     15  C   UNL     1       3.314   4.398  18.464  0.00  0.00    +0.000 A 
ATOM     16  C   UNL     1       2.461   3.660  17.627  0.00  0.00    +0.000 A 
ATOM     17  C   UNL     1       2.471   2.257  17.645  0.00  0.00    +0.000 A 
ATOM     18  C   UNL     1       3.334   1.573  18.493  0.00  0.00    +0.000 A 
ATOM     19  C   UNL     1       4.199   2.284  19.319  0.00  0.00    +0.000 A 
ATOM     20  C   UNL     1       4.191   3.682  19.294  0.00  0.00    +0.000 A 
ENDBRANCH  14  15
BRANCH  14  21
ATOM     21  O   UNL     1       4.683   6.341  18.599  0.00  0.00    +0.000 OA
BRANCH  21  22
ATOM     22  C   UNL     1       5.356   6.466  17.426  0.00  0.00    +0.000 C 
ATOM     23  O   UNL     1       4.861   6.757  16.348  0.00  0.00    +0.000 OA
BRANCH  22  24
ATOM     24  C   UNL     1       6.815   6.287  17.625  0.00  0.00    +0.000 C 
ATOM     25  C   UNL     1       7.372   5.672  18.889  0.00  0.00    +0.000 C 
ATOM     26  C   UNL     1       7.397   4.891  17.607  0.00  0.00    +0.000 C 
ENDBRANCH  22  24
ENDBRANCH  21  22
ENDBRANCH  14  21
ENDBRANCH   2  14
TORSDOF 8
ENDMDL
MODEL 8
REMARK VINA RESULT:      -7.5      1.984      7.077
REMARK  Name = 
REMARK  9 active torsions:
REMARK  status: ('A' for Active; 'I' for Inactive)
REMARK    1  A    between atoms: C_1  and  C_2
REMARK    2  A    between atoms: C_2  and  O_3
REMARK    3  A    between atoms: O_3  and  C_4
REMARK    4  A    between atoms: C_9  and  N_10
REMARK    5  A    between atoms: C_11  and  C_13
REMARK    6  A    between atoms: C_13  and  O_14
REMARK    7  A    between atoms: C_13  and  C_20
REMARK    8  A    between atoms: O_14  and  C_15
REMARK    9  A    between atoms: C_15  and  C_17
REMARK                            x       y       z     vdW  Elec       q    Type
REMARK                         _______ _______ _______ _____ _____    ______ ____
ROOT
ATOM      1  N   UNL     1       4.203   5.548  18.133  0.00  0.00    +0.000 N 
ATOM      2  C   UNL     1       3.332   6.633  18.248  0.00  0.00    +0.000 C 
ATOM      3  O   UNL     1       3.221   7.546  17.437  0.00  0.00    +0.000 OA
ATOM      4  H   UNL     1       4.207   4.945  18.933  0.00  0.00    +0.000 HD
ENDROOT
BRANCH   1  10
ATOM      5  C   UNL     1       6.140   6.088  16.653  0.00  0.00    +0.000 A 
ATOM      6  C   UNL     1       6.980   5.685  15.594  0.00  0.00    +0.000 A 
ATOM      7  C   UNL     1       6.822   4.454  14.962  0.00  0.00    +0.000 A 
ATOM      8  C   UNL     1       5.807   3.606  15.381  0.00  0.00    +0.000 A 
ATOM      9  C   UNL     1       4.944   4.000  16.408  0.00  0.00    +0.000 A 
ATOM     10  C   UNL     1       5.082   5.237  17.062  0.00  0.00    +0.000 A 
BRANCH   5  11
ATOM     11  O   UNL     1       6.524   7.328  17.108  0.00  0.00    +0.000 OA
BRANCH  11  13
ATOM     12  C   UNL     1       8.141   8.915  17.944  0.00  0.00    +0.000 C 
ATOM     13  C   UNL     1       7.736   7.462  17.821  0.00  0.00    +0.000 C 
ENDBRANCH  11  13
ENDBRANCH   5  11
ENDBRANCH   1  10
BRANCH   2  14
ATOM     14  C   UNL     1       2.545   6.653  19.603  0.00  0.00    +0.000 C 
BRANCH  14  15
ATOM     15  C   UNL     1       2.115   5.245  20.026  0.00  0.00    +0.000 A 
ATOM     16  C   UNL     1       2.477   4.709  21.273  0.00  0.00    +0.000 A 
ATOM     17  C   UNL     1       2.081   3.415  21.643  0.00  0.00    +0.000 A 
ATOM     18  C   UNL     1       1.316   2.642  20.778  0.00  0.00    +0.000 A 
ATOM     19  C   UNL     1       0.932   3.159  19.545  0.00  0.00    +0.000 A 
ATOM     20  C   UNL     1       1.323   4.451  19.181  0.00  0.00    +0.000 A 
ENDBRANCH  14  15
BRANCH  14  21
ATOM     21  O   UNL     1       1.354   7.460  19.600  0.00  0.00    +0.000 OA
BRANCH  21  22
ATOM     22  C   UNL     1       1.344   8.459  20.521  0.00  0.00    +0.000 C 
ATOM     23  O   UNL     1       1.596   8.335  21.709  0.00  0.00    +0.000 OA
BRANCH  22  24
ATOM     24  C   UNL     1       1.064   9.770  19.885  0.00  0.00    +0.000 C 
ATOM     25  C   UNL     1       0.640   9.873  18.437  0.00  0.00    +0.000 C 
ATOM     26  C   UNL     1      -0.361  10.128  19.527  0.00  0.00    +0.000 C 
ENDBRANCH  22  24
ENDBRANCH  21  22
ENDBRANCH  14  21
ENDBRANCH   2  14
TORSDOF 8
ENDMDL
MODEL 9
REMARK VINA RESULT:      -7.5      1.956      6.491
REMARK  Name = 
REMARK  9 active torsions:
REMARK  status: ('A' for Active; 'I' for Inactive)
REMARK    1  A    between atoms: C_1  and  C_2
REMARK    2  A    between atoms: C_2  and  O_3
REMARK    3  A    between atoms: O_3  and  C_4
REMARK    4  A    between atoms: C_9  and  N_10
REMARK    5  A    between atoms: C_11  and  C_13
REMARK    6  A    between atoms: C_13  and  O_14
REMARK    7  A    between atoms: C_13  and  C_20
REMARK    8  A    between atoms: O_14  and  C_15
REMARK    9  A    between atoms: C_15  and  C_17
REMARK                            x       y       z     vdW  Elec       q    Type
REMARK                         _______ _______ _______ _____ _____    ______ ____
ROOT
ATOM      1  N   UNL     1       3.905   5.478  17.373  0.00  0.00    +0.000 N 
ATOM      2  C   UNL     1       3.945   5.659  18.757  0.00  0.00    +0.000 C 
ATOM      3  O   UNL     1       4.951   5.600  19.454  0.00  0.00    +0.000 OA
ATOM      4  H   UNL     1       2.980   5.487  16.989  0.00  0.00    +0.000 HD
ENDROOT
BRANCH   1  10
ATOM      5  C   UNL     1       6.112   6.114  16.393  0.00  0.00    +0.000 A 
ATOM      6  C   UNL     1       7.157   5.794  15.501  0.00  0.00    +0.000 A 
ATOM      7  C   UNL     1       7.135   4.632  14.734  0.00  0.00    +0.000 A 
ATOM      8  C   UNL     1       6.054   3.771  14.846  0.00  0.00    +0.000 A 
ATOM      9  C   UNL     1       4.994   4.085  15.701  0.00  0.00    +0.000 A 
ATOM     10  C   UNL     1       4.990   5.251  16.486  0.00  0.00    +0.000 A 
BRANCH   5  11
ATOM     11  O   UNL     1       6.393   7.297  17.036  0.00  0.00    +0.000 OA
BRANCH  11  13
ATOM     12  C   UNL     1       8.028   8.895  17.815  0.00  0.00    +0.000 C 
ATOM     13  C   UNL     1       7.618   7.441  17.724  0.00  0.00    +0.000 C 
ENDBRANCH  11  13
ENDBRANCH   5  11
ENDBRANCH   1  10
BRANCH   2  14
ATOM     14  C   UNL     1       2.526   5.849  19.395  0.00  0.00    +0.000 C 
BRANCH  14  15
ATOM     15  C   UNL     1       2.078   7.314  19.350  0.00  0.00    +0.000 A 
ATOM     16  C   UNL     1       2.168   8.074  18.172  0.00  0.00    +0.000 A 
ATOM     17  C   UNL     1       1.760   9.417  18.149  0.00  0.00    +0.000 A 
ATOM     18  C   UNL     1       1.255  10.015  19.296  0.00  0.00    +0.000 A 
ATOM     19  C   UNL     1       1.143   9.276  20.470  0.00  0.00    +0.000 A 
ATOM     20  C   UNL     1       1.544   7.937  20.488  0.00  0.00    +0.000 A 
ENDBRANCH  14  15
BRANCH  14  21
ATOM     21  O   UNL     1       2.419   5.432  20.768  0.00  0.00    +0.000 OA
BRANCH  21  22
ATOM     22  C   UNL     1       2.039   4.139  20.940  0.00  0.00    +0.000 C 
ATOM     23  O   UNL     1       2.131   3.502  21.977  0.00  0.00    +0.000 OA
BRANCH  22  24
ATOM     24  C   UNL     1       1.405   3.600  19.711  0.00  0.00    +0.000 C 
ATOM     25  C   UNL     1       1.990   2.417  18.973  0.00  0.00    +0.000 C 
ATOM     26  C   UNL     1       0.724   2.251  19.764  0.00  0.00    +0.000 C 
ENDBRANCH  22  24
ENDBRANCH  21  22
ENDBRANCH  14  21
ENDBRANCH   2  14
TORSDOF 8
ENDMDL
