MODEL 1
REMARK VINA RESULT:      -7.5      0.000      0.000
REMARK  Name = 
REMARK  13 active torsions:
REMARK  status: ('A' for Active; 'I' for Inactive)
REMARK    1  A    between atoms: C_1  and  O_2
REMARK    2  A    between atoms: O_2  and  C_3
REMARK    3  A    between atoms: C_3  and  O_4
REMARK    4  A    between atoms: O_4  and  N_5
REMARK    5  A    between atoms: C_8  and  C_9
REMARK    6  A    between atoms: C_9  and  C_10
REMARK    7  A    between atoms: N_16  and  C_17
REMARK    8  A    between atoms: C_17  and  C_18
REMARK    9  A    between atoms: C_24  and  C_25
REMARK   10  A    between atoms: C_25  and  O_26
REMARK   11  A    between atoms: C_25  and  C_27
REMARK   12  A    between atoms: C_27  and  C_28
REMARK   13  A    between atoms: C_27  and  C_29
REMARK                            x       y       z     vdW  Elec       q    Type
REMARK                         _______ _______ _______ _____ _____    ______ ____
ROOT
ATOM      1  N   UNL     1       1.145  10.278  21.132  0.00  0.00    +0.000 N 
ATOM      2  C   UNL     1       0.926   9.087  20.443  0.00  0.00    +0.000 C 
ATOM      3  O   UNL     1       0.725   7.992  20.968  0.00  0.00    +0.000 OA
ATOM      4  C   UNL     1       0.933   9.242  18.922  0.00  0.00    +0.000 C 
ATOM      5  N   UNL     1       0.191  10.485  18.556  0.00  0.00    +0.000 NA
ATOM      6  C   UNL     1       0.895  11.684  19.106  0.00  0.00    +0.000 C 
ATOM      7  C   UNL     1       1.030  11.590  20.646  0.00  0.00    +0.000 C 
ATOM      8  O   UNL     1       1.083  12.591  21.364  0.00  0.00    +0.000 OA
ENDROOT
BRANCH   1   9
ATOM      9  O   UNL     1       1.011  10.191  22.546  0.00  0.00    +0.000 OA
BRANCH   9  10
ATOM     10  C   UNL     1      -0.358  10.032  22.916  0.00  0.00    +0.000 C 
BRANCH  10  12
ATOM     11  C   UNL     1      -1.981  11.727  22.779  0.00  0.00    +0.000 C 
ATOM     12  O   UNL     1      -0.916  11.177  23.549  0.00  0.00    +0.000 OA
ENDBRANCH  10  12
ENDBRANCH   9  10
ENDBRANCH   1   9
BRANCH   4  13
ATOM     13  C   UNL     1       2.391   9.132  18.386  0.00  0.00    +0.000 C 
BRANCH  13  14
ATOM     14  C   UNL     1       2.757   7.717  17.986  0.00  0.00    +0.000 A 
ATOM     15  C   UNL     1       1.885   6.647  18.232  0.00  0.00    +0.000 A 
ATOM     16  C   UNL     1       2.294   5.330  18.018  0.00  0.00    +0.000 A 
ATOM     17  C   UNL     1       3.562   5.070  17.508  0.00  0.00    +0.000 A 
ATOM     18  C   UNL     1       4.413   6.126  17.194  0.00  0.00    +0.000 A 
ATOM     19  C   UNL     1       4.016   7.443  17.436  0.00  0.00    +0.000 A 
ENDBRANCH  13  14
ENDBRANCH   4  13
BRANCH   5  20
ATOM     20  C   UNL     1      -1.234  10.446  18.971  0.00  0.00    +0.000 C 
BRANCH  20  21
ATOM     21  C   UNL     1      -2.248  10.490  17.848  0.00  0.00    +0.000 A 
ATOM     22  C   UNL     1      -3.433  11.225  18.003  0.00  0.00    +0.000 A 
ATOM     23  C   UNL     1      -4.345  11.326  16.954  0.00  0.00    +0.000 A 
ATOM     24  C   UNL     1      -4.085  10.695  15.740  0.00  0.00    +0.000 A 
ATOM     25  C   UNL     1      -2.916   9.954  15.576  0.00  0.00    +0.000 A 
ATOM     26  C   UNL     1      -2.000   9.853  16.627  0.00  0.00    +0.000 A 
ENDBRANCH  20  21
ENDBRANCH   5  20
BRANCH   6  27
ATOM     27  C   UNL     1       0.377  13.082  18.624  0.00  0.00    +0.000 C 
BRANCH  27  28
ATOM     28  C   UNL     1       1.501  14.136  18.366  0.00  0.00    +0.000 C 
ATOM     29  C   UNL     1       1.563  15.294  19.368  0.00  0.00    +0.000 C 
ATOM     30  C   UNL     1       2.885  13.472  18.322  0.00  0.00    +0.000 C 
ENDBRANCH  27  28
BRANCH  27  31
ATOM     31  O   UNL     1      -0.506  12.948  17.508  0.00  0.00    +0.000 OA
ATOM     32  H   UNL     1      -1.279  13.519  17.635  0.00  0.00    +0.000 HD
ENDBRANCH  27  31
ENDBRANCH   6  27
TORSDOF 10
ENDMDL
MODEL 2
REMARK VINA RESULT:      -7.5      5.212      8.944
REMARK  Name = 
REMARK  13 active torsions:
REMARK  status: ('A' for Active; 'I' for Inactive)
REMARK    1  A    between atoms: C_1  and  O_2
REMARK    2  A    between atoms: O_2  and  C_3
REMARK    3  A    between atoms: C_3  and  O_4
REMARK    4  A    between atoms: O_4  and  N_5
REMARK    5  A    between atoms: C_8  and  C_9
REMARK    6  A    between atoms: C_9  and  C_10
REMARK    7  A    between atoms: N_16  and  C_17
REMARK    8  A    between atoms: C_17  and  C_18
REMARK    9  A    between atoms: C_24  and  C_25
REMARK   10  A    between atoms: C_25  and  O_26
REMARK   11  A    between atoms: C_25  and  C_27
REMARK   12  A    between atoms: C_27  and  C_28
REMARK   13  A    between atoms: C_27  and  C_29
REMARK                            x       y       z     vdW  Elec       q    Type
REMARK                         _______ _______ _______ _____ _____    ______ ____
ROOT
ATOM      1  N   UNL     1       5.356   4.716  15.932  0.00  0.00    +0.000 N 
ATOM      2  C   UNL     1       5.492   6.098  16.035  0.00  0.00    +0.000 C 
ATOM      3  O   UNL     1       5.493   6.882  15.086  0.00  0.00    +0.000 OA
ATOM      4  C   UNL     1       5.627   6.601  17.473  0.00  0.00    +0.000 C 
ATOM      5  N   UNL     1       4.663   5.861  18.339  0.00  0.00    +0.000 NA
ATOM      6  C   UNL     1       5.009   4.408  18.368  0.00  0.00    +0.000 C 
ATOM      7  C   UNL     1       4.996   3.807  16.940  0.00  0.00    +0.000 C 
ATOM      8  O   UNL     1       4.741   2.619  16.728  0.00  0.00    +0.000 OA
ENDROOT
BRANCH   1   9
ATOM      9  O   UNL     1       5.095   4.231  14.621  0.00  0.00    +0.000 OA
BRANCH   9  10
ATOM     10  C   UNL     1       6.314   3.943  13.936  0.00  0.00    +0.000 C 
BRANCH  10  12
ATOM     11  C   UNL     1       4.805   3.454  12.201  0.00  0.00    +0.000 C 
ATOM     12  O   UNL     1       6.129   3.275  12.693  0.00  0.00    +0.000 OA
ENDBRANCH  10  12
ENDBRANCH   9  10
ENDBRANCH   1   9
BRANCH   4  13
ATOM     13  C   UNL     1       7.120   6.554  17.912  0.00  0.00    +0.000 C 
BRANCH  13  14
ATOM     14  C   UNL     1       7.741   7.932  18.013  0.00  0.00    +0.000 A 
ATOM     15  C   UNL     1       8.770   8.197  18.927  0.00  0.00    +0.000 A 
ATOM     16  C   UNL     1       9.222   9.501  19.135  0.00  0.00    +0.000 A 
ATOM     17  C   UNL     1       8.684  10.550  18.394  0.00  0.00    +0.000 A 
ATOM     18  C   UNL     1       7.710  10.291  17.433  0.00  0.00    +0.000 A 
ATOM     19  C   UNL     1       7.237   8.990  17.246  0.00  0.00    +0.000 A 
ENDBRANCH  13  14
ENDBRANCH   4  13
BRANCH   5  20
ATOM     20  C   UNL     1       3.249   6.082  17.945  0.00  0.00    +0.000 C 
BRANCH  20  21
ATOM     21  C   UNL     1       2.569   7.279  18.575  0.00  0.00    +0.000 A 
ATOM     22  C   UNL     1       2.265   8.403  17.793  0.00  0.00    +0.000 A 
ATOM     23  C   UNL     1       1.583   9.486  18.346  0.00  0.00    +0.000 A 
ATOM     24  C   UNL     1       1.196   9.457  19.684  0.00  0.00    +0.000 A 
ATOM     25  C   UNL     1       1.499   8.350  20.473  0.00  0.00    +0.000 A 
ATOM     26  C   UNL     1       2.183   7.264  19.920  0.00  0.00    +0.000 A 
ENDBRANCH  20  21
ENDBRANCH   5  20
BRANCH   6  27
ATOM     27  C   UNL     1       4.239   3.523  19.407  0.00  0.00    +0.000 C 
BRANCH  27  28
ATOM     28  C   UNL     1       2.696   3.447  19.177  0.00  0.00    +0.000 C 
ATOM     29  C   UNL     1       2.175   2.113  18.634  0.00  0.00    +0.000 C 
ATOM     30  C   UNL     1       1.927   3.766  20.467  0.00  0.00    +0.000 C 
ENDBRANCH  27  28
BRANCH  27  31
ATOM     31  O   UNL     1       4.834   2.227  19.520  0.00  0.00    +0.000 OA
ATOM     32  H   UNL     1       5.220   1.972  18.668  0.00  0.00    +0.000 HD
ENDBRANCH  27  31
ENDBRANCH   6  27
TORSDOF 10
ENDMDL
MODEL 3
REMARK VINA RESULT:      -7.4      0.341      1.116
REMARK  Name = 
REMARK  13 active torsions:
REMARK  status: ('A' for Active; 'I' for Inactive)
REMARK    1  A    between atoms: C_1  and  O_2
REMARK    2  A    between atoms: O_2  and  C_3
REMARK    3  A    between atoms: C_3  and  O_4
REMARK    4  A    between atoms: O_4  and  N_5
REMARK    5  A    between atoms: C_8  and  C_9
REMARK    6  A    between atoms: C_9  and  C_10
REMARK    7  A    between atoms: N_16  and  C_17
REMARK    8  A    between atoms: C_17  and  C_18
REMARK    9  A    between atoms: C_24  and  C_25
REMARK   10  A    between atoms: C_25  and  O_26
REMARK   11  A    between atoms: C_25  and  C_27
REMARK   12  A    between atoms: C_27  and  C_28
REMARK   13  A    between atoms: C_27  and  C_29
REMARK                            x       y       z     vdW  Elec       q    Type
REMARK                         _______ _______ _______ _____ _____    ______ ____
ROOT
ATOM      1  N   UNL     1       1.313  10.013  21.151  0.00  0.00    +0.000 N 
ATOM      2  C   UNL     1       1.055   8.867  20.402  0.00  0.00    +0.000 C 
ATOM      3  O   UNL     1       0.861   7.745  20.871  0.00  0.00    +0.000 OA
ATOM      4  C   UNL     1       1.011   9.110  18.894  0.00  0.00    +0.000 C 
ATOM      5  N   UNL     1       0.271  10.378  18.627  0.00  0.00    +0.000 NA
ATOM      6  C   UNL     1       1.007  11.536  19.219  0.00  0.00    +0.000 C 
ATOM      7  C   UNL     1       1.196  11.352  20.746  0.00  0.00    +0.000 C 
ATOM      8  O   UNL     1       1.286  12.310  21.518  0.00  0.00    +0.000 OA
ENDROOT
BRANCH   1   9
ATOM      9  O   UNL     1       1.228   9.845  22.561  0.00  0.00    +0.000 OA
BRANCH   9  10
ATOM     10  C   UNL     1      -0.134   9.768  22.981  0.00  0.00    +0.000 C 
BRANCH  10  12
ATOM     11  C   UNL     1      -1.794  11.432  22.985  0.00  0.00    +0.000 C 
ATOM     12  O   UNL     1      -0.608  10.952  23.610  0.00  0.00    +0.000 OA
ENDBRANCH  10  12
ENDBRANCH   9  10
ENDBRANCH   1   9
BRANCH   4  13
ATOM     13  C   UNL     1       2.447   9.016  18.300  0.00  0.00    +0.000 C 
BRANCH  13  14
ATOM     14  C   UNL     1       2.883   7.587  18.054  0.00  0.00    +0.000 A 
ATOM     15  C   UNL     1       4.138   7.298  17.499  0.00  0.00    +0.000 A 
ATOM     16  C   UNL     1       4.468   5.996  17.119  0.00  0.00    +0.000 A 
ATOM     17  C   UNL     1       3.565   4.959  17.335  0.00  0.00    +0.000 A 
ATOM     18  C   UNL     1       2.343   5.221  17.949  0.00  0.00    +0.000 A 
ATOM     19  C   UNL     1       2.001   6.528  18.303  0.00  0.00    +0.000 A 
ENDBRANCH  13  14
ENDBRANCH   4  13
BRANCH   5  20
ATOM     20  C   UNL     1      -1.139  10.329  19.090  0.00  0.00    +0.000 C 
BRANCH  20  21
ATOM     21  C   UNL     1      -2.191  10.471  18.011  0.00  0.00    +0.000 A 
ATOM     22  C   UNL     1      -3.309  11.291  18.226  0.00  0.00    +0.000 A 
ATOM     23  C   UNL     1      -4.252  11.480  17.218  0.00  0.00    +0.000 A 
ATOM     24  C   UNL     1      -4.091  10.853  15.985  0.00  0.00    +0.000 A 
ATOM     25  C   UNL     1      -2.990  10.028  15.761  0.00  0.00    +0.000 A 
ATOM     26  C   UNL     1      -2.043   9.839  16.771  0.00  0.00    +0.000 A 
ENDBRANCH  20  21
ENDBRANCH   5  20
BRANCH   6  27
ATOM     27  C   UNL     1       0.490  12.965  18.839  0.00  0.00    +0.000 C 
BRANCH  27  28
ATOM     28  C   UNL     1       1.546  14.104  19.006  0.00  0.00    +0.000 C 
ATOM     29  C   UNL     1       2.758  14.023  18.072  0.00  0.00    +0.000 C 
ATOM     30  C   UNL     1       0.903  15.487  18.829  0.00  0.00    +0.000 C 
ENDBRANCH  27  28
BRANCH  27  31
ATOM     31  O   UNL     1      -0.106  12.967  17.539  0.00  0.00    +0.000 OA
ATOM     32  H   UNL     1       0.191  12.188  17.045  0.00  0.00    +0.000 HD
ENDBRANCH  27  31
ENDBRANCH   6  27
TORSDOF 10
ENDMDL
MODEL 4
REMARK VINA RESULT:      -7.2      0.882      1.474
REMARK  Name = 
REMARK  13 active torsions:
REMARK  status: ('A' for Active; 'I' for Inactive)
REMARK    1  A    between atoms: C_1  and  O_2
REMARK    2  A    between atoms: O_2  and  C_3
REMARK    3  A    between atoms: C_3  and  O_4
REMARK    4  A    between atoms: O_4  and  N_5
REMARK    5  A    between atoms: C_8  and  C_9
REMARK    6  A    between atoms: C_9  and  C_10
REMARK    7  A    between atoms: N_16  and  C_17
REMARK    8  A    between atoms: C_17  and  C_18
REMARK    9  A    between atoms: C_24  and  C_25
REMARK   10  A    between atoms: C_25  and  O_26
REMARK   11  A    between atoms: C_25  and  C_27
REMARK   12  A    between atoms: C_27  and  C_28
REMARK   13  A    between atoms: C_27  and  C_29
REMARK                            x       y       z     vdW  Elec       q    Type
REMARK                         _______ _______ _______ _____ _____    ______ ____
ROOT
ATOM      1  N   UNL     1       0.527  10.552  21.583  0.00  0.00    +0.000 N 
ATOM      2  C   UNL     1       0.223   9.337  20.973  0.00  0.00    +0.000 C 
ATOM      3  O   UNL     1      -0.207   8.341  21.556  0.00  0.00    +0.000 OA
ATOM      4  C   UNL     1       0.451   9.329  19.462  0.00  0.00    +0.000 C 
ATOM      5  N   UNL     1      -0.041  10.617  18.889  0.00  0.00    +0.000 NA
ATOM      6  C   UNL     1       0.757  11.758  19.430  0.00  0.00    +0.000 C 
ATOM      7  C   UNL     1       0.676  11.809  20.976  0.00  0.00    +0.000 C 
ATOM      8  O   UNL     1       0.786  12.863  21.607  0.00  0.00    +0.000 OA
ENDROOT
BRANCH   1   9
ATOM      9  O   UNL     1       0.200  10.633  22.965  0.00  0.00    +0.000 OA
BRANCH   9  10
ATOM     10  C   UNL     1      -1.215  10.678  23.148  0.00  0.00    +0.000 C 
BRANCH  10  12
ATOM     11  C   UNL     1      -2.730  12.375  22.557  0.00  0.00    +0.000 C 
ATOM     12  O   UNL     1      -1.710  11.974  23.466  0.00  0.00    +0.000 OA
ENDBRANCH  10  12
ENDBRANCH   9  10
ENDBRANCH   1   9
BRANCH   4  13
ATOM     13  C   UNL     1       1.932   8.963  19.152  0.00  0.00    +0.000 C 
BRANCH  13  14
ATOM     14  C   UNL     1       2.168   7.467  19.123  0.00  0.00    +0.000 A 
ATOM     15  C   UNL     1       2.313   6.781  17.909  0.00  0.00    +0.000 A 
ATOM     16  C   UNL     1       2.361   5.386  17.878  0.00  0.00    +0.000 A 
ATOM     17  C   UNL     1       2.314   4.663  19.067  0.00  0.00    +0.000 A 
ATOM     18  C   UNL     1       2.240   5.335  20.284  0.00  0.00    +0.000 A 
ATOM     19  C   UNL     1       2.162   6.729  20.313  0.00  0.00    +0.000 A 
ENDBRANCH  13  14
ENDBRANCH   4  13
BRANCH   5  20
ATOM     20  C   UNL     1      -1.498  10.818  19.096  0.00  0.00    +0.000 C 
BRANCH  20  21
ATOM     21  C   UNL     1      -2.355  10.760  17.849  0.00  0.00    +0.000 A 
ATOM     22  C   UNL     1      -1.978   9.934  16.779  0.00  0.00    +0.000 A 
ATOM     23  C   UNL     1      -2.790   9.823  15.652  0.00  0.00    +0.000 A 
ATOM     24  C   UNL     1      -3.986  10.533  15.581  0.00  0.00    +0.000 A 
ATOM     25  C   UNL     1      -4.367  11.363  16.633  0.00  0.00    +0.000 A 
ATOM     26  C   UNL     1      -3.554  11.475  17.764  0.00  0.00    +0.000 A 
ENDBRANCH  20  21
ENDBRANCH   5  20
BRANCH   6  27
ATOM     27  C   UNL     1       0.524  13.156  18.762  0.00  0.00    +0.000 C 
BRANCH  27  28
ATOM     28  C   UNL     1       1.832  13.938  18.417  0.00  0.00    +0.000 C 
ATOM     29  C   UNL     1       2.178  15.094  19.361  0.00  0.00    +0.000 C 
ATOM     30  C   UNL     1       3.042  12.995  18.360  0.00  0.00    +0.000 C 
ENDBRANCH  27  28
BRANCH  27  31
ATOM     31  O   UNL     1      -0.355  13.050  17.639  0.00  0.00    +0.000 OA
ATOM     32  H   UNL     1      -0.345  12.139  17.304  0.00  0.00    +0.000 HD
ENDBRANCH  27  31
ENDBRANCH   6  27
TORSDOF 10
ENDMDL
MODEL 5
REMARK VINA RESULT:      -7.1      4.993      8.613
REMARK  Name = 
REMARK  13 active torsions:
REMARK  status: ('A' for Active; 'I' for Inactive)
REMARK    1  A    between atoms: C_1  and  O_2
REMARK    2  A    between atoms: O_2  and  C_3
REMARK    3  A    between atoms: C_3  and  O_4
REMARK    4  A    between atoms: O_4  and  N_5
REMARK    5  A    between atoms: C_8  and  C_9
REMARK    6  A    between atoms: C_9  and  C_10
REMARK    7  A    between atoms: N_16  and  C_17
REMARK    8  A    between atoms: C_17  and  C_18
REMARK    9  A    between atoms: C_24  and  C_25
REMARK   10  A    between atoms: C_25  and  O_26
REMARK   11  A    between atoms: C_25  and  C_27
REMARK   12  A    between atoms: C_27  and  C_28
REMARK   13  A    between atoms: C_27  and  C_29
REMARK                            x       y       z     vdW  Elec       q    Type
REMARK                         _______ _______ _______ _____ _____    ______ ____
ROOT
ATOM      1  N   UNL     1       3.204   5.125  18.244  0.00  0.00    +0.000 N 
ATOM      2  C   UNL     1       2.683   4.128  17.422  0.00  0.00    +0.000 C 
ATOM      3  O   UNL     1       1.515   4.064  17.040  0.00  0.00    +0.000 OA
ATOM      4  C   UNL     1       3.711   3.081  16.993  0.00  0.00    +0.000 C 
ATOM      5  N   UNL     1       4.990   3.769  16.645  0.00  0.00    +0.000 NA
ATOM      6  C   UNL     1       5.555   4.444  17.852  0.00  0.00    +0.000 C 
ATOM      7  C   UNL     1       4.551   5.471  18.434  0.00  0.00    +0.000 C 
ATOM      8  O   UNL     1       4.919   6.472  19.054  0.00  0.00    +0.000 OA
ENDROOT
BRANCH   1   9
ATOM      9  O   UNL     1       2.305   6.185  18.550  0.00  0.00    +0.000 OA
BRANCH   9  10
ATOM     10  C   UNL     1       2.112   6.294  19.960  0.00  0.00    +0.000 C 
BRANCH  10  12
ATOM     11  C   UNL     1       1.002   7.944  21.212  0.00  0.00    +0.000 C 
ATOM     12  O   UNL     1       2.159   7.631  20.444  0.00  0.00    +0.000 OA
ENDBRANCH  10  12
ENDBRANCH   9  10
ENDBRANCH   1   9
BRANCH   4  13
ATOM     13  C   UNL     1       3.807   1.961  18.071  0.00  0.00    +0.000 C 
BRANCH  13  14
ATOM     14  C   UNL     1       2.897   2.214  19.254  0.00  0.00    +0.000 A 
ATOM     15  C   UNL     1       1.503   2.137  19.124  0.00  0.00    +0.000 A 
ATOM     16  C   UNL     1       0.665   2.533  20.168  0.00  0.00    +0.000 A 
ATOM     17  C   UNL     1       1.212   2.963  21.373  0.00  0.00    +0.000 A 
ATOM     18  C   UNL     1       2.595   2.978  21.540  0.00  0.00    +0.000 A 
ATOM     19  C   UNL     1       3.433   2.610  20.486  0.00  0.00    +0.000 A 
ENDBRANCH  13  14
ENDBRANCH   4  13
BRANCH   5  20
ATOM     20  C   UNL     1       4.844   4.710  15.506  0.00  0.00    +0.000 C 
BRANCH  20  21
ATOM     21  C   UNL     1       5.675   4.395  14.281  0.00  0.00    +0.000 A 
ATOM     22  C   UNL     1       5.176   3.524  13.301  0.00  0.00    +0.000 A 
ATOM     23  C   UNL     1       5.904   3.275  12.139  0.00  0.00    +0.000 A 
ATOM     24  C   UNL     1       7.137   3.893  11.942  0.00  0.00    +0.000 A 
ATOM     25  C   UNL     1       7.648   4.753  12.911  0.00  0.00    +0.000 A 
ATOM     26  C   UNL     1       6.918   5.004  14.077  0.00  0.00    +0.000 A 
ENDBRANCH  20  21
ENDBRANCH   5  20
BRANCH   6  27
ATOM     27  C   UNL     1       7.006   5.021  17.718  0.00  0.00    +0.000 C 
BRANCH  27  28
ATOM     28  C   UNL     1       7.382   6.087  18.797  0.00  0.00    +0.000 C 
ATOM     29  C   UNL     1       8.290   5.590  19.927  0.00  0.00    +0.000 C 
ATOM     30  C   UNL     1       8.051   7.312  18.156  0.00  0.00    +0.000 C 
ENDBRANCH  27  28
BRANCH  27  31
ATOM     31  O   UNL     1       7.972   3.970  17.637  0.00  0.00    +0.000 OA
ATOM     32  H   UNL     1       7.539   3.118  17.804  0.00  0.00    +0.000 HD
ENDBRANCH  27  31
ENDBRANCH   6  27
TORSDOF 10
ENDMDL
MODEL 6
REMARK VINA RESULT:      -7.1      4.404      8.685
REMARK  Name = 
REMARK  13 active torsions:
REMARK  status: ('A' for Active; 'I' for Inactive)
REMARK    1  A    between atoms: C_1  and  O_2
REMARK    2  A    between atoms: O_2  and  C_3
REMARK    3  A    between atoms: C_3  and  O_4
REMARK    4  A    between atoms: O_4  and  N_5
REMARK    5  A    between atoms: C_8  and  C_9
REMARK    6  A    between atoms: C_9  and  C_10
REMARK    7  A    between atoms: N_16  and  C_17
REMARK    8  A    between atoms: C_17  and  C_18
REMARK    9  A    between atoms: C_24  and  C_25
REMARK   10  A    between atoms: C_25  and  O_26
REMARK   11  A    between atoms: C_25  and  C_27
REMARK   12  A    between atoms: C_27  and  C_28
REMARK   13  A    between atoms: C_27  and  C_29
REMARK                            x       y       z     vdW  Elec       q    Type
REMARK                         _______ _______ _______ _____ _____    ______ ____
ROOT
ATOM      1  N   UNL     1       3.264   5.104  18.385  0.00  0.00    +0.000 N 
ATOM      2  C   UNL     1       2.725   4.167  17.507  0.00  0.00    +0.000 C 
ATOM      3  O   UNL     1       1.554   4.144  17.127  0.00  0.00    +0.000 OA
ATOM      4  C   UNL     1       3.735   3.133  17.010  0.00  0.00    +0.000 C 
ATOM      5  N   UNL     1       5.022   3.821  16.697  0.00  0.00    +0.000 NA
ATOM      6  C   UNL     1       5.603   4.413  17.940  0.00  0.00    +0.000 C 
ATOM      7  C   UNL     1       4.617   5.417  18.589  0.00  0.00    +0.000 C 
ATOM      8  O   UNL     1       5.002   6.373  19.267  0.00  0.00    +0.000 OA
ENDROOT
BRANCH   1   9
ATOM      9  O   UNL     1       2.383   6.157  18.760  0.00  0.00    +0.000 OA
BRANCH   9  10
ATOM     10  C   UNL     1       2.439   7.225  17.814  0.00  0.00    +0.000 C 
BRANCH  10  12
ATOM     11  C   UNL     1       1.604   9.421  17.855  0.00  0.00    +0.000 C 
ATOM     12  O   UNL     1       2.549   8.512  18.409  0.00  0.00    +0.000 OA
ENDBRANCH  10  12
ENDBRANCH   9  10
ENDBRANCH   1   9
BRANCH   4  13
ATOM     13  C   UNL     1       3.818   1.948  18.016  0.00  0.00    +0.000 C 
BRANCH  13  14
ATOM     14  C   UNL     1       2.942   2.157  19.234  0.00  0.00    +0.000 A 
ATOM     15  C   UNL     1       1.545   2.082  19.142  0.00  0.00    +0.000 A 
ATOM     16  C   UNL     1       0.737   2.439  20.223  0.00  0.00    +0.000 A 
ATOM     17  C   UNL     1       1.319   2.828  21.426  0.00  0.00    +0.000 A 
ATOM     18  C   UNL     1       2.706   2.840  21.553  0.00  0.00    +0.000 A 
ATOM     19  C   UNL     1       3.514   2.511  20.462  0.00  0.00    +0.000 A 
ENDBRANCH  13  14
ENDBRANCH   4  13
BRANCH   5  20
ATOM     20  C   UNL     1       4.885   4.832  15.618  0.00  0.00    +0.000 C 
BRANCH  20  21
ATOM     21  C   UNL     1       5.642   4.538  14.340  0.00  0.00    +0.000 A 
ATOM     22  C   UNL     1       6.917   5.088  14.139  0.00  0.00    +0.000 A 
ATOM     23  C   UNL     1       7.650   4.774  12.996  0.00  0.00    +0.000 A 
ATOM     24  C   UNL     1       7.120   3.909  12.043  0.00  0.00    +0.000 A 
ATOM     25  C   UNL     1       5.851   3.363  12.226  0.00  0.00    +0.000 A 
ATOM     26  C   UNL     1       5.115   3.676  13.372  0.00  0.00    +0.000 A 
ENDBRANCH  20  21
ENDBRANCH   5  20
BRANCH   6  27
ATOM     27  C   UNL     1       7.061   4.975  17.834  0.00  0.00    +0.000 C 
BRANCH  27  28
ATOM     28  C   UNL     1       7.447   5.996  18.952  0.00  0.00    +0.000 C 
ATOM     29  C   UNL     1       8.362   5.452  20.055  0.00  0.00    +0.000 C 
ATOM     30  C   UNL     1       8.112   7.245  18.358  0.00  0.00    +0.000 C 
ENDBRANCH  27  28
BRANCH  27  31
ATOM     31  O   UNL     1       8.014   3.915  17.718  0.00  0.00    +0.000 OA
ATOM     32  H   UNL     1       8.843   4.175  18.149  0.00  0.00    +0.000 HD
ENDBRANCH  27  31
ENDBRANCH   6  27
TORSDOF 10
ENDMDL
MODEL 7
REMARK VINA RESULT:      -6.8      1.666      6.046
REMARK  Name = 
REMARK  13 active torsions:
REMARK  status: ('A' for Active; 'I' for Inactive)
REMARK    1  A    between atoms: C_1  and  O_2
REMARK    2  A    between atoms: O_2  and  C_3
REMARK    3  A    between atoms: C_3  and  O_4
REMARK    4  A    between atoms: O_4  and  N_5
REMARK    5  A    between atoms: C_8  and  C_9
REMARK    6  A    between atoms: C_9  and  C_10
REMARK    7  A    between atoms: N_16  and  C_17
REMARK    8  A    between atoms: C_17  and  C_18
REMARK    9  A    between atoms: C_24  and  C_25
REMARK   10  A    between atoms: C_25  and  O_26
REMARK   11  A    between atoms: C_25  and  C_27
REMARK   12  A    between atoms: C_27  and  C_28
REMARK   13  A    between atoms: C_27  and  C_29
REMARK                            x       y       z     vdW  Elec       q    Type
REMARK                         _______ _______ _______ _____ _____    ______ ____
ROOT
ATOM      1  N   UNL     1      -0.505  12.924  20.664  0.00  0.00    +0.000 N 
ATOM      2  C   UNL     1       0.884  12.889  20.558  0.00  0.00    +0.000 C 
ATOM      3  O   UNL     1       1.669  13.207  21.451  0.00  0.00    +0.000 OA
ATOM      4  C   UNL     1       1.389  12.389  19.205  0.00  0.00    +0.000 C 
ATOM      5  N   UNL     1       0.560  11.224  18.777  0.00  0.00    +0.000 NA
ATOM      6  C   UNL     1      -0.857  11.651  18.566  0.00  0.00    +0.000 C 
ATOM      7  C   UNL     1      -1.449  12.266  19.858  0.00  0.00    +0.000 C 
ATOM      8  O   UNL     1      -2.654  12.220  20.118  0.00  0.00    +0.000 OA
ENDROOT
BRANCH   1   9
ATOM      9  O   UNL     1      -1.005  13.257  21.953  0.00  0.00    +0.000 OA
BRANCH   9  10
ATOM     10  C   UNL     1      -1.473  12.092  22.631  0.00  0.00    +0.000 C 
BRANCH  10  12
ATOM     11  C   UNL     1      -0.664   9.935  23.099  0.00  0.00    +0.000 C 
ATOM     12  O   UNL     1      -0.440  11.333  23.249  0.00  0.00    +0.000 OA
ENDBRANCH  10  12
ENDBRANCH   9  10
ENDBRANCH   1   9
BRANCH   4  13
ATOM     13  C   UNL     1       1.474  13.575  18.201  0.00  0.00    +0.000 C 
BRANCH  13  14
ATOM     14  C   UNL     1       2.510  14.604  18.603  0.00  0.00    +0.000 A 
ATOM     15  C   UNL     1       3.868  14.266  18.697  0.00  0.00    +0.000 A 
ATOM     16  C   UNL     1       4.793  15.166  19.228  0.00  0.00    +0.000 A 
ATOM     17  C   UNL     1       4.379  16.434  19.625  0.00  0.00    +0.000 A 
ATOM     18  C   UNL     1       3.047  16.808  19.472  0.00  0.00    +0.000 A 
ATOM     19  C   UNL     1       2.115  15.897  18.969  0.00  0.00    +0.000 A 
ENDBRANCH  13  14
ENDBRANCH   4  13
BRANCH   5  20
ATOM     20  C   UNL     1       0.654  10.076  19.715  0.00  0.00    +0.000 C 
BRANCH  20  21
ATOM     21  C   UNL     1       1.486   8.903  19.239  0.00  0.00    +0.000 A 
ATOM     22  C   UNL     1       2.075   8.934  17.966  0.00  0.00    +0.000 A 
ATOM     23  C   UNL     1       2.894   7.890  17.540  0.00  0.00    +0.000 A 
ATOM     24  C   UNL     1       3.134   6.805  18.380  0.00  0.00    +0.000 A 
ATOM     25  C   UNL     1       2.548   6.758  19.643  0.00  0.00    +0.000 A 
ATOM     26  C   UNL     1       1.727   7.805  20.071  0.00  0.00    +0.000 A 
ENDBRANCH  20  21
ENDBRANCH   5  20
BRANCH   6  27
ATOM     27  C   UNL     1      -1.813  10.605  17.897  0.00  0.00    +0.000 C 
BRANCH  27  28
ATOM     28  C   UNL     1      -3.006  11.229  17.107  0.00  0.00    +0.000 C 
ATOM     29  C   UNL     1      -2.983  11.005  15.591  0.00  0.00    +0.000 C 
ATOM     30  C   UNL     1      -4.353  10.719  17.640  0.00  0.00    +0.000 C 
ENDBRANCH  27  28
BRANCH  27  31
ATOM     31  O   UNL     1      -1.077   9.664  17.112  0.00  0.00    +0.000 OA
ATOM     32  H   UNL     1      -1.562   9.474  16.294  0.00  0.00    +0.000 HD
ENDBRANCH  27  31
ENDBRANCH   6  27
TORSDOF 10
ENDMDL
MODEL 8
REMARK VINA RESULT:      -6.8      1.568      5.464
REMARK  Name = 
REMARK  13 active torsions:
REMARK  status: ('A' for Active; 'I' for Inactive)
REMARK    1  A    between atoms: C_1  and  O_2
REMARK    2  A    between atoms: O_2  and  C_3
REMARK    3  A    between atoms: C_3  and  O_4
REMARK    4  A    between atoms: O_4  and  N_5
REMARK    5  A    between atoms: C_8  and  C_9
REMARK    6  A    between atoms: C_9  and  C_10
REMARK    7  A    between atoms: N_16  and  C_17
REMARK    8  A    between atoms: C_17  and  C_18
REMARK    9  A    between atoms: C_24  and  C_25
REMARK   10  A    between atoms: C_25  and  O_26
REMARK   11  A    between atoms: C_25  and  C_27
REMARK   12  A    between atoms: C_27  and  C_28
REMARK   13  A    between atoms: C_27  and  C_29
REMARK                            x       y       z     vdW  Elec       q    Type
REMARK                         _______ _______ _______ _____ _____    ______ ____
ROOT
ATOM      1  N   UNL     1       1.712   8.670  19.507  0.00  0.00    +0.000 N 
ATOM      2  C   UNL     1       1.448   9.304  18.295  0.00  0.00    +0.000 C 
ATOM      3  O   UNL     1       1.586   8.793  17.184  0.00  0.00    +0.000 OA
ATOM      4  C   UNL     1       0.934  10.736  18.445  0.00  0.00    +0.000 C 
ATOM      5  N   UNL     1      -0.053  10.784  19.564  0.00  0.00    +0.000 NA
ATOM      6  C   UNL     1       0.616  10.439  20.855  0.00  0.00    +0.000 C 
ATOM      7  C   UNL     1       1.262   9.032  20.787  0.00  0.00    +0.000 C 
ATOM      8  O   UNL     1       1.408   8.326  21.787  0.00  0.00    +0.000 OA
ENDROOT
BRANCH   1   9
ATOM      9  O   UNL     1       2.064   7.295  19.405  0.00  0.00    +0.000 OA
BRANCH   9  10
ATOM     10  C   UNL     1       3.321   7.142  18.748  0.00  0.00    +0.000 C 
BRANCH  10  12
ATOM     11  C   UNL     1       2.243   5.162  18.083  0.00  0.00    +0.000 C 
ATOM     12  O   UNL     1       3.446   5.921  18.028  0.00  0.00    +0.000 OA
ENDBRANCH  10  12
ENDBRANCH   9  10
ENDBRANCH   1   9
BRANCH   4  13
ATOM     13  C   UNL     1       2.135  11.722  18.548  0.00  0.00    +0.000 C 
BRANCH  13  14
ATOM     14  C   UNL     1       1.695  13.148  18.804  0.00  0.00    +0.000 A 
ATOM     15  C   UNL     1       2.527  14.051  19.483  0.00  0.00    +0.000 A 
ATOM     16  C   UNL     1       2.056  15.308  19.864  0.00  0.00    +0.000 A 
ATOM     17  C   UNL     1       0.763  15.697  19.527  0.00  0.00    +0.000 A 
ATOM     18  C   UNL     1      -0.050  14.837  18.792  0.00  0.00    +0.000 A 
ATOM     19  C   UNL     1       0.411  13.568  18.436  0.00  0.00    +0.000 A 
ENDBRANCH  13  14
ENDBRANCH   4  13
BRANCH   5  20
ATOM     20  C   UNL     1      -1.243   9.930  19.317  0.00  0.00    +0.000 C 
BRANCH  20  21
ATOM     21  C   UNL     1      -2.147  10.372  18.185  0.00  0.00    +0.000 A 
ATOM     22  C   UNL     1      -2.012   9.791  16.915  0.00  0.00    +0.000 A 
ATOM     23  C   UNL     1      -2.878  10.142  15.881  0.00  0.00    +0.000 A 
ATOM     24  C   UNL     1      -3.888  11.076  16.104  0.00  0.00    +0.000 A 
ATOM     25  C   UNL     1      -4.027  11.666  17.358  0.00  0.00    +0.000 A 
ATOM     26  C   UNL     1      -3.159  11.314  18.396  0.00  0.00    +0.000 A 
ENDBRANCH  20  21
ENDBRANCH   5  20
BRANCH   6  27
ATOM     27  C   UNL     1      -0.220  10.661  22.161  0.00  0.00    +0.000 C 
BRANCH  27  28
ATOM     28  C   UNL     1      -1.191  11.884  22.109  0.00  0.00    +0.000 C 
ATOM     29  C   UNL     1      -2.285  11.905  23.182  0.00  0.00    +0.000 C 
ATOM     30  C   UNL     1      -0.420  13.209  22.194  0.00  0.00    +0.000 C 
ENDBRANCH  27  28
BRANCH  27  31
ATOM     31  O   UNL     1      -0.886   9.459  22.557  0.00  0.00    +0.000 OA
ATOM     32  H   UNL     1      -0.274   8.711  22.484  0.00  0.00    +0.000 HD
ENDBRANCH  27  31
ENDBRANCH   6  27
TORSDOF 10
ENDMDL
MODEL 9
REMARK VINA RESULT:      -6.7      1.762      2.614
REMARK  Name = 
REMARK  13 active torsions:
REMARK  status: ('A' for Active; 'I' for Inactive)
REMARK    1  A    between atoms: C_1  and  O_2
REMARK    2  A    between atoms: O_2  and  C_3
REMARK    3  A    between atoms: C_3  and  O_4
REMARK    4  A    between atoms: O_4  and  N_5
REMARK    5  A    between atoms: C_8  and  C_9
REMARK    6  A    between atoms: C_9  and  C_10
REMARK    7  A    between atoms: N_16  and  C_17
REMARK    8  A    between atoms: C_17  and  C_18
REMARK    9  A    between atoms: C_24  and  C_25
REMARK   10  A    between atoms: C_25  and  O_26
REMARK   11  A    between atoms: C_25  and  C_27
REMARK   12  A    between atoms: C_27  and  C_28
REMARK   13  A    between atoms: C_27  and  C_29
REMARK                            x       y       z     vdW  Elec       q    Type
REMARK                         _______ _______ _______ _____ _____    ______ ____
ROOT
ATOM      1  N   UNL     1      -0.611  12.635  22.500  0.00  0.00    +0.000 N 
ATOM      2  C   UNL     1      -0.942  11.293  22.330  0.00  0.00    +0.000 C 
ATOM      3  O   UNL     1      -1.584  10.615  23.132  0.00  0.00    +0.000 OA
ATOM      4  C   UNL     1      -0.448  10.696  21.012  0.00  0.00    +0.000 C 
ATOM      5  N   UNL     1      -0.674  11.683  19.916  0.00  0.00    +0.000 NA
ATOM      6  C   UNL     1       0.144  12.912  20.155  0.00  0.00    +0.000 C 
ATOM      7  C   UNL     1      -0.208  13.555  21.519  0.00  0.00    +0.000 C 
ATOM      8  O   UNL     1      -0.090  14.766  21.726  0.00  0.00    +0.000 OA
ENDROOT
BRANCH   1   9
ATOM      9  O   UNL     1      -1.170  13.253  23.653  0.00  0.00    +0.000 OA
BRANCH   9  10
ATOM     10  C   UNL     1      -2.530  13.620  23.421  0.00  0.00    +0.000 C 
BRANCH  10  12
ATOM     11  C   UNL     1      -2.991  15.058  25.222  0.00  0.00    +0.000 C 
ATOM     12  O   UNL     1      -2.838  14.953  23.810  0.00  0.00    +0.000 OA
ENDBRANCH  10  12
ENDBRANCH   9  10
ENDBRANCH   1   9
BRANCH   4  13
ATOM     13  C   UNL     1       1.011  10.179  21.179  0.00  0.00    +0.000 C 
BRANCH  13  14
ATOM     14  C   UNL     1       1.385   9.146  20.136  0.00  0.00    +0.000 A 
ATOM     15  C   UNL     1       1.779   7.853  20.507  0.00  0.00    +0.000 A 
ATOM     16  C   UNL     1       2.282   6.960  19.559  0.00  0.00    +0.000 A 
ATOM     17  C   UNL     1       2.350   7.334  18.220  0.00  0.00    +0.000 A 
ATOM     18  C   UNL     1       1.897   8.590  17.828  0.00  0.00    +0.000 A 
ATOM     19  C   UNL     1       1.421   9.494  18.780  0.00  0.00    +0.000 A 
ENDBRANCH  13  14
ENDBRANCH   4  13
BRANCH   5  20
ATOM     20  C   UNL     1      -2.110  12.008  19.722  0.00  0.00    +0.000 C 
BRANCH  20  21
ATOM     21  C   UNL     1      -2.766  11.390  18.506  0.00  0.00    +0.000 A 
ATOM     22  C   UNL     1      -4.064  11.777  18.138  0.00  0.00    +0.000 A 
ATOM     23  C   UNL     1      -4.655  11.263  16.985  0.00  0.00    +0.000 A 
ATOM     24  C   UNL     1      -3.958  10.358  16.188  0.00  0.00    +0.000 A 
ATOM     25  C   UNL     1      -2.672   9.958  16.547  0.00  0.00    +0.000 A 
ATOM     26  C   UNL     1      -2.078  10.474  17.702  0.00  0.00    +0.000 A 
ENDBRANCH  20  21
ENDBRANCH   5  20
BRANCH   6  27
ATOM     27  C   UNL     1       0.201  13.955  18.987  0.00  0.00    +0.000 C 
BRANCH  27  28
ATOM     28  C   UNL     1       1.642  14.294  18.490  0.00  0.00    +0.000 C 
ATOM     29  C   UNL     1       2.381  15.369  19.294  0.00  0.00    +0.000 C 
ATOM     30  C   UNL     1       2.526  13.039  18.453  0.00  0.00    +0.000 C 
ENDBRANCH  27  28
BRANCH  27  31
ATOM     31  O   UNL     1      -0.666  13.574  17.915  0.00  0.00    +0.000 OA
ATOM     32  H   UNL     1      -0.640  14.251  17.221  0.00  0.00    +0.000 HD
ENDBRANCH  27  31
ENDBRANCH   6  27
TORSDOF 10
ENDMDL
