MODEL 1
REMARK VINA RESULT:      -6.5      0.000      0.000
REMARK  Name = 
REMARK  6 active torsions:
REMARK  status: ('A' for Active; 'I' for Inactive)
REMARK    1  A    between atoms: C_1  and  N_2
REMARK    2  A    between atoms: N_2  and  C_3
REMARK    3  A    between atoms: C_4  and  C_6
REMARK    4  A    between atoms: C_6  and  C_8
REMARK    5  A    between atoms: C_8  and  C_9
REMARK    6  A    between atoms: C_9  and  C_10
REMARK                            x       y       z     vdW  Elec       q    Type
REMARK                         _______ _______ _______ _____ _____    ______ ____
ROOT
ATOM      1  C   UNL     1       5.768   3.652  15.952  0.00  0.00    +0.000 C 
ENDROOT
BRANCH   1   2
ATOM      2  C   UNL     1       6.963   4.586  15.899  0.00  0.00    +0.000 C 
ATOM      3  O   UNL     1       7.383   5.064  14.853  0.00  0.00    +0.000 OA
BRANCH   2   7
ATOM      4  C   UNL     1       8.017   6.360  19.169  0.00  0.00    +0.000 C 
ATOM      5  N   UNL     1       7.386   6.126  17.883  0.00  0.00    +0.000 N 
ATOM      6  C   UNL     1       6.533   7.170  17.335  0.00  0.00    +0.000 C 
ATOM      7  C   UNL     1       7.616   4.894  17.264  0.00  0.00    +0.000 C 
ATOM      8  O   UNL     1       8.327   4.022  17.759  0.00  0.00    +0.000 OA
ENDBRANCH   2   7
ENDBRANCH   1   2
BRANCH   1   9
ATOM      9  C   UNL     1       4.469   4.438  16.118  0.00  0.00    +0.000 C 
BRANCH   9  10
ATOM     10  C   UNL     1       3.685   4.025  17.339  0.00  0.00    +0.000 A 
ATOM     11  C   UNL     1       2.596   4.797  17.771  0.00  0.00    +0.000 A 
ATOM     12  C   UNL     1       1.851   4.409  18.887  0.00  0.00    +0.000 A 
ATOM     13  C   UNL     1       2.192   3.249  19.579  0.00  0.00    +0.000 A 
ATOM     14 CL   UNL     1       1.268   2.766  20.947  0.00  0.00    +0.000 Cl
ATOM     15  C   UNL     1       3.278   2.479  19.168  0.00  0.00    +0.000 A 
ATOM     16  C   UNL     1       4.025   2.867  18.053  0.00  0.00    +0.000 A 
ENDBRANCH   9  10
ENDBRANCH   1   9
TORSDOF 4
ENDMDL
MODEL 2
REMARK VINA RESULT:      -6.2      1.635      2.910
REMARK  Name = 
REMARK  6 active torsions:
REMARK  status: ('A' for Active; 'I' for Inactive)
REMARK    1  A    between atoms: C_1  and  N_2
REMARK    2  A    between atoms: N_2  and  C_3
REMARK    3  A    between atoms: C_4  and  C_6
REMARK    4  A    between atoms: C_6  and  C_8
REMARK    5  A    between atoms: C_8  and  C_9
REMARK    6  A    between atoms: C_9  and  C_10
REMARK                            x       y       z     vdW  Elec       q    Type
REMARK                         _______ _______ _______ _____ _____    ______ ____
ROOT
ATOM      1  C   UNL     1       6.286   6.028  17.737  0.00  0.00    +0.000 C 
ENDROOT
BRANCH   1   2
ATOM      2  C   UNL     1       7.210   5.011  17.094  0.00  0.00    +0.000 C 
ATOM      3  O   UNL     1       8.019   4.353  17.736  0.00  0.00    +0.000 OA
BRANCH   2   7
ATOM      4  C   UNL     1       5.982   3.909  13.597  0.00  0.00    +0.000 C 
ATOM      5  N   UNL     1       6.087   4.004  15.041  0.00  0.00    +0.000 N 
ATOM      6  C   UNL     1       5.160   3.229  15.852  0.00  0.00    +0.000 C 
ATOM      7  C   UNL     1       7.060   4.862  15.565  0.00  0.00    +0.000 C 
ATOM      8  O   UNL     1       7.818   5.520  14.856  0.00  0.00    +0.000 OA
ENDBRANCH   2   7
ENDBRANCH   1   2
BRANCH   1   9
ATOM      9  C   UNL     1       5.816   5.546  19.109  0.00  0.00    +0.000 C 
BRANCH   9  10
ATOM     10  C   UNL     1       4.535   4.752  19.045  0.00  0.00    +0.000 A 
ATOM     11  C   UNL     1       3.360   5.348  18.566  0.00  0.00    +0.000 A 
ATOM     12  C   UNL     1       2.175   4.613  18.481  0.00  0.00    +0.000 A 
ATOM     13  C   UNL     1       2.158   3.279  18.879  0.00  0.00    +0.000 A 
ATOM     14 CL   UNL     1       0.702   2.370  18.765  0.00  0.00    +0.000 Cl
ATOM     15  C   UNL     1       3.316   2.675  19.368  0.00  0.00    +0.000 A 
ATOM     16  C   UNL     1       4.500   3.411  19.454  0.00  0.00    +0.000 A 
ENDBRANCH   9  10
ENDBRANCH   1   9
TORSDOF 4
ENDMDL
MODEL 3
REMARK VINA RESULT:      -6.1      1.994      2.418
REMARK  Name = 
REMARK  6 active torsions:
REMARK  status: ('A' for Active; 'I' for Inactive)
REMARK    1  A    between atoms: C_1  and  N_2
REMARK    2  A    between atoms: N_2  and  C_3
REMARK    3  A    between atoms: C_4  and  C_6
REMARK    4  A    between atoms: C_6  and  C_8
REMARK    5  A    between atoms: C_8  and  C_9
REMARK    6  A    between atoms: C_9  and  C_10
REMARK                            x       y       z     vdW  Elec       q    Type
REMARK                         _______ _______ _______ _____ _____    ______ ____
ROOT
ATOM      1  C   UNL     1       3.846   6.618  17.800  0.00  0.00    +0.000 C 
ENDROOT
BRANCH   1   2
ATOM      2  C   UNL     1       4.805   5.499  17.443  0.00  0.00    +0.000 C 
ATOM      3  O   UNL     1       4.716   4.859  16.403  0.00  0.00    +0.000 OA
BRANCH   2   7
ATOM      4  C   UNL     1       8.086   5.675  19.481  0.00  0.00    +0.000 C 
ATOM      5  N   UNL     1       7.087   5.972  18.471  0.00  0.00    +0.000 N 
ATOM      6  C   UNL     1       7.358   7.047  17.528  0.00  0.00    +0.000 C 
ATOM      7  C   UNL     1       5.908   5.220  18.487  0.00  0.00    +0.000 C 
ATOM      8  O   UNL     1       5.696   4.330  19.307  0.00  0.00    +0.000 OA
ENDBRANCH   2   7
ENDBRANCH   1   2
BRANCH   1   9
ATOM      9  C   UNL     1       2.401   6.122  17.792  0.00  0.00    +0.000 C 
BRANCH   9  10
ATOM     10  C   UNL     1       2.118   5.120  18.883  0.00  0.00    +0.000 A 
ATOM     11  C   UNL     1       2.476   5.402  20.209  0.00  0.00    +0.000 A 
ATOM     12  C   UNL     1       2.196   4.491  21.230  0.00  0.00    +0.000 A 
ATOM     13  C   UNL     1       1.560   3.289  20.928  0.00  0.00    +0.000 A 
ATOM     14 CL   UNL     1       1.207   2.170  22.186  0.00  0.00    +0.000 Cl
ATOM     15  C   UNL     1       1.208   2.989  19.614  0.00  0.00    +0.000 A 
ATOM     16  C   UNL     1       1.489   3.901  18.593  0.00  0.00    +0.000 A 
ENDBRANCH   9  10
ENDBRANCH   1   9
TORSDOF 4
ENDMDL
MODEL 4
REMARK VINA RESULT:      -6.0      3.969      5.880
REMARK  Name = 
REMARK  6 active torsions:
REMARK  status: ('A' for Active; 'I' for Inactive)
REMARK    1  A    between atoms: C_1  and  N_2
REMARK    2  A    between atoms: N_2  and  C_3
REMARK    3  A    between atoms: C_4  and  C_6
REMARK    4  A    between atoms: C_6  and  C_8
REMARK    5  A    between atoms: C_8  and  C_9
REMARK    6  A    between atoms: C_9  and  C_10
REMARK                            x       y       z     vdW  Elec       q    Type
REMARK                         _______ _______ _______ _____ _____    ______ ____
ROOT
ATOM      1  C   UNL     1       3.677   3.549  17.376  0.00  0.00    +0.000 C 
ENDROOT
BRANCH   1   2
ATOM      2  C   UNL     1       2.325   3.825  18.006  0.00  0.00    +0.000 C 
ATOM      3  O   UNL     1       1.552   4.670  17.570  0.00  0.00    +0.000 OA
BRANCH   2   7
ATOM      4  C   UNL     1       1.554   2.709  21.627  0.00  0.00    +0.000 C 
ATOM      5  N   UNL     1       1.883   3.564  20.501  0.00  0.00    +0.000 N 
ATOM      6  C   UNL     1       2.051   4.989  20.743  0.00  0.00    +0.000 C 
ATOM      7  C   UNL     1       1.988   2.964  19.242  0.00  0.00    +0.000 C 
ATOM      8  O   UNL     1       1.821   1.759  19.062  0.00  0.00    +0.000 OA
ENDBRANCH   2   7
ENDBRANCH   1   2
BRANCH   1   9
ATOM      9  C   UNL     1       4.797   3.684  18.406  0.00  0.00    +0.000 C 
BRANCH   9  10
ATOM     10  C   UNL     1       5.633   4.922  18.206  0.00  0.00    +0.000 A 
ATOM     11  C   UNL     1       6.852   5.067  18.884  0.00  0.00    +0.000 A 
ATOM     12  C   UNL     1       7.645   6.200  18.686  0.00  0.00    +0.000 A 
ATOM     13  C   UNL     1       7.220   7.197  17.811  0.00  0.00    +0.000 A 
ATOM     14 CL   UNL     1       8.201   8.587  17.559  0.00  0.00    +0.000 Cl
ATOM     15  C   UNL     1       6.006   7.072  17.138  0.00  0.00    +0.000 A 
ATOM     16  C   UNL     1       5.213   5.940  17.337  0.00  0.00    +0.000 A 
ENDBRANCH   9  10
ENDBRANCH   1   9
TORSDOF 4
ENDMDL
MODEL 5
REMARK VINA RESULT:      -6.0      1.628      2.887
REMARK  Name = 
REMARK  6 active torsions:
REMARK  status: ('A' for Active; 'I' for Inactive)
REMARK    1  A    between atoms: C_1  and  N_2
REMARK    2  A    between atoms: N_2  and  C_3
REMARK    3  A    between atoms: C_4  and  C_6
REMARK    4  A    between atoms: C_6  and  C_8
REMARK    5  A    between atoms: C_8  and  C_9
REMARK    6  A    between atoms: C_9  and  C_10
REMARK                            x       y       z     vdW  Elec       q    Type
REMARK                         _______ _______ _______ _____ _____    ______ ____
ROOT
ATOM      1  C   UNL     1       4.964   6.361  17.955  0.00  0.00    +0.000 C 
ENDROOT
BRANCH   1   2
ATOM      2  C   UNL     1       6.170   5.463  17.753  0.00  0.00    +0.000 C 
ATOM      3  O   UNL     1       6.554   4.669  18.603  0.00  0.00    +0.000 OA
BRANCH   2   7
ATOM      4  C   UNL     1       7.330   4.904  14.107  0.00  0.00    +0.000 C 
ATOM      5  N   UNL     1       6.638   4.703  15.367  0.00  0.00    +0.000 N 
ATOM      6  C   UNL     1       5.713   3.586  15.475  0.00  0.00    +0.000 C 
ATOM      7  C   UNL     1       6.885   5.620  16.394  0.00  0.00    +0.000 C 
ATOM      8  O   UNL     1       7.659   6.568  16.269  0.00  0.00    +0.000 OA
ENDBRANCH   2   7
ENDBRANCH   1   2
BRANCH   1   9
ATOM      9  C   UNL     1       3.680   5.656  17.520  0.00  0.00    +0.000 C 
BRANCH   9  10
ATOM     10  C   UNL     1       3.044   4.857  18.630  0.00  0.00    +0.000 A 
ATOM     11  C   UNL     1       2.886   3.470  18.499  0.00  0.00    +0.000 A 
ATOM     12  C   UNL     1       2.319   2.719  19.532  0.00  0.00    +0.000 A 
ATOM     13  C   UNL     1       1.902   3.354  20.700  0.00  0.00    +0.000 A 
ATOM     14 CL   UNL     1       1.213   2.428  21.975  0.00  0.00    +0.000 Cl
ATOM     15  C   UNL     1       2.041   4.733  20.840  0.00  0.00    +0.000 A 
ATOM     16  C   UNL     1       2.608   5.484  19.806  0.00  0.00    +0.000 A 
ENDBRANCH   9  10
ENDBRANCH   1   9
TORSDOF 4
ENDMDL
MODEL 6
REMARK VINA RESULT:      -5.9      3.714      5.915
REMARK  Name = 
REMARK  6 active torsions:
REMARK  status: ('A' for Active; 'I' for Inactive)
REMARK    1  A    between atoms: C_1  and  N_2
REMARK    2  A    between atoms: N_2  and  C_3
REMARK    3  A    between atoms: C_4  and  C_6
REMARK    4  A    between atoms: C_6  and  C_8
REMARK    5  A    between atoms: C_8  and  C_9
REMARK    6  A    between atoms: C_9  and  C_10
REMARK                            x       y       z     vdW  Elec       q    Type
REMARK                         _______ _______ _______ _____ _____    ______ ____
ROOT
ATOM      1  C   UNL     1       4.226   4.973  19.602  0.00  0.00    +0.000 C 
ENDROOT
BRANCH   1   2
ATOM      2  C   UNL     1       4.184   3.458  19.540  0.00  0.00    +0.000 C 
ATOM      3  O   UNL     1       5.061   2.751  20.021  0.00  0.00    +0.000 OA
BRANCH   2   7
ATOM      4  C   UNL     1       0.630   2.121  18.808  0.00  0.00    +0.000 C 
ATOM      5  N   UNL     1       1.760   2.673  19.532  0.00  0.00    +0.000 N 
ATOM      6  C   UNL     1       1.578   3.022  20.933  0.00  0.00    +0.000 C 
ATOM      7  C   UNL     1       2.951   2.864  18.825  0.00  0.00    +0.000 C 
ATOM      8  O   UNL     1       3.073   2.578  17.635  0.00  0.00    +0.000 OA
ENDBRANCH   2   7
ENDBRANCH   1   2
BRANCH   1   9
ATOM      9  C   UNL     1       5.609   5.496  19.218  0.00  0.00    +0.000 C 
BRANCH   9  10
ATOM     10  C   UNL     1       5.924   5.305  17.756  0.00  0.00    +0.000 A 
ATOM     11  C   UNL     1       7.129   4.703  17.367  0.00  0.00    +0.000 A 
ATOM     12  C   UNL     1       7.418   4.501  16.016  0.00  0.00    +0.000 A 
ATOM     13  C   UNL     1       6.505   4.904  15.045  0.00  0.00    +0.000 A 
ATOM     14 CL   UNL     1       6.856   4.646  13.381  0.00  0.00    +0.000 Cl
ATOM     15  C   UNL     1       5.308   5.514  15.415  0.00  0.00    +0.000 A 
ATOM     16  C   UNL     1       5.019   5.717  16.767  0.00  0.00    +0.000 A 
ENDBRANCH   9  10
ENDBRANCH   1   9
TORSDOF 4
ENDMDL
MODEL 7
REMARK VINA RESULT:      -5.9      3.821      5.545
REMARK  Name = 
REMARK  6 active torsions:
REMARK  status: ('A' for Active; 'I' for Inactive)
REMARK    1  A    between atoms: C_1  and  N_2
REMARK    2  A    between atoms: N_2  and  C_3
REMARK    3  A    between atoms: C_4  and  C_6
REMARK    4  A    between atoms: C_6  and  C_8
REMARK    5  A    between atoms: C_8  and  C_9
REMARK    6  A    between atoms: C_9  and  C_10
REMARK                            x       y       z     vdW  Elec       q    Type
REMARK                         _______ _______ _______ _____ _____    ______ ____
ROOT
ATOM      1  C   UNL     1       1.785   4.049  17.647  0.00  0.00    +0.000 C 
ENDROOT
BRANCH   1   2
ATOM      2  C   UNL     1       1.659   2.760  18.437  0.00  0.00    +0.000 C 
ATOM      3  O   UNL     1       0.578   2.243  18.692  0.00  0.00    +0.000 OA
BRANCH   2   7
ATOM      4  C   UNL     1       4.647   1.646  20.624  0.00  0.00    +0.000 C 
ATOM      5  N   UNL     1       3.386   2.254  20.240  0.00  0.00    +0.000 N 
ATOM      6  C   UNL     1       2.597   2.913  21.269  0.00  0.00    +0.000 C 
ATOM      7  C   UNL     1       2.995   2.142  18.902  0.00  0.00    +0.000 C 
ATOM      8  O   UNL     1       3.673   1.562  18.056  0.00  0.00    +0.000 OA
ENDBRANCH   2   7
ENDBRANCH   1   2
BRANCH   1   9
ATOM      9  C   UNL     1       2.188   5.209  18.555  0.00  0.00    +0.000 C 
BRANCH   9  10
ATOM     10  C   UNL     1       3.600   5.680  18.315  0.00  0.00    +0.000 A 
ATOM     11  C   UNL     1       4.635   5.268  19.167  0.00  0.00    +0.000 A 
ATOM     12  C   UNL     1       5.950   5.680  18.937  0.00  0.00    +0.000 A 
ATOM     13  C   UNL     1       6.236   6.511  17.856  0.00  0.00    +0.000 A 
ATOM     14 CL   UNL     1       7.856   7.011  17.568  0.00  0.00    +0.000 Cl
ATOM     15  C   UNL     1       5.216   6.938  17.008  0.00  0.00    +0.000 A 
ATOM     16  C   UNL     1       3.901   6.526  17.238  0.00  0.00    +0.000 A 
ENDBRANCH   9  10
ENDBRANCH   1   9
TORSDOF 4
ENDMDL
MODEL 8
REMARK VINA RESULT:      -5.9      3.941      5.851
REMARK  Name = 
REMARK  6 active torsions:
REMARK  status: ('A' for Active; 'I' for Inactive)
REMARK    1  A    between atoms: C_1  and  N_2
REMARK    2  A    between atoms: N_2  and  C_3
REMARK    3  A    between atoms: C_4  and  C_6
REMARK    4  A    between atoms: C_6  and  C_8
REMARK    5  A    between atoms: C_8  and  C_9
REMARK    6  A    between atoms: C_9  and  C_10
REMARK                            x       y       z     vdW  Elec       q    Type
REMARK                         _______ _______ _______ _____ _____    ______ ____
ROOT
ATOM      1  C   UNL     1       3.253   4.052  17.247  0.00  0.00    +0.000 C 
ENDROOT
BRANCH   1   2
ATOM      2  C   UNL     1       2.530   2.918  17.948  0.00  0.00    +0.000 C 
ATOM      3  O   UNL     1       2.377   1.815  17.438  0.00  0.00    +0.000 OA
BRANCH   2   7
ATOM      4  C   UNL     1       2.212   3.278  21.785  0.00  0.00    +0.000 C 
ATOM      5  N   UNL     1       2.758   2.932  20.485  0.00  0.00    +0.000 N 
ATOM      6  C   UNL     1       4.070   2.306  20.433  0.00  0.00    +0.000 C 
ATOM      7  C   UNL     1       1.995   3.252  19.357  0.00  0.00    +0.000 C 
ATOM      8  O   UNL     1       0.896   3.799  19.429  0.00  0.00    +0.000 OA
ENDBRANCH   2   7
ENDBRANCH   1   2
BRANCH   1   9
ATOM      9  C   UNL     1       4.745   3.748  17.114  0.00  0.00    +0.000 C 
BRANCH   9  10
ATOM     10  C   UNL     1       5.614   4.958  17.344  0.00  0.00    +0.000 A 
ATOM     11  C   UNL     1       6.813   4.838  18.061  0.00  0.00    +0.000 A 
ATOM     12  C   UNL     1       7.636   5.949  18.259  0.00  0.00    +0.000 A 
ATOM     13  C   UNL     1       7.262   7.188  17.744  0.00  0.00    +0.000 A 
ATOM     14 CL   UNL     1       8.280   8.554  17.979  0.00  0.00    +0.000 Cl
ATOM     15  C   UNL     1       6.068   7.325  17.039  0.00  0.00    +0.000 A 
ATOM     16  C   UNL     1       5.244   6.214  16.842  0.00  0.00    +0.000 A 
ENDBRANCH   9  10
ENDBRANCH   1   9
TORSDOF 4
ENDMDL
MODEL 9
REMARK VINA RESULT:      -5.9      2.008      3.090
REMARK  Name = 
REMARK  6 active torsions:
REMARK  status: ('A' for Active; 'I' for Inactive)
REMARK    1  A    between atoms: C_1  and  N_2
REMARK    2  A    between atoms: N_2  and  C_3
REMARK    3  A    between atoms: C_4  and  C_6
REMARK    4  A    between atoms: C_6  and  C_8
REMARK    5  A    between atoms: C_8  and  C_9
REMARK    6  A    between atoms: C_9  and  C_10
REMARK                            x       y       z     vdW  Elec       q    Type
REMARK                         _______ _______ _______ _____ _____    ______ ____
ROOT
ATOM      1  C   UNL     1       6.685   6.137  16.790  0.00  0.00    +0.000 C 
ENDROOT
BRANCH   1   2
ATOM      2  C   UNL     1       7.154   4.737  16.442  0.00  0.00    +0.000 C 
ATOM      3  O   UNL     1       8.103   4.200  16.999  0.00  0.00    +0.000 OA
BRANCH   2   7
ATOM      4  C   UNL     1       5.860   3.592  12.983  0.00  0.00    +0.000 C 
ATOM      5  N   UNL     1       6.642   4.289  13.987  0.00  0.00    +0.000 N 
ATOM      6  C   UNL     1       7.699   5.184  13.539  0.00  0.00    +0.000 C 
ATOM      7  C   UNL     1       6.348   4.032  15.330  0.00  0.00    +0.000 C 
ATOM      8  O   UNL     1       5.461   3.256  15.681  0.00  0.00    +0.000 OA
ENDBRANCH   2   7
ENDBRANCH   1   2
BRANCH   1   9
ATOM      9  C   UNL     1       6.149   6.193  18.220  0.00  0.00    +0.000 C 
BRANCH   9  10
ATOM     10  C   UNL     1       4.865   5.421  18.396  0.00  0.00    +0.000 A 
ATOM     11  C   UNL     1       3.694   5.844  17.749  0.00  0.00    +0.000 A 
ATOM     12  C   UNL     1       2.507   5.122  17.888  0.00  0.00    +0.000 A 
ATOM     13  C   UNL     1       2.482   3.975  18.678  0.00  0.00    +0.000 A 
ATOM     14 CL   UNL     1       1.022   3.080  18.841  0.00  0.00    +0.000 Cl
ATOM     15  C   UNL     1       3.634   3.549  19.336  0.00  0.00    +0.000 A 
ATOM     16  C   UNL     1       4.822   4.272  19.198  0.00  0.00    +0.000 A 
ENDBRANCH   9  10
ENDBRANCH   1   9
TORSDOF 4
ENDMDL
