MODEL 1
REMARK VINA RESULT:      -7.2      0.000      0.000
REMARK  Name = 
REMARK  4 active torsions:
REMARK  status: ('A' for Active; 'I' for Inactive)
REMARK    1  A    between atoms: O_1  and  C_2
REMARK    2  A    between atoms: C_5  and  C_6
REMARK    3  A    between atoms: N_8  and  C_9
REMARK    4  A    between atoms: C_9  and  C_10
REMARK                            x       y       z     vdW  Elec       q    Type
REMARK                         _______ _______ _______ _____ _____    ______ ____
ROOT
ATOM      1  C   UNL     1       4.251   4.886  18.239  0.00  0.00    +0.000 A 
ATOM      2  C   UNL     1       5.549   4.527  17.952  0.00  0.00    +0.000 A 
ATOM      3  N   UNL     1       5.890   5.339  16.913  0.00  0.00    +0.000 N 
ATOM      4  N   UNL     1       4.871   6.153  16.570  0.00  0.00    +0.000 NA
ATOM      5  N   UNL     1       3.866   5.901  17.401  0.00  0.00    +0.000 NA
ENDROOT
BRANCH   1   9
ATOM      6  C   UNL     1       1.763   3.127  21.188  0.00  0.00    +0.000 A 
ATOM      7  C   UNL     1       2.993   2.541  20.891  0.00  0.00    +0.000 A 
ATOM      8  C   UNL     1       3.811   3.121  19.915  0.00  0.00    +0.000 A 
ATOM      9  C   UNL     1       3.400   4.274  19.237  0.00  0.00    +0.000 A 
ATOM     10  C   UNL     1       2.158   4.844  19.553  0.00  0.00    +0.000 A 
ATOM     11  C   UNL     1       1.340   4.271  20.528  0.00  0.00    +0.000 A 
BRANCH   6  12
ATOM     12  O   UNL     1       0.935   2.604  22.136  0.00  0.00    +0.000 OA
ATOM     13  H   UNL     1       0.244   3.255  22.336  0.00  0.00    +0.000 HD
ENDBRANCH   6  12
ENDBRANCH   1   9
BRANCH   3  14
ATOM     14  C   UNL     1       7.105   5.290  16.122  0.00  0.00    +0.000 C 
BRANCH  14  15
ATOM     15  C   UNL     1       6.860   4.834  14.706  0.00  0.00    +0.000 A 
ATOM     16  C   UNL     1       7.678   5.281  13.657  0.00  0.00    +0.000 A 
ATOM     17  C   UNL     1       7.506   4.783  12.364  0.00  0.00    +0.000 A 
ATOM     18  C   UNL     1       6.516   3.838  12.104  0.00  0.00    +0.000 A 
ATOM     19  C   UNL     1       5.683   3.403  13.131  0.00  0.00    +0.000 A 
ATOM     20  C   UNL     1       5.850   3.900  14.424  0.00  0.00    +0.000 A 
ENDBRANCH  14  15
ENDBRANCH   3  14
TORSDOF 4
ENDMDL
MODEL 2
REMARK VINA RESULT:      -7.1      0.551      1.108
REMARK  Name = 
REMARK  4 active torsions:
REMARK  status: ('A' for Active; 'I' for Inactive)
REMARK    1  A    between atoms: O_1  and  C_2
REMARK    2  A    between atoms: C_5  and  C_6
REMARK    3  A    between atoms: N_8  and  C_9
REMARK    4  A    between atoms: C_9  and  C_10
REMARK                            x       y       z     vdW  Elec       q    Type
REMARK                         _______ _______ _______ _____ _____    ______ ____
ROOT
ATOM      1  C   UNL     1       4.383   5.135  17.991  0.00  0.00    +0.000 A 
ATOM      2  C   UNL     1       5.605   4.625  17.616  0.00  0.00    +0.000 A 
ATOM      3  N   UNL     1       6.046   5.496  16.667  0.00  0.00    +0.000 N 
ATOM      4  N   UNL     1       5.156   6.488  16.459  0.00  0.00    +0.000 NA
ATOM      5  N   UNL     1       4.140   6.289  17.291  0.00  0.00    +0.000 NA
ENDROOT
BRANCH   1   9
ATOM      6  C   UNL     1       1.679   3.381  20.747  0.00  0.00    +0.000 A 
ATOM      7  C   UNL     1       1.841   4.766  20.732  0.00  0.00    +0.000 A 
ATOM      8  C   UNL     1       2.735   5.342  19.824  0.00  0.00    +0.000 A 
ATOM      9  C   UNL     1       3.468   4.540  18.942  0.00  0.00    +0.000 A 
ATOM     10  C   UNL     1       3.289   3.150  18.978  0.00  0.00    +0.000 A 
ATOM     11  C   UNL     1       2.395   2.571  19.879  0.00  0.00    +0.000 A 
BRANCH   6  12
ATOM     12  O   UNL     1       0.813   2.774  21.607  0.00  0.00    +0.000 OA
ATOM     13  H   UNL     1       1.000   1.822  21.613  0.00  0.00    +0.000 HD
ENDBRANCH   6  12
ENDBRANCH   1   9
BRANCH   3  14
ATOM     14  C   UNL     1       7.224   5.363  15.830  0.00  0.00    +0.000 C 
BRANCH  14  15
ATOM     15  C   UNL     1       6.904   4.839  14.453  0.00  0.00    +0.000 A 
ATOM     16  C   UNL     1       7.689   5.204  13.348  0.00  0.00    +0.000 A 
ATOM     17  C   UNL     1       7.446   4.642  12.092  0.00  0.00    +0.000 A 
ATOM     18  C   UNL     1       6.419   3.715  11.927  0.00  0.00    +0.000 A 
ATOM     19  C   UNL     1       5.620   3.362  13.011  0.00  0.00    +0.000 A 
ATOM     20  C   UNL     1       5.858   3.922  14.266  0.00  0.00    +0.000 A 
ENDBRANCH  14  15
ENDBRANCH   3  14
TORSDOF 4
ENDMDL
MODEL 3
REMARK VINA RESULT:      -7.0      0.314      1.148
REMARK  Name = 
REMARK  4 active torsions:
REMARK  status: ('A' for Active; 'I' for Inactive)
REMARK    1  A    between atoms: O_1  and  C_2
REMARK    2  A    between atoms: C_5  and  C_6
REMARK    3  A    between atoms: N_8  and  C_9
REMARK    4  A    between atoms: C_9  and  C_10
REMARK                            x       y       z     vdW  Elec       q    Type
REMARK                         _______ _______ _______ _____ _____    ______ ____
ROOT
ATOM      1  C   UNL     1       4.460   5.009  18.209  0.00  0.00    +0.000 A 
ATOM      2  C   UNL     1       5.740   4.658  17.844  0.00  0.00    +0.000 A 
ATOM      3  N   UNL     1       6.023   5.490  16.804  0.00  0.00    +0.000 N 
ATOM      4  N   UNL     1       4.987   6.309  16.534  0.00  0.00    +0.000 NA
ATOM      5  N   UNL     1       4.029   6.040  17.414  0.00  0.00    +0.000 NA
ENDROOT
BRANCH   1   9
ATOM      6  C   UNL     1       2.147   3.185  21.259  0.00  0.00    +0.000 A 
ATOM      7  C   UNL     1       3.200   2.477  20.683  0.00  0.00    +0.000 A 
ATOM      8  C   UNL     1       3.960   3.080  19.674  0.00  0.00    +0.000 A 
ATOM      9  C   UNL     1       3.666   4.377  19.241  0.00  0.00    +0.000 A 
ATOM     10  C   UNL     1       2.600   5.068  19.836  0.00  0.00    +0.000 A 
ATOM     11  C   UNL     1       1.842   4.473  20.845  0.00  0.00    +0.000 A 
BRANCH   6  12
ATOM     12  O   UNL     1       1.383   2.645  22.251  0.00  0.00    +0.000 OA
ATOM     13  H   UNL     1       1.148   1.737  22.001  0.00  0.00    +0.000 HD
ENDBRANCH   6  12
ENDBRANCH   1   9
BRANCH   3  14
ATOM     14  C   UNL     1       7.193   5.457  15.945  0.00  0.00    +0.000 C 
BRANCH  14  15
ATOM     15  C   UNL     1       6.916   4.816  14.609  0.00  0.00    +0.000 A 
ATOM     16  C   UNL     1       5.836   3.935  14.448  0.00  0.00    +0.000 A 
ATOM     17  C   UNL     1       5.527   3.418  13.188  0.00  0.00    +0.000 A 
ATOM     18  C   UNL     1       6.293   3.773  12.079  0.00  0.00    +0.000 A 
ATOM     19  C   UNL     1       7.381   4.629  12.230  0.00  0.00    +0.000 A 
ATOM     20  C   UNL     1       7.694   5.145  13.488  0.00  0.00    +0.000 A 
ENDBRANCH  14  15
ENDBRANCH   3  14
TORSDOF 4
ENDMDL
MODEL 4
REMARK VINA RESULT:      -7.0      5.332      7.687
REMARK  Name = 
REMARK  4 active torsions:
REMARK  status: ('A' for Active; 'I' for Inactive)
REMARK    1  A    between atoms: O_1  and  C_2
REMARK    2  A    between atoms: C_5  and  C_6
REMARK    3  A    between atoms: N_8  and  C_9
REMARK    4  A    between atoms: C_9  and  C_10
REMARK                            x       y       z     vdW  Elec       q    Type
REMARK                         _______ _______ _______ _____ _____    ______ ____
ROOT
ATOM      1  C   UNL     1       0.950   9.405  18.719  0.00  0.00    +0.000 A 
ATOM      2  C   UNL     1       1.435   8.497  19.633  0.00  0.00    +0.000 A 
ATOM      3  N   UNL     1       2.390   7.816  18.941  0.00  0.00    +0.000 N 
ATOM      4  N   UNL     1       2.495   8.268  17.674  0.00  0.00    +0.000 NA
ATOM      5  N   UNL     1       1.631   9.267  17.537  0.00  0.00    +0.000 NA
ENDROOT
BRANCH   1   9
ATOM      6  C   UNL     1      -2.236  12.120  19.400  0.00  0.00    +0.000 A 
ATOM      7  C   UNL     1      -2.180  11.417  18.198  0.00  0.00    +0.000 A 
ATOM      8  C   UNL     1      -1.127  10.524  17.974  0.00  0.00    +0.000 A 
ATOM      9  C   UNL     1      -0.133  10.340  18.942  0.00  0.00    +0.000 A 
ATOM     10  C   UNL     1      -0.211  11.060  20.142  0.00  0.00    +0.000 A 
ATOM     11  C   UNL     1      -1.262  11.949  20.372  0.00  0.00    +0.000 A 
BRANCH   6  12
ATOM     12  O   UNL     1      -3.247  12.994  19.669  0.00  0.00    +0.000 OA
ATOM     13  H   UNL     1      -3.169  13.752  19.069  0.00  0.00    +0.000 HD
ENDBRANCH   6  12
ENDBRANCH   1   9
BRANCH   3  14
ATOM     14  C   UNL     1       3.127   6.645  19.379  0.00  0.00    +0.000 C 
BRANCH  14  15
ATOM     15  C   UNL     1       2.282   5.397  19.392  0.00  0.00    +0.000 A 
ATOM     16  C   UNL     1       2.045   4.680  18.209  0.00  0.00    +0.000 A 
ATOM     17  C   UNL     1       1.341   3.474  18.242  0.00  0.00    +0.000 A 
ATOM     18  C   UNL     1       0.866   2.974  19.452  0.00  0.00    +0.000 A 
ATOM     19  C   UNL     1       1.075   3.687  20.630  0.00  0.00    +0.000 A 
ATOM     20  C   UNL     1       1.775   4.892  20.601  0.00  0.00    +0.000 A 
ENDBRANCH  14  15
ENDBRANCH   3  14
TORSDOF 4
ENDMDL
MODEL 5
REMARK VINA RESULT:      -7.0      5.034      7.432
REMARK  Name = 
REMARK  4 active torsions:
REMARK  status: ('A' for Active; 'I' for Inactive)
REMARK    1  A    between atoms: O_1  and  C_2
REMARK    2  A    between atoms: C_5  and  C_6
REMARK    3  A    between atoms: N_8  and  C_9
REMARK    4  A    between atoms: C_9  and  C_10
REMARK                            x       y       z     vdW  Elec       q    Type
REMARK                         _______ _______ _______ _____ _____    ______ ____
ROOT
ATOM      1  C   UNL     1       1.348   9.081  18.645  0.00  0.00    +0.000 A 
ATOM      2  C   UNL     1       1.777   8.131  19.544  0.00  0.00    +0.000 A 
ATOM      3  N   UNL     1       2.760   7.468  18.874  0.00  0.00    +0.000 N 
ATOM      4  N   UNL     1       2.935   7.969  17.634  0.00  0.00    +0.000 NA
ATOM      5  N   UNL     1       2.088   8.982  17.494  0.00  0.00    +0.000 NA
ENDROOT
BRANCH   1   9
ATOM      6  C   UNL     1      -1.818  11.845  19.211  0.00  0.00    +0.000 A 
ATOM      7  C   UNL     1      -0.769  11.807  20.128  0.00  0.00    +0.000 A 
ATOM      8  C   UNL     1       0.273  10.892  19.941  0.00  0.00    +0.000 A 
ATOM      9  C   UNL     1       0.264  10.017  18.849  0.00  0.00    +0.000 A 
ATOM     10  C   UNL     1      -0.803  10.073  17.942  0.00  0.00    +0.000 A 
ATOM     11  C   UNL     1      -1.843  10.987  18.121  0.00  0.00    +0.000 A 
BRANCH   6  12
ATOM     12  O   UNL     1      -2.851  12.724  19.344  0.00  0.00    +0.000 OA
ATOM     13  H   UNL     1      -2.774  13.399  18.653  0.00  0.00    +0.000 HD
ENDBRANCH   6  12
ENDBRANCH   1   9
BRANCH   3  14
ATOM     14  C   UNL     1       3.463   6.272  19.301  0.00  0.00    +0.000 C 
BRANCH  14  15
ATOM     15  C   UNL     1       2.561   5.067  19.391  0.00  0.00    +0.000 A 
ATOM     16  C   UNL     1       2.075   4.626  20.632  0.00  0.00    +0.000 A 
ATOM     17  C   UNL     1       1.165   3.569  20.700  0.00  0.00    +0.000 A 
ATOM     18  C   UNL     1       0.734   2.941  19.533  0.00  0.00    +0.000 A 
ATOM     19  C   UNL     1       1.225   3.355  18.298  0.00  0.00    +0.000 A 
ATOM     20  C   UNL     1       2.136   4.409  18.226  0.00  0.00    +0.000 A 
ENDBRANCH  14  15
ENDBRANCH   3  14
TORSDOF 4
ENDMDL
MODEL 6
REMARK VINA RESULT:      -7.0      4.979      7.397
REMARK  Name = 
REMARK  4 active torsions:
REMARK  status: ('A' for Active; 'I' for Inactive)
REMARK    1  A    between atoms: O_1  and  C_2
REMARK    2  A    between atoms: C_5  and  C_6
REMARK    3  A    between atoms: N_8  and  C_9
REMARK    4  A    between atoms: C_9  and  C_10
REMARK                            x       y       z     vdW  Elec       q    Type
REMARK                         _______ _______ _______ _____ _____    ______ ____
ROOT
ATOM      1  C   UNL     1       1.471   8.994  18.521  0.00  0.00    +0.000 A 
ATOM      2  C   UNL     1       1.858   8.061  19.457  0.00  0.00    +0.000 A 
ATOM      3  N   UNL     1       2.852   7.367  18.835  0.00  0.00    +0.000 N 
ATOM      4  N   UNL     1       3.072   7.834  17.589  0.00  0.00    +0.000 NA
ATOM      5  N   UNL     1       2.245   8.855  17.398  0.00  0.00    +0.000 NA
ENDROOT
BRANCH   1   9
ATOM      6  C   UNL     1      -1.690  11.781  18.988  0.00  0.00    +0.000 A 
ATOM      7  C   UNL     1      -1.771  10.814  17.987  0.00  0.00    +0.000 A 
ATOM      8  C   UNL     1      -0.726   9.898  17.833  0.00  0.00    +0.000 A 
ATOM      9  C   UNL     1       0.396   9.950  18.668  0.00  0.00    +0.000 A 
ATOM     10  C   UNL     1       0.454  10.933  19.667  0.00  0.00    +0.000 A 
ATOM     11  C   UNL     1      -0.587  11.847  19.827  0.00  0.00    +0.000 A 
BRANCH   6  12
ATOM     12  O   UNL     1      -2.686  12.690  19.184  0.00  0.00    +0.000 OA
ATOM     13  H   UNL     1      -2.935  12.680  20.122  0.00  0.00    +0.000 HD
ENDBRANCH   6  12
ENDBRANCH   1   9
BRANCH   3  14
ATOM     14  C   UNL     1       3.523   6.173  19.315  0.00  0.00    +0.000 C 
BRANCH  14  15
ATOM     15  C   UNL     1       2.599   4.987  19.415  0.00  0.00    +0.000 A 
ATOM     16  C   UNL     1       2.123   4.552  20.662  0.00  0.00    +0.000 A 
ATOM     17  C   UNL     1       1.194   3.513  20.742  0.00  0.00    +0.000 A 
ATOM     18  C   UNL     1       0.732   2.897  19.581  0.00  0.00    +0.000 A 
ATOM     19  C   UNL     1       1.212   3.304  18.339  0.00  0.00    +0.000 A 
ATOM     20  C   UNL     1       2.143   4.339  18.256  0.00  0.00    +0.000 A 
ENDBRANCH  14  15
ENDBRANCH   3  14
TORSDOF 4
ENDMDL
MODEL 7
REMARK VINA RESULT:      -7.0      1.406      1.874
REMARK  Name = 
REMARK  4 active torsions:
REMARK  status: ('A' for Active; 'I' for Inactive)
REMARK    1  A    between atoms: O_1  and  C_2
REMARK    2  A    between atoms: C_5  and  C_6
REMARK    3  A    between atoms: N_8  and  C_9
REMARK    4  A    between atoms: C_9  and  C_10
REMARK                            x       y       z     vdW  Elec       q    Type
REMARK                         _______ _______ _______ _____ _____    ______ ____
ROOT
ATOM      1  C   UNL     1       4.417   5.147  16.906  0.00  0.00    +0.000 A 
ATOM      2  C   UNL     1       5.306   4.330  16.246  0.00  0.00    +0.000 A 
ATOM      3  N   UNL     1       6.022   5.189  15.468  0.00  0.00    +0.000 N 
ATOM      4  N   UNL     1       5.607   6.462  15.630  0.00  0.00    +0.000 NA
ATOM      5  N   UNL     1       4.636   6.449  16.536  0.00  0.00    +0.000 NA
ENDROOT
BRANCH   1   9
ATOM      6  C   UNL     1       1.412   3.864  19.610  0.00  0.00    +0.000 A 
ATOM      7  C   UNL     1       1.476   3.298  18.337  0.00  0.00    +0.000 A 
ATOM      8  C   UNL     1       2.466   3.726  17.446  0.00  0.00    +0.000 A 
ATOM      9  C   UNL     1       3.381   4.715  17.821  0.00  0.00    +0.000 A 
ATOM     10  C   UNL     1       3.296   5.269  19.106  0.00  0.00    +0.000 A 
ATOM     11  C   UNL     1       2.313   4.844  20.000  0.00  0.00    +0.000 A 
BRANCH   6  12
ATOM     12  O   UNL     1       0.472   3.475  20.517  0.00  0.00    +0.000 OA
ATOM     13  H   UNL     1      -0.138   2.857  20.085  0.00  0.00    +0.000 HD
ENDBRANCH   6  12
ENDBRANCH   1   9
BRANCH   3  14
ATOM     14  C   UNL     1       7.006   4.847  14.457  0.00  0.00    +0.000 C 
BRANCH  14  15
ATOM     15  C   UNL     1       6.412   4.076  13.305  0.00  0.00    +0.000 A 
ATOM     16  C   UNL     1       7.233   3.336  12.440  0.00  0.00    +0.000 A 
ATOM     17  C   UNL     1       6.671   2.548  11.433  0.00  0.00    +0.000 A 
ATOM     18  C   UNL     1       5.287   2.494  11.278  0.00  0.00    +0.000 A 
ATOM     19  C   UNL     1       4.463   3.241  12.116  0.00  0.00    +0.000 A 
ATOM     20  C   UNL     1       5.021   4.031  13.121  0.00  0.00    +0.000 A 
ENDBRANCH  14  15
ENDBRANCH   3  14
TORSDOF 4
ENDMDL
MODEL 8
REMARK VINA RESULT:      -7.0      4.344      5.790
REMARK  Name = 
REMARK  4 active torsions:
REMARK  status: ('A' for Active; 'I' for Inactive)
REMARK    1  A    between atoms: O_1  and  C_2
REMARK    2  A    between atoms: C_5  and  C_6
REMARK    3  A    between atoms: N_8  and  C_9
REMARK    4  A    between atoms: C_9  and  C_10
REMARK                            x       y       z     vdW  Elec       q    Type
REMARK                         _______ _______ _______ _____ _____    ______ ____
ROOT
ATOM      1  C   UNL     1       1.686   8.629  19.370  0.00  0.00    +0.000 A 
ATOM      2  C   UNL     1       2.357   7.430  19.451  0.00  0.00    +0.000 A 
ATOM      3  N   UNL     1       2.853   7.248  18.195  0.00  0.00    +0.000 N 
ATOM      4  N   UNL     1       2.513   8.268  17.380  0.00  0.00    +0.000 NA
ATOM      5  N   UNL     1       1.818   9.137  18.103  0.00  0.00    +0.000 NA
ENDROOT
BRANCH   1   9
ATOM      6  C   UNL     1      -0.523  10.484  22.478  0.00  0.00    +0.000 A 
ATOM      7  C   UNL     1       0.278   9.381  22.771  0.00  0.00    +0.000 A 
ATOM      8  C   UNL     1       1.003   8.769  21.744  0.00  0.00    +0.000 A 
ATOM      9  C   UNL     1       0.924   9.251  20.432  0.00  0.00    +0.000 A 
ATOM     10  C   UNL     1       0.110  10.360  20.163  0.00  0.00    +0.000 A 
ATOM     11  C   UNL     1      -0.612  10.977  21.185  0.00  0.00    +0.000 A 
BRANCH   6  12
ATOM     12  O   UNL     1      -1.242  11.120  23.446  0.00  0.00    +0.000 OA
ATOM     13  H   UNL     1      -2.176  11.121  23.188  0.00  0.00    +0.000 HD
ENDBRANCH   6  12
ENDBRANCH   1   9
BRANCH   3  14
ATOM     14  C   UNL     1       3.528   6.072  17.678  0.00  0.00    +0.000 C 
BRANCH  14  15
ATOM     15  C   UNL     1       5.012   6.090  17.940  0.00  0.00    +0.000 A 
ATOM     16  C   UNL     1       5.869   6.872  17.150  0.00  0.00    +0.000 A 
ATOM     17  C   UNL     1       7.229   6.960  17.455  0.00  0.00    +0.000 A 
ATOM     18  C   UNL     1       7.747   6.268  18.548  0.00  0.00    +0.000 A 
ATOM     19  C   UNL     1       6.911   5.472  19.327  0.00  0.00    +0.000 A 
ATOM     20  C   UNL     1       5.553   5.380  19.023  0.00  0.00    +0.000 A 
ENDBRANCH  14  15
ENDBRANCH   3  14
TORSDOF 4
ENDMDL
MODEL 9
REMARK VINA RESULT:      -7.0      1.040      1.105
REMARK  Name = 
REMARK  4 active torsions:
REMARK  status: ('A' for Active; 'I' for Inactive)
REMARK    1  A    between atoms: O_1  and  C_2
REMARK    2  A    between atoms: C_5  and  C_6
REMARK    3  A    between atoms: N_8  and  C_9
REMARK    4  A    between atoms: C_9  and  C_10
REMARK                            x       y       z     vdW  Elec       q    Type
REMARK                         _______ _______ _______ _____ _____    ______ ____
ROOT
ATOM      1  C   UNL     1       4.379   5.304  17.598  0.00  0.00    +0.000 A 
ATOM      2  C   UNL     1       5.524   4.668  17.173  0.00  0.00    +0.000 A 
ATOM      3  N   UNL     1       6.132   5.590  16.376  0.00  0.00    +0.000 N 
ATOM      4  N   UNL     1       5.414   6.729  16.305  0.00  0.00    +0.000 NA
ATOM      5  N   UNL     1       4.346   6.572  17.078  0.00  0.00    +0.000 NA
ENDROOT
BRANCH   1   9
ATOM      6  C   UNL     1       1.378   3.603  20.064  0.00  0.00    +0.000 A 
ATOM      7  C   UNL     1       1.620   3.057  18.804  0.00  0.00    +0.000 A 
ATOM      8  C   UNL     1       2.609   3.621  17.991  0.00  0.00    +0.000 A 
ATOM      9  C   UNL     1       3.345   4.727  18.431  0.00  0.00    +0.000 A 
ATOM     10  C   UNL     1       3.081   5.259  19.701  0.00  0.00    +0.000 A 
ATOM     11  C   UNL     1       2.099   4.697  20.517  0.00  0.00    +0.000 A 
BRANCH   6  12
ATOM     12  O   UNL     1       0.432   3.083  20.896  0.00  0.00    +0.000 OA
ATOM     13  H   UNL     1      -0.311   3.704  20.947  0.00  0.00    +0.000 HD
ENDBRANCH   6  12
ENDBRANCH   1   9
BRANCH   3  14
ATOM     14  C   UNL     1       7.310   5.397  15.551  0.00  0.00    +0.000 C 
BRANCH  14  15
ATOM     15  C   UNL     1       6.981   4.855  14.183  0.00  0.00    +0.000 A 
ATOM     16  C   UNL     1       7.773   5.185  13.072  0.00  0.00    +0.000 A 
ATOM     17  C   UNL     1       7.520   4.606  11.826  0.00  0.00    +0.000 A 
ATOM     18  C   UNL     1       6.476   3.695  11.677  0.00  0.00    +0.000 A 
ATOM     19  C   UNL     1       5.670   3.376  12.767  0.00  0.00    +0.000 A 
ATOM     20  C   UNL     1       5.918   3.955  14.011  0.00  0.00    +0.000 A 
ENDBRANCH  14  15
ENDBRANCH   3  14
TORSDOF 4
ENDMDL
