MODEL 1
REMARK VINA RESULT:      -6.4      0.000      0.000
REMARK  Name = 
REMARK  4 active torsions:
REMARK  status: ('A' for Active; 'I' for Inactive)
REMARK    1  A    between atoms: C_1  and  O_2
REMARK    2  A    between atoms: O_2  and  C_3
REMARK    3  A    between atoms: C_7  and  C_8
REMARK    4  A    between atoms: C_9  and  C_10
REMARK                            x       y       z     vdW  Elec       q    Type
REMARK                         _______ _______ _______ _____ _____    ______ ____
ROOT
ATOM      1  C   UNL     1      11.076  12.622  18.687  0.00  0.00    +0.000 A 
ATOM      2  C   UNL     1      10.985  13.215  19.948  0.00  0.00    +0.000 A 
ATOM      3  C   UNL     1      10.245  12.610  20.963  0.00  0.00    +0.000 A 
ATOM      4  C   UNL     1       9.605  11.394  20.725  0.00  0.00    +0.000 A 
ATOM      5  C   UNL     1       9.697  10.775  19.472  0.00  0.00    +0.000 A 
ATOM      6  C   UNL     1      10.417  11.412  18.450  0.00  0.00    +0.000 A 
ENDROOT
BRANCH   1   8
ATOM      7  C   UNL     1      11.372  13.340  16.440  0.00  0.00    +0.000 C 
ATOM      8  O   UNL     1      11.837  13.312  17.784  0.00  0.00    +0.000 OA
ENDBRANCH   1   8
BRANCH   5   9
ATOM      9  C   UNL     1       8.993   9.500  19.264  0.00  0.00    +0.000 C 
ATOM     10  C   UNL     1       8.516   9.066  18.085  0.00  0.00    +0.000 C 
BRANCH  10  11
ATOM     11  C   UNL     1       7.843   7.769  17.914  0.00  0.00    +0.000 A 
ATOM     12  C   UNL     1       8.169   6.694  18.737  0.00  0.00    +0.000 A 
ATOM     13  C   UNL     1       7.504   5.484  18.557  0.00  0.00    +0.000 A 
ATOM     14  C   UNL     1       6.536   5.379  17.566  0.00  0.00    +0.000 A 
ATOM     15  C   UNL     1       6.277   6.495  16.791  0.00  0.00    +0.000 A 
ATOM     16  N   UNL     1       6.905   7.679  16.942  0.00  0.00    +0.000 NA
ENDBRANCH  10  11
ENDBRANCH   5   9
TORSDOF 3
ENDMDL
MODEL 2
REMARK VINA RESULT:      -6.4      1.453      1.813
REMARK  Name = 
REMARK  4 active torsions:
REMARK  status: ('A' for Active; 'I' for Inactive)
REMARK    1  A    between atoms: C_1  and  O_2
REMARK    2  A    between atoms: O_2  and  C_3
REMARK    3  A    between atoms: C_7  and  C_8
REMARK    4  A    between atoms: C_9  and  C_10
REMARK                            x       y       z     vdW  Elec       q    Type
REMARK                         _______ _______ _______ _____ _____    ______ ____
ROOT
ATOM      1  C   UNL     1       9.254  12.512  18.227  0.00  0.00    +0.000 A 
ATOM      2  C   UNL     1       9.955  12.377  19.427  0.00  0.00    +0.000 A 
ATOM      3  C   UNL     1       9.995  11.151  20.090  0.00  0.00    +0.000 A 
ATOM      4  C   UNL     1       9.345  10.045  19.544  0.00  0.00    +0.000 A 
ATOM      5  C   UNL     1       8.649  10.156  18.333  0.00  0.00    +0.000 A 
ATOM      6  C   UNL     1       8.589  11.404  17.694  0.00  0.00    +0.000 A 
ENDROOT
BRANCH   1   8
ATOM      7  C   UNL     1      10.140  14.717  18.314  0.00  0.00    +0.000 C 
ATOM      8  O   UNL     1       9.300  13.763  17.675  0.00  0.00    +0.000 OA
ENDBRANCH   1   8
BRANCH   5   9
ATOM      9  C   UNL     1       7.966   8.965  17.803  0.00  0.00    +0.000 C 
ATOM     10  C   UNL     1       8.173   7.706  18.226  0.00  0.00    +0.000 C 
BRANCH  10  11
ATOM     11  C   UNL     1       7.447   6.545  17.690  0.00  0.00    +0.000 A 
ATOM     12  C   UNL     1       6.743   5.699  18.544  0.00  0.00    +0.000 A 
ATOM     13  C   UNL     1       6.055   4.616  18.002  0.00  0.00    +0.000 A 
ATOM     14  C   UNL     1       6.089   4.406  16.629  0.00  0.00    +0.000 A 
ATOM     15  C   UNL     1       6.815   5.292  15.854  0.00  0.00    +0.000 A 
ATOM     16  N   UNL     1       7.491   6.348  16.351  0.00  0.00    +0.000 NA
ENDBRANCH  10  11
ENDBRANCH   5   9
TORSDOF 3
ENDMDL
MODEL 3
REMARK VINA RESULT:      -6.4      3.053      6.948
REMARK  Name = 
REMARK  4 active torsions:
REMARK  status: ('A' for Active; 'I' for Inactive)
REMARK    1  A    between atoms: C_1  and  O_2
REMARK    2  A    between atoms: O_2  and  C_3
REMARK    3  A    between atoms: C_7  and  C_8
REMARK    4  A    between atoms: C_9  and  C_10
REMARK                            x       y       z     vdW  Elec       q    Type
REMARK                         _______ _______ _______ _____ _____    ______ ____
ROOT
ATOM      1  C   UNL     1       6.738   5.584  16.783  0.00  0.00    +0.000 A 
ATOM      2  C   UNL     1       7.117   4.802  17.876  0.00  0.00    +0.000 A 
ATOM      3  C   UNL     1       7.831   5.362  18.933  0.00  0.00    +0.000 A 
ATOM      4  C   UNL     1       8.158   6.718  18.910  0.00  0.00    +0.000 A 
ATOM      5  C   UNL     1       7.774   7.523  17.830  0.00  0.00    +0.000 A 
ATOM      6  C   UNL     1       7.084   6.938  16.756  0.00  0.00    +0.000 A 
ENDROOT
BRANCH   1   8
ATOM      7  C   UNL     1       6.717   4.643  14.600  0.00  0.00    +0.000 C 
ATOM      8  O   UNL     1       6.035   4.916  15.817  0.00  0.00    +0.000 OA
ENDBRANCH   1   8
BRANCH   5   9
ATOM      9  C   UNL     1       8.154   8.944  17.843  0.00  0.00    +0.000 C 
ATOM     10  C   UNL     1       8.959   9.519  18.753  0.00  0.00    +0.000 C 
BRANCH  10  11
ATOM     11  C   UNL     1       9.339  10.940  18.712  0.00  0.00    +0.000 A 
ATOM     12  C   UNL     1      10.331  11.427  19.559  0.00  0.00    +0.000 A 
ATOM     13  C   UNL     1      10.675  12.775  19.487  0.00  0.00    +0.000 A 
ATOM     14  C   UNL     1      10.021  13.596  18.576  0.00  0.00    +0.000 A 
ATOM     15  C   UNL     1       9.045  13.031  17.775  0.00  0.00    +0.000 A 
ATOM     16  N   UNL     1       8.692  11.730  17.825  0.00  0.00    +0.000 NA
ENDBRANCH  10  11
ENDBRANCH   5   9
TORSDOF 3
ENDMDL
MODEL 4
REMARK VINA RESULT:      -6.4      7.605      8.977
REMARK  Name = 
REMARK  4 active torsions:
REMARK  status: ('A' for Active; 'I' for Inactive)
REMARK    1  A    between atoms: C_1  and  O_2
REMARK    2  A    between atoms: O_2  and  C_3
REMARK    3  A    between atoms: C_7  and  C_8
REMARK    4  A    between atoms: C_9  and  C_10
REMARK                            x       y       z     vdW  Elec       q    Type
REMARK                         _______ _______ _______ _____ _____    ______ ____
ROOT
ATOM      1  C   UNL     1       3.085   4.103  19.749  0.00  0.00    +0.000 A 
ATOM      2  C   UNL     1       2.750   5.436  19.995  0.00  0.00    +0.000 A 
ATOM      3  C   UNL     1       3.031   6.422  19.051  0.00  0.00    +0.000 A 
ATOM      4  C   UNL     1       3.636   6.075  17.843  0.00  0.00    +0.000 A 
ATOM      5  C   UNL     1       3.966   4.741  17.571  0.00  0.00    +0.000 A 
ATOM      6  C   UNL     1       3.708   3.764  18.544  0.00  0.00    +0.000 A 
ENDROOT
BRANCH   1   8
ATOM      7  C   UNL     1       1.617   2.404  20.529  0.00  0.00    +0.000 C 
ATOM      8  O   UNL     1       2.749   3.234  20.752  0.00  0.00    +0.000 OA
ENDBRANCH   1   8
BRANCH   5   9
ATOM      9  C   UNL     1       4.616   4.426  16.289  0.00  0.00    +0.000 C 
ATOM     10  C   UNL     1       5.555   5.182  15.694  0.00  0.00    +0.000 C 
BRANCH  10  11
ATOM     11  C   UNL     1       6.202   4.814  14.425  0.00  0.00    +0.000 A 
ATOM     12  C   UNL     1       5.631   3.850  13.598  0.00  0.00    +0.000 A 
ATOM     13  C   UNL     1       6.263   3.534  12.398  0.00  0.00    +0.000 A 
ATOM     14  C   UNL     1       7.442   4.185  12.056  0.00  0.00    +0.000 A 
ATOM     15  C   UNL     1       7.941   5.128  12.938  0.00  0.00    +0.000 A 
ATOM     16  N   UNL     1       7.352   5.453  14.106  0.00  0.00    +0.000 NA
ENDBRANCH  10  11
ENDBRANCH   5   9
TORSDOF 3
ENDMDL
MODEL 5
REMARK VINA RESULT:      -6.3      3.123      7.143
REMARK  Name = 
REMARK  4 active torsions:
REMARK  status: ('A' for Active; 'I' for Inactive)
REMARK    1  A    between atoms: C_1  and  O_2
REMARK    2  A    between atoms: O_2  and  C_3
REMARK    3  A    between atoms: C_7  and  C_8
REMARK    4  A    between atoms: C_9  and  C_10
REMARK                            x       y       z     vdW  Elec       q    Type
REMARK                         _______ _______ _______ _____ _____    ______ ____
ROOT
ATOM      1  C   UNL     1       6.658   5.753  16.680  0.00  0.00    +0.000 A 
ATOM      2  C   UNL     1       6.992   4.901  17.735  0.00  0.00    +0.000 A 
ATOM      3  C   UNL     1       7.716   5.377  18.827  0.00  0.00    +0.000 A 
ATOM      4  C   UNL     1       8.097   6.717  18.877  0.00  0.00    +0.000 A 
ATOM      5  C   UNL     1       7.759   7.592  17.836  0.00  0.00    +0.000 A 
ATOM      6  C   UNL     1       7.058   7.092  16.728  0.00  0.00    +0.000 A 
ENDROOT
BRANCH   1   8
ATOM      7  C   UNL     1       5.962   3.744  15.616  0.00  0.00    +0.000 C 
ATOM      8  O   UNL     1       5.940   5.165  15.675  0.00  0.00    +0.000 OA
ENDBRANCH   1   8
BRANCH   5   9
ATOM      9  C   UNL     1       8.195   8.994  17.926  0.00  0.00    +0.000 C 
ATOM     10  C   UNL     1       8.941   9.507  18.920  0.00  0.00    +0.000 C 
BRANCH  10  11
ATOM     11  C   UNL     1       9.382  10.910  18.957  0.00  0.00    +0.000 A 
ATOM     12  C   UNL     1       9.020  11.788  17.938  0.00  0.00    +0.000 A 
ATOM     13  C   UNL     1       9.443  13.113  18.010  0.00  0.00    +0.000 A 
ATOM     14  C   UNL     1      10.213  13.524  19.092  0.00  0.00    +0.000 A 
ATOM     15  C   UNL     1      10.529  12.586  20.058  0.00  0.00    +0.000 A 
ATOM     16  N   UNL     1      10.135  11.297  20.013  0.00  0.00    +0.000 NA
ENDBRANCH  10  11
ENDBRANCH   5   9
TORSDOF 3
ENDMDL
MODEL 6
REMARK VINA RESULT:      -6.3      7.198      8.953
REMARK  Name = 
REMARK  4 active torsions:
REMARK  status: ('A' for Active; 'I' for Inactive)
REMARK    1  A    between atoms: C_1  and  O_2
REMARK    2  A    between atoms: O_2  and  C_3
REMARK    3  A    between atoms: C_7  and  C_8
REMARK    4  A    between atoms: C_9  and  C_10
REMARK                            x       y       z     vdW  Elec       q    Type
REMARK                         _______ _______ _______ _____ _____    ______ ____
ROOT
ATOM      1  C   UNL     1       6.139   3.927  13.610  0.00  0.00    +0.000 A 
ATOM      2  C   UNL     1       7.211   4.779  13.885  0.00  0.00    +0.000 A 
ATOM      3  C   UNL     1       7.401   5.286  15.170  0.00  0.00    +0.000 A 
ATOM      4  C   UNL     1       6.524   4.928  16.193  0.00  0.00    +0.000 A 
ATOM      5  C   UNL     1       5.451   4.063  15.942  0.00  0.00    +0.000 A 
ATOM      6  C   UNL     1       5.253   3.587  14.636  0.00  0.00    +0.000 A 
ENDROOT
BRANCH   1   8
ATOM      7  C   UNL     1       4.775   3.230  11.792  0.00  0.00    +0.000 C 
ATOM      8  O   UNL     1       6.071   3.495  12.314  0.00  0.00    +0.000 OA
ENDBRANCH   1   8
BRANCH   5   9
ATOM      9  C   UNL     1       4.544   3.726  17.050  0.00  0.00    +0.000 C 
ATOM     10  C   UNL     1       3.650   4.567  17.597  0.00  0.00    +0.000 C 
BRANCH  10  11
ATOM     11  C   UNL     1       2.739   4.180  18.686  0.00  0.00    +0.000 A 
ATOM     12  C   UNL     1       1.663   3.332  18.435  0.00  0.00    +0.000 A 
ATOM     13  C   UNL     1       0.828   2.976  19.491  0.00  0.00    +0.000 A 
ATOM     14  C   UNL     1       1.087   3.472  20.763  0.00  0.00    +0.000 A 
ATOM     15  C   UNL     1       2.176   4.311  20.923  0.00  0.00    +0.000 A 
ATOM     16  N   UNL     1       3.000   4.673  19.919  0.00  0.00    +0.000 NA
ENDBRANCH  10  11
ENDBRANCH   5   9
TORSDOF 3
ENDMDL
MODEL 7
REMARK VINA RESULT:      -6.3      1.345      1.920
REMARK  Name = 
REMARK  4 active torsions:
REMARK  status: ('A' for Active; 'I' for Inactive)
REMARK    1  A    between atoms: C_1  and  O_2
REMARK    2  A    between atoms: O_2  and  C_3
REMARK    3  A    between atoms: C_7  and  C_8
REMARK    4  A    between atoms: C_9  and  C_10
REMARK                            x       y       z     vdW  Elec       q    Type
REMARK                         _______ _______ _______ _____ _____    ______ ____
ROOT
ATOM      1  C   UNL     1      10.141  12.211  18.449  0.00  0.00    +0.000 A 
ATOM      2  C   UNL     1      10.416  11.973  19.797  0.00  0.00    +0.000 A 
ATOM      3  C   UNL     1       9.882  10.858  20.442  0.00  0.00    +0.000 A 
ATOM      4  C   UNL     1       9.081   9.964  19.733  0.00  0.00    +0.000 A 
ATOM      5  C   UNL     1       8.806  10.177  18.376  0.00  0.00    +0.000 A 
ATOM      6  C   UNL     1       9.323  11.321  17.748  0.00  0.00    +0.000 A 
ENDROOT
BRANCH   1   8
ATOM      7  C   UNL     1      11.715  13.970  18.743  0.00  0.00    +0.000 C 
ATOM      8  O   UNL     1      10.732  13.334  17.935  0.00  0.00    +0.000 OA
ENDBRANCH   1   8
BRANCH   5   9
ATOM      9  C   UNL     1       7.944   9.214  17.673  0.00  0.00    +0.000 C 
ATOM     10  C   UNL     1       7.952   7.884  17.871  0.00  0.00    +0.000 C 
BRANCH  10  11
ATOM     11  C   UNL     1       7.051   6.958  17.168  0.00  0.00    +0.000 A 
ATOM     12  C   UNL     1       5.671   7.067  17.321  0.00  0.00    +0.000 A 
ATOM     13  C   UNL     1       4.846   6.182  16.631  0.00  0.00    +0.000 A 
ATOM     14  C   UNL     1       5.417   5.216  15.812  0.00  0.00    +0.000 A 
ATOM     15  C   UNL     1       6.797   5.175  15.721  0.00  0.00    +0.000 A 
ATOM     16  N   UNL     1       7.620   6.018  16.377  0.00  0.00    +0.000 NA
ENDBRANCH  10  11
ENDBRANCH   5   9
TORSDOF 3
ENDMDL
MODEL 8
REMARK VINA RESULT:      -6.3      3.274      7.417
REMARK  Name = 
REMARK  4 active torsions:
REMARK  status: ('A' for Active; 'I' for Inactive)
REMARK    1  A    between atoms: C_1  and  O_2
REMARK    2  A    between atoms: O_2  and  C_3
REMARK    3  A    between atoms: C_7  and  C_8
REMARK    4  A    between atoms: C_9  and  C_10
REMARK                            x       y       z     vdW  Elec       q    Type
REMARK                         _______ _______ _______ _____ _____    ______ ____
ROOT
ATOM      1  C   UNL     1       6.322   4.781  18.511  0.00  0.00    +0.000 A 
ATOM      2  C   UNL     1       6.084   4.639  17.142  0.00  0.00    +0.000 A 
ATOM      3  C   UNL     1       6.559   5.588  16.239  0.00  0.00    +0.000 A 
ATOM      4  C   UNL     1       7.292   6.680  16.701  0.00  0.00    +0.000 A 
ATOM      5  C   UNL     1       7.556   6.833  18.069  0.00  0.00    +0.000 A 
ATOM      6  C   UNL     1       7.043   5.887  18.970  0.00  0.00    +0.000 A 
ENDROOT
BRANCH   1   8
ATOM      7  C   UNL     1       4.465   3.392  19.034  0.00  0.00    +0.000 C 
ATOM      8  O   UNL     1       5.810   3.777  19.287  0.00  0.00    +0.000 OA
ENDBRANCH   1   8
BRANCH   5   9
ATOM      9  C   UNL     1       8.322   8.009  18.510  0.00  0.00    +0.000 C 
ATOM     10  C   UNL     1       8.184   9.250  18.012  0.00  0.00    +0.000 C 
BRANCH  10  11
ATOM     11  C   UNL     1       8.950  10.406  18.504  0.00  0.00    +0.000 A 
ATOM     12  C   UNL     1       9.610  10.343  19.728  0.00  0.00    +0.000 A 
ATOM     13  C   UNL     1      10.337  11.451  20.158  0.00  0.00    +0.000 A 
ATOM     14  C   UNL     1      10.384  12.587  19.359  0.00  0.00    +0.000 A 
ATOM     15  C   UNL     1       9.696  12.565  18.159  0.00  0.00    +0.000 A 
ATOM     16  N   UNL     1       8.984  11.508  17.718  0.00  0.00    +0.000 NA
ENDBRANCH  10  11
ENDBRANCH   5   9
TORSDOF 3
ENDMDL
MODEL 9
REMARK VINA RESULT:      -6.2      7.045      8.763
REMARK  Name = 
REMARK  4 active torsions:
REMARK  status: ('A' for Active; 'I' for Inactive)
REMARK    1  A    between atoms: C_1  and  O_2
REMARK    2  A    between atoms: O_2  and  C_3
REMARK    3  A    between atoms: C_7  and  C_8
REMARK    4  A    between atoms: C_9  and  C_10
REMARK                            x       y       z     vdW  Elec       q    Type
REMARK                         _______ _______ _______ _____ _____    ______ ____
ROOT
ATOM      1  C   UNL     1       5.970   4.054  14.170  0.00  0.00    +0.000 A 
ATOM      2  C   UNL     1       7.170   4.731  14.396  0.00  0.00    +0.000 A 
ATOM      3  C   UNL     1       7.453   5.269  15.650  0.00  0.00    +0.000 A 
ATOM      4  C   UNL     1       6.540   5.117  16.693  0.00  0.00    +0.000 A 
ATOM      5  C   UNL     1       5.338   4.428  16.491  0.00  0.00    +0.000 A 
ATOM      6  C   UNL     1       5.051   3.920  15.214  0.00  0.00    +0.000 A 
ENDROOT
BRANCH   1   8
ATOM      7  C   UNL     1       6.882   3.812  11.987  0.00  0.00    +0.000 C 
ATOM      8  O   UNL     1       5.818   3.568  12.900  0.00  0.00    +0.000 OA
ENDBRANCH   1   8
BRANCH   5   9
ATOM      9  C   UNL     1       4.400   4.305  17.618  0.00  0.00    +0.000 C 
ATOM     10  C   UNL     1       3.865   3.151  18.054  0.00  0.00    +0.000 C 
BRANCH  10  11
ATOM     11  C   UNL     1       2.953   3.069  19.205  0.00  0.00    +0.000 A 
ATOM     12  C   UNL     1       3.428   2.671  20.452  0.00  0.00    +0.000 A 
ATOM     13  C   UNL     1       2.541   2.616  21.524  0.00  0.00    +0.000 A 
ATOM     14  C   UNL     1       1.208   2.956  21.323  0.00  0.00    +0.000 A 
ATOM     15  C   UNL     1       0.820   3.336  20.051  0.00  0.00    +0.000 A 
ATOM     16  N   UNL     1       1.657   3.398  18.995  0.00  0.00    +0.000 NA
ENDBRANCH  10  11
ENDBRANCH   5   9
TORSDOF 3
ENDMDL
