MODEL 1
REMARK VINA RESULT:      -6.9      0.000      0.000
REMARK  Name = 
REMARK  12 active torsions:
REMARK  status: ('A' for Active; 'I' for Inactive)
REMARK    1  A    between atoms: C_1  and  O_2
REMARK    2  A    between atoms: O_2  and  C_3
REMARK    3  A    between atoms: C_3  and  C_5
REMARK    4  A    between atoms: C_6  and  C_7
REMARK    5  A    between atoms: C_6  and  C_8
REMARK    6  A    between atoms: C_9  and  C_10
REMARK    7  A    between atoms: C_11  and  C_12
REMARK    8  A    between atoms: C_14  and  O_15
REMARK    9  A    between atoms: O_15  and  C_16
REMARK   10  A    between atoms: C_16  and  C_17
REMARK   11  A    between atoms: C_19  and  C_20
REMARK   12  A    between atoms: C_21  and  C_22
REMARK                            x       y       z     vdW  Elec       q    Type
REMARK                         _______ _______ _______ _____ _____    ______ ____
ROOT
ATOM      1  C   UNL     1       2.410   6.810  19.135  0.00  0.00    +0.000 A 
ATOM      2  C   UNL     1       1.864   6.352  20.354  0.00  0.00    +0.000 A 
ATOM      3  C   UNL     1       2.032   4.943  20.861  0.00  0.00    +0.000 C 
ATOM      4  C   UNL     1       1.071   7.217  21.121  0.00  0.00    +0.000 A 
ATOM      5  C   UNL     1       0.818   8.516  20.694  0.00  0.00    +0.000 A 
ATOM      6  C   UNL     1       1.367   9.006  19.491  0.00  0.00    +0.000 A 
ATOM      7  C   UNL     1       1.089  10.422  19.049  0.00  0.00    +0.000 C 
ATOM      8  C   UNL     1       2.176   8.143  18.704  0.00  0.00    +0.000 A 
ATOM      9  C   UNL     1       2.784   8.609  17.398  0.00  0.00    +0.000 C 
ENDROOT
BRANCH   1  11
ATOM     10  C   UNL     1       4.530   5.834  18.399  0.00  0.00    +0.000 C 
ATOM     11  C   UNL     1       3.190   5.868  18.309  0.00  0.00    +0.000 C 
BRANCH  10  13
ATOM     12  C   UNL     1       6.738   5.401  17.362  0.00  0.00    +0.000 C 
ATOM     13  C   UNL     1       5.445   5.067  17.557  0.00  0.00    +0.000 C 
ATOM     14  C   UNL     1       4.880   3.880  16.811  0.00  0.00    +0.000 C 
BRANCH  12  15
ATOM     15  C   UNL     1       7.473   6.532  17.980  0.00  0.00    +0.000 C 
ATOM     16  O   UNL     1       8.119   6.496  19.012  0.00  0.00    +0.000 OA
BRANCH  15  18
ATOM     17  C   UNL     1       7.954   8.789  17.688  0.00  0.00    +0.000 C 
ATOM     18  O   UNL     1       7.293   7.623  17.191  0.00  0.00    +0.000 OA
ENDBRANCH  15  18
ENDBRANCH  12  15
ENDBRANCH  10  13
ENDBRANCH   1  11
BRANCH   5  19
ATOM     19  O   UNL     1      -0.028   9.402  21.423  0.00  0.00    +0.000 OA
BRANCH  19  20
ATOM     20  C   UNL     1       0.094   9.823  22.752  0.00  0.00    +0.000 C 
ATOM     21  C   UNL     1      -1.058  10.723  23.092  0.00  0.00    +0.000 C 
ATOM     22  O   UNL     1       0.959   9.501  23.553  0.00  0.00    +0.000 OA
ENDBRANCH  19  20
ENDBRANCH   5  19
TORSDOF 6
ENDMDL
MODEL 2
REMARK VINA RESULT:      -6.9      2.550      3.259
REMARK  Name = 
REMARK  12 active torsions:
REMARK  status: ('A' for Active; 'I' for Inactive)
REMARK    1  A    between atoms: C_1  and  O_2
REMARK    2  A    between atoms: O_2  and  C_3
REMARK    3  A    between atoms: C_3  and  C_5
REMARK    4  A    between atoms: C_6  and  C_7
REMARK    5  A    between atoms: C_6  and  C_8
REMARK    6  A    between atoms: C_9  and  C_10
REMARK    7  A    between atoms: C_11  and  C_12
REMARK    8  A    between atoms: C_14  and  O_15
REMARK    9  A    between atoms: O_15  and  C_16
REMARK   10  A    between atoms: C_16  and  C_17
REMARK   11  A    between atoms: C_19  and  C_20
REMARK   12  A    between atoms: C_21  and  C_22
REMARK                            x       y       z     vdW  Elec       q    Type
REMARK                         _______ _______ _______ _____ _____    ______ ____
ROOT
ATOM      1  C   UNL     1       2.275   7.548  19.231  0.00  0.00    +0.000 A 
ATOM      2  C   UNL     1       1.886   6.858  20.401  0.00  0.00    +0.000 A 
ATOM      3  C   UNL     1       2.374   5.475  20.747  0.00  0.00    +0.000 C 
ATOM      4  C   UNL     1       0.954   7.444  21.268  0.00  0.00    +0.000 A 
ATOM      5  C   UNL     1       0.411   8.694  20.990  0.00  0.00    +0.000 A 
ATOM      6  C   UNL     1       0.796   9.414  19.841  0.00  0.00    +0.000 A 
ATOM      7  C   UNL     1       0.203  10.773  19.561  0.00  0.00    +0.000 C 
ATOM      8  C   UNL     1       1.742   8.836  18.952  0.00  0.00    +0.000 A 
ATOM      9  C   UNL     1       2.187   9.557  17.697  0.00  0.00    +0.000 C 
ENDROOT
BRANCH   1  11
ATOM     10  C   UNL     1       2.985   5.632  17.886  0.00  0.00    +0.000 C 
ATOM     11  C   UNL     1       3.209   6.891  18.297  0.00  0.00    +0.000 C 
BRANCH  10  13
ATOM     12  C   UNL     1       3.857   3.452  17.096  0.00  0.00    +0.000 C 
ATOM     13  C   UNL     1       3.879   4.801  17.083  0.00  0.00    +0.000 C 
ATOM     14  C   UNL     1       4.930   5.503  16.255  0.00  0.00    +0.000 C 
BRANCH  12  15
ATOM     15  C   UNL     1       2.926   2.579  17.852  0.00  0.00    +0.000 C 
ATOM     16  O   UNL     1       1.709   2.627  17.826  0.00  0.00    +0.000 OA
BRANCH  15  18
ATOM     17  C   UNL     1       4.150   2.286  19.808  0.00  0.00    +0.000 C 
ATOM     18  O   UNL     1       3.672   1.715  18.589  0.00  0.00    +0.000 OA
ENDBRANCH  15  18
ENDBRANCH  12  15
ENDBRANCH  10  13
ENDBRANCH   1  11
BRANCH   5  19
ATOM     19  O   UNL     1      -0.578   9.292  21.823  0.00  0.00    +0.000 OA
BRANCH  19  20
ATOM     20  C   UNL     1      -0.401   9.968  23.035  0.00  0.00    +0.000 C 
ATOM     21  C   UNL     1      -1.351  11.128  23.097  0.00  0.00    +0.000 C 
ATOM     22  O   UNL     1       0.364   9.672  23.942  0.00  0.00    +0.000 OA
ENDBRANCH  19  20
ENDBRANCH   5  19
TORSDOF 6
ENDMDL
MODEL 3
REMARK VINA RESULT:      -6.8      3.273      7.255
REMARK  Name = 
REMARK  12 active torsions:
REMARK  status: ('A' for Active; 'I' for Inactive)
REMARK    1  A    between atoms: C_1  and  O_2
REMARK    2  A    between atoms: O_2  and  C_3
REMARK    3  A    between atoms: C_3  and  C_5
REMARK    4  A    between atoms: C_6  and  C_7
REMARK    5  A    between atoms: C_6  and  C_8
REMARK    6  A    between atoms: C_9  and  C_10
REMARK    7  A    between atoms: C_11  and  C_12
REMARK    8  A    between atoms: C_14  and  O_15
REMARK    9  A    between atoms: O_15  and  C_16
REMARK   10  A    between atoms: C_16  and  C_17
REMARK   11  A    between atoms: C_19  and  C_20
REMARK   12  A    between atoms: C_21  and  C_22
REMARK                            x       y       z     vdW  Elec       q    Type
REMARK                         _______ _______ _______ _____ _____    ______ ____
ROOT
ATOM      1  C   UNL     1       1.156   8.856  19.739  0.00  0.00    +0.000 A 
ATOM      2  C   UNL     1       0.783   8.250  20.959  0.00  0.00    +0.000 A 
ATOM      3  C   UNL     1      -0.060   8.936  22.002  0.00  0.00    +0.000 C 
ATOM      4  C   UNL     1       1.259   6.967  21.264  0.00  0.00    +0.000 A 
ATOM      5  C   UNL     1       2.092   6.289  20.380  0.00  0.00    +0.000 A 
ATOM      6  C   UNL     1       2.463   6.861  19.146  0.00  0.00    +0.000 A 
ATOM      7  C   UNL     1       3.359   6.106  18.196  0.00  0.00    +0.000 C 
ATOM      8  C   UNL     1       1.987   8.159  18.820  0.00  0.00    +0.000 A 
ATOM      9  C   UNL     1       2.360   8.830  17.515  0.00  0.00    +0.000 C 
ENDROOT
BRANCH   1  11
ATOM     10  C   UNL     1      -0.509  10.448  18.914  0.00  0.00    +0.000 C 
ATOM     11  C   UNL     1       0.699  10.231  19.461  0.00  0.00    +0.000 C 
BRANCH  10  13
ATOM     12  C   UNL     1      -2.045  11.836  17.553  0.00  0.00    +0.000 C 
ATOM     13  C   UNL     1      -1.045  11.726  18.453  0.00  0.00    +0.000 C 
ATOM     14  C   UNL     1      -0.385  12.986  18.963  0.00  0.00    +0.000 C 
BRANCH  12  15
ATOM     15  C   UNL     1      -2.804  10.730  16.920  0.00  0.00    +0.000 C 
ATOM     16  O   UNL     1      -3.077   9.657  17.429  0.00  0.00    +0.000 OA
BRANCH  15  18
ATOM     17  C   UNL     1      -3.004  10.082  14.695  0.00  0.00    +0.000 C 
ATOM     18  O   UNL     1      -3.141  11.123  15.664  0.00  0.00    +0.000 OA
ENDBRANCH  15  18
ENDBRANCH  12  15
ENDBRANCH  10  13
ENDBRANCH   1  11
BRANCH   5  19
ATOM     19  O   UNL     1       2.635   5.007  20.684  0.00  0.00    +0.000 OA
BRANCH  19  20
ATOM     20  C   UNL     1       1.970   3.870  21.154  0.00  0.00    +0.000 C 
ATOM     21  C   UNL     1       0.953   3.437  20.139  0.00  0.00    +0.000 C 
ATOM     22  O   UNL     1       2.180   3.268  22.199  0.00  0.00    +0.000 OA
ENDBRANCH  19  20
ENDBRANCH   5  19
TORSDOF 6
ENDMDL
MODEL 4
REMARK VINA RESULT:      -6.7      1.381      1.832
REMARK  Name = 
REMARK  12 active torsions:
REMARK  status: ('A' for Active; 'I' for Inactive)
REMARK    1  A    between atoms: C_1  and  O_2
REMARK    2  A    between atoms: O_2  and  C_3
REMARK    3  A    between atoms: C_3  and  C_5
REMARK    4  A    between atoms: C_6  and  C_7
REMARK    5  A    between atoms: C_6  and  C_8
REMARK    6  A    between atoms: C_9  and  C_10
REMARK    7  A    between atoms: C_11  and  C_12
REMARK    8  A    between atoms: C_14  and  O_15
REMARK    9  A    between atoms: O_15  and  C_16
REMARK   10  A    between atoms: C_16  and  C_17
REMARK   11  A    between atoms: C_19  and  C_20
REMARK   12  A    between atoms: C_21  and  C_22
REMARK                            x       y       z     vdW  Elec       q    Type
REMARK                         _______ _______ _______ _____ _____    ______ ____
ROOT
ATOM      1  C   UNL     1       2.446   6.895  19.475  0.00  0.00    +0.000 A 
ATOM      2  C   UNL     1       1.859   6.412  20.665  0.00  0.00    +0.000 A 
ATOM      3  C   UNL     1       2.118   5.034  21.217  0.00  0.00    +0.000 C 
ATOM      4  C   UNL     1       0.938   7.215  21.353  0.00  0.00    +0.000 A 
ATOM      5  C   UNL     1       0.599   8.476  20.876  0.00  0.00    +0.000 A 
ATOM      6  C   UNL     1       1.185   8.992  19.703  0.00  0.00    +0.000 A 
ATOM      7  C   UNL     1       0.812  10.368  19.207  0.00  0.00    +0.000 C 
ATOM      8  C   UNL     1       2.123   8.194  18.995  0.00  0.00    +0.000 A 
ATOM      9  C   UNL     1       2.778   8.689  17.723  0.00  0.00    +0.000 C 
ENDROOT
BRANCH   1  11
ATOM     10  C   UNL     1       2.890   5.156  17.812  0.00  0.00    +0.000 C 
ATOM     11  C   UNL     1       3.366   6.015  18.729  0.00  0.00    +0.000 C 
BRANCH  10  13
ATOM     12  C   UNL     1       4.750   4.387  16.368  0.00  0.00    +0.000 C 
ATOM     13  C   UNL     1       3.645   4.129  17.099  0.00  0.00    +0.000 C 
ATOM     14  C   UNL     1       3.106   2.718  17.127  0.00  0.00    +0.000 C 
BRANCH  12  15
ATOM     15  C   UNL     1       5.422   5.698  16.195  0.00  0.00    +0.000 C 
ATOM     16  O   UNL     1       5.113   6.570  15.403  0.00  0.00    +0.000 OA
BRANCH  15  18
ATOM     17  C   UNL     1       7.273   4.586  17.058  0.00  0.00    +0.000 C 
ATOM     18  O   UNL     1       6.453   5.756  17.078  0.00  0.00    +0.000 OA
ENDBRANCH  15  18
ENDBRANCH  12  15
ENDBRANCH  10  13
ENDBRANCH   1  11
BRANCH   5  19
ATOM     19  O   UNL     1      -0.373   9.294  21.523  0.00  0.00    +0.000 OA
BRANCH  19  20
ATOM     20  C   UNL     1      -0.245  10.024  22.709  0.00  0.00    +0.000 C 
ATOM     21  C   UNL     1      -0.983  11.324  22.572  0.00  0.00    +0.000 C 
ATOM     22  O   UNL     1       0.330   9.678  23.732  0.00  0.00    +0.000 OA
ENDBRANCH  19  20
ENDBRANCH   5  19
TORSDOF 6
ENDMDL
MODEL 5
REMARK VINA RESULT:      -6.7      1.867      2.668
REMARK  Name = 
REMARK  12 active torsions:
REMARK  status: ('A' for Active; 'I' for Inactive)
REMARK    1  A    between atoms: C_1  and  O_2
REMARK    2  A    between atoms: O_2  and  C_3
REMARK    3  A    between atoms: C_3  and  C_5
REMARK    4  A    between atoms: C_6  and  C_7
REMARK    5  A    between atoms: C_6  and  C_8
REMARK    6  A    between atoms: C_9  and  C_10
REMARK    7  A    between atoms: C_11  and  C_12
REMARK    8  A    between atoms: C_14  and  O_15
REMARK    9  A    between atoms: O_15  and  C_16
REMARK   10  A    between atoms: C_16  and  C_17
REMARK   11  A    between atoms: C_19  and  C_20
REMARK   12  A    between atoms: C_21  and  C_22
REMARK                            x       y       z     vdW  Elec       q    Type
REMARK                         _______ _______ _______ _____ _____    ______ ____
ROOT
ATOM      1  C   UNL     1       2.109   7.388  19.216  0.00  0.00    +0.000 A 
ATOM      2  C   UNL     1       1.658   6.743  20.390  0.00  0.00    +0.000 A 
ATOM      3  C   UNL     1       2.015   5.323  20.744  0.00  0.00    +0.000 C 
ATOM      4  C   UNL     1       0.785   7.419  21.254  0.00  0.00    +0.000 A 
ATOM      5  C   UNL     1       0.360   8.711  20.968  0.00  0.00    +0.000 A 
ATOM      6  C   UNL     1       0.811   9.387  19.815  0.00  0.00    +0.000 A 
ATOM      7  C   UNL     1       0.346  10.793  19.527  0.00  0.00    +0.000 C 
ATOM      8  C   UNL     1       1.698   8.718  18.930  0.00  0.00    +0.000 A 
ATOM      9  C   UNL     1       2.208   9.388  17.671  0.00  0.00    +0.000 C 
ENDROOT
BRANCH   1  11
ATOM     10  C   UNL     1       4.245   6.351  18.623  0.00  0.00    +0.000 C 
ATOM     11  C   UNL     1       2.977   6.642  18.286  0.00  0.00    +0.000 C 
BRANCH  10  13
ATOM     12  C   UNL     1       5.510   4.423  17.717  0.00  0.00    +0.000 C 
ATOM     13  C   UNL     1       5.263   5.750  17.766  0.00  0.00    +0.000 C 
ATOM     14  C   UNL     1       6.131   6.681  16.952  0.00  0.00    +0.000 C 
BRANCH  12  15
ATOM     15  C   UNL     1       4.792   3.352  18.450  0.00  0.00    +0.000 C 
ATOM     16  O   UNL     1       4.898   3.090  19.634  0.00  0.00    +0.000 OA
BRANCH  15  18
ATOM     17  C   UNL     1       2.605   3.000  17.738  0.00  0.00    +0.000 C 
ATOM     18  O   UNL     1       3.992   2.706  17.561  0.00  0.00    +0.000 OA
ENDBRANCH  15  18
ENDBRANCH  12  15
ENDBRANCH  10  13
ENDBRANCH   1  11
BRANCH   5  19
ATOM     19  O   UNL     1      -0.568   9.404  21.798  0.00  0.00    +0.000 OA
BRANCH  19  20
ATOM     20  C   UNL     1      -0.336  10.037  23.024  0.00  0.00    +0.000 C 
ATOM     21  C   UNL     1      -1.258  11.213  23.156  0.00  0.00    +0.000 C 
ATOM     22  O   UNL     1       0.453   9.696  23.894  0.00  0.00    +0.000 OA
ENDBRANCH  19  20
ENDBRANCH   5  19
TORSDOF 6
ENDMDL
MODEL 6
REMARK VINA RESULT:      -6.6      2.075      7.476
REMARK  Name = 
REMARK  12 active torsions:
REMARK  status: ('A' for Active; 'I' for Inactive)
REMARK    1  A    between atoms: C_1  and  O_2
REMARK    2  A    between atoms: O_2  and  C_3
REMARK    3  A    between atoms: C_3  and  C_5
REMARK    4  A    between atoms: C_6  and  C_7
REMARK    5  A    between atoms: C_6  and  C_8
REMARK    6  A    between atoms: C_9  and  C_10
REMARK    7  A    between atoms: C_11  and  C_12
REMARK    8  A    between atoms: C_14  and  O_15
REMARK    9  A    between atoms: O_15  and  C_16
REMARK   10  A    between atoms: C_16  and  C_17
REMARK   11  A    between atoms: C_19  and  C_20
REMARK   12  A    between atoms: C_21  and  C_22
REMARK                            x       y       z     vdW  Elec       q    Type
REMARK                         _______ _______ _______ _____ _____    ______ ____
ROOT
ATOM      1  C   UNL     1       2.559   6.532  19.348  0.00  0.00    +0.000 A 
ATOM      2  C   UNL     1       3.239   7.109  18.253  0.00  0.00    +0.000 A 
ATOM      3  C   UNL     1       2.844   8.424  17.631  0.00  0.00    +0.000 C 
ATOM      4  C   UNL     1       4.302   6.415  17.659  0.00  0.00    +0.000 A 
ATOM      5  C   UNL     1       4.691   5.167  18.136  0.00  0.00    +0.000 A 
ATOM      6  C   UNL     1       4.044   4.577  19.240  0.00  0.00    +0.000 A 
ATOM      7  C   UNL     1       4.487   3.227  19.749  0.00  0.00    +0.000 C 
ATOM      8  C   UNL     1       2.967   5.269  19.856  0.00  0.00    +0.000 A 
ATOM      9  C   UNL     1       2.226   4.681  21.039  0.00  0.00    +0.000 C 
ENDROOT
BRANCH   1  11
ATOM     10  C   UNL     1       1.550   8.485  20.424  0.00  0.00    +0.000 C 
ATOM     11  C   UNL     1       1.403   7.247  19.922  0.00  0.00    +0.000 C 
BRANCH  10  13
ATOM     12  C   UNL     1      -0.189  10.242  20.582  0.00  0.00    +0.000 C 
ATOM     13  C   UNL     1       0.546   9.261  21.147  0.00  0.00    +0.000 C 
ATOM     14  C   UNL     1       0.385   8.993  22.626  0.00  0.00    +0.000 C 
BRANCH  12  15
ATOM     15  C   UNL     1      -0.166  10.672  19.162  0.00  0.00    +0.000 C 
ATOM     16  O   UNL     1       0.651  11.412  18.645  0.00  0.00    +0.000 OA
BRANCH  15  18
ATOM     17  C   UNL     1      -2.300  11.008  18.301  0.00  0.00    +0.000 C 
ATOM     18  O   UNL     1      -1.226  10.096  18.537  0.00  0.00    +0.000 OA
ENDBRANCH  15  18
ENDBRANCH  12  15
ENDBRANCH  10  13
ENDBRANCH   1  11
BRANCH   5  19
ATOM     19  O   UNL     1       5.731   4.412  17.520  0.00  0.00    +0.000 OA
BRANCH  19  20
ATOM     20  C   UNL     1       7.081   4.749  17.375  0.00  0.00    +0.000 C 
ATOM     21  C   UNL     1       7.559   5.426  18.627  0.00  0.00    +0.000 C 
ATOM     22  O   UNL     1       7.804   4.511  16.418  0.00  0.00    +0.000 OA
ENDBRANCH  19  20
ENDBRANCH   5  19
TORSDOF 6
ENDMDL
MODEL 7
REMARK VINA RESULT:      -6.6      2.061      7.055
REMARK  Name = 
REMARK  12 active torsions:
REMARK  status: ('A' for Active; 'I' for Inactive)
REMARK    1  A    between atoms: C_1  and  O_2
REMARK    2  A    between atoms: O_2  and  C_3
REMARK    3  A    between atoms: C_3  and  C_5
REMARK    4  A    between atoms: C_6  and  C_7
REMARK    5  A    between atoms: C_6  and  C_8
REMARK    6  A    between atoms: C_9  and  C_10
REMARK    7  A    between atoms: C_11  and  C_12
REMARK    8  A    between atoms: C_14  and  O_15
REMARK    9  A    between atoms: O_15  and  C_16
REMARK   10  A    between atoms: C_16  and  C_17
REMARK   11  A    between atoms: C_19  and  C_20
REMARK   12  A    between atoms: C_21  and  C_22
REMARK                            x       y       z     vdW  Elec       q    Type
REMARK                         _______ _______ _______ _____ _____    ______ ____
ROOT
ATOM      1  C   UNL     1       2.502   6.471  19.425  0.00  0.00    +0.000 A 
ATOM      2  C   UNL     1       2.932   5.257  20.005  0.00  0.00    +0.000 A 
ATOM      3  C   UNL     1       2.333   4.681  21.261  0.00  0.00    +0.000 C 
ATOM      4  C   UNL     1       4.010   4.566  19.435  0.00  0.00    +0.000 A 
ATOM      5  C   UNL     1       4.658   5.062  18.309  0.00  0.00    +0.000 A 
ATOM      6  C   UNL     1       4.237   6.260  17.696  0.00  0.00    +0.000 A 
ATOM      7  C   UNL     1       4.946   6.777  16.469  0.00  0.00    +0.000 C 
ATOM      8  C   UNL     1       3.144   6.972  18.259  0.00  0.00    +0.000 A 
ATOM      9  C   UNL     1       2.653   8.269  17.653  0.00  0.00    +0.000 C 
ENDROOT
BRANCH   1  11
ATOM     10  C   UNL     1       1.608   8.473  20.511  0.00  0.00    +0.000 C 
ATOM     11  C   UNL     1       1.408   7.219  20.073  0.00  0.00    +0.000 C 
BRANCH  10  13
ATOM     12  C   UNL     1      -0.137  10.215  20.749  0.00  0.00    +0.000 C 
ATOM     13  C   UNL     1       0.678   9.286  21.291  0.00  0.00    +0.000 C 
ATOM     14  C   UNL     1       0.695   9.121  22.793  0.00  0.00    +0.000 C 
BRANCH  12  15
ATOM     15  C   UNL     1      -0.287  10.544  19.311  0.00  0.00    +0.000 C 
ATOM     16  O   UNL     1       0.417  11.299  18.664  0.00  0.00    +0.000 OA
BRANCH  15  18
ATOM     17  C   UNL     1      -1.691  10.193  17.489  0.00  0.00    +0.000 C 
ATOM     18  O   UNL     1      -1.359   9.856  18.837  0.00  0.00    +0.000 OA
ENDBRANCH  15  18
ENDBRANCH  12  15
ENDBRANCH  10  13
ENDBRANCH   1  11
BRANCH   5  19
ATOM     19  O   UNL     1       5.790   4.411  17.738  0.00  0.00    +0.000 OA
BRANCH  19  20
ATOM     20  C   UNL     1       7.146   4.699  17.927  0.00  0.00    +0.000 C 
ATOM     21  C   UNL     1       7.300   5.579  19.133  0.00  0.00    +0.000 C 
ATOM     22  O   UNL     1       8.089   4.288  17.265  0.00  0.00    +0.000 OA
ENDBRANCH  19  20
ENDBRANCH   5  19
TORSDOF 6
ENDMDL
MODEL 8
REMARK VINA RESULT:      -6.5      1.970      7.474
REMARK  Name = 
REMARK  12 active torsions:
REMARK  status: ('A' for Active; 'I' for Inactive)
REMARK    1  A    between atoms: C_1  and  O_2
REMARK    2  A    between atoms: O_2  and  C_3
REMARK    3  A    between atoms: C_3  and  C_5
REMARK    4  A    between atoms: C_6  and  C_7
REMARK    5  A    between atoms: C_6  and  C_8
REMARK    6  A    between atoms: C_9  and  C_10
REMARK    7  A    between atoms: C_11  and  C_12
REMARK    8  A    between atoms: C_14  and  O_15
REMARK    9  A    between atoms: O_15  and  C_16
REMARK   10  A    between atoms: C_16  and  C_17
REMARK   11  A    between atoms: C_19  and  C_20
REMARK   12  A    between atoms: C_21  and  C_22
REMARK                            x       y       z     vdW  Elec       q    Type
REMARK                         _______ _______ _______ _____ _____    ______ ____
ROOT
ATOM      1  C   UNL     1       2.384   6.970  19.321  0.00  0.00    +0.000 A 
ATOM      2  C   UNL     1       2.929   7.639  18.203  0.00  0.00    +0.000 A 
ATOM      3  C   UNL     1       2.399   8.950  17.682  0.00  0.00    +0.000 C 
ATOM      4  C   UNL     1       3.978   7.043  17.489  0.00  0.00    +0.000 A 
ATOM      5  C   UNL     1       4.484   5.805  17.869  0.00  0.00    +0.000 A 
ATOM      6  C   UNL     1       3.973   5.125  18.993  0.00  0.00    +0.000 A 
ATOM      7  C   UNL     1       4.543   3.787  19.396  0.00  0.00    +0.000 C 
ATOM      8  C   UNL     1       2.912   5.716  19.730  0.00  0.00    +0.000 A 
ATOM      9  C   UNL     1       2.316   5.028  20.940  0.00  0.00    +0.000 C 
ENDROOT
BRANCH   1  11
ATOM     10  C   UNL     1       1.355   8.797  20.582  0.00  0.00    +0.000 C 
ATOM     11  C   UNL     1       1.239   7.580  20.025  0.00  0.00    +0.000 C 
BRANCH  10  13
ATOM     12  C   UNL     1      -0.548  10.340  20.953  0.00  0.00    +0.000 C 
ATOM     13  C   UNL     1       0.370   9.471  21.425  0.00  0.00    +0.000 C 
ATOM     14  C   UNL     1       0.443   9.230  22.915  0.00  0.00    +0.000 C 
BRANCH  12  15
ATOM     15  C   UNL     1      -0.768  10.727  19.537  0.00  0.00    +0.000 C 
ATOM     16  O   UNL     1      -1.453  10.134  18.724  0.00  0.00    +0.000 OA
BRANCH  15  18
ATOM     17  C   UNL     1      -0.757  12.793  18.468  0.00  0.00    +0.000 C 
ATOM     18  O   UNL     1      -0.063  11.865  19.304  0.00  0.00    +0.000 OA
ENDBRANCH  15  18
ENDBRANCH  12  15
ENDBRANCH  10  13
ENDBRANCH   1  11
BRANCH   5  19
ATOM     19  O   UNL     1       5.512   5.149  17.132  0.00  0.00    +0.000 OA
BRANCH  19  20
ATOM     20  C   UNL     1       6.816   5.588  16.878  0.00  0.00    +0.000 C 
ATOM     21  C   UNL     1       7.534   5.783  18.181  0.00  0.00    +0.000 C 
ATOM     22  O   UNL     1       7.339   5.759  15.786  0.00  0.00    +0.000 OA
ENDBRANCH  19  20
ENDBRANCH   5  19
TORSDOF 6
ENDMDL
MODEL 9
REMARK VINA RESULT:      -6.5      2.615      4.163
REMARK  Name = 
REMARK  12 active torsions:
REMARK  status: ('A' for Active; 'I' for Inactive)
REMARK    1  A    between atoms: C_1  and  O_2
REMARK    2  A    between atoms: O_2  and  C_3
REMARK    3  A    between atoms: C_3  and  C_5
REMARK    4  A    between atoms: C_6  and  C_7
REMARK    5  A    between atoms: C_6  and  C_8
REMARK    6  A    between atoms: C_9  and  C_10
REMARK    7  A    between atoms: C_11  and  C_12
REMARK    8  A    between atoms: C_14  and  O_15
REMARK    9  A    between atoms: O_15  and  C_16
REMARK   10  A    between atoms: C_16  and  C_17
REMARK   11  A    between atoms: C_19  and  C_20
REMARK   12  A    between atoms: C_21  and  C_22
REMARK                            x       y       z     vdW  Elec       q    Type
REMARK                         _______ _______ _______ _____ _____    ______ ____
ROOT
ATOM      1  C   UNL     1       2.075   7.613  19.616  0.00  0.00    +0.000 A 
ATOM      2  C   UNL     1       2.514   8.079  18.357  0.00  0.00    +0.000 A 
ATOM      3  C   UNL     1       3.463   7.311  17.473  0.00  0.00    +0.000 C 
ATOM      4  C   UNL     1       2.109   9.346  17.912  0.00  0.00    +0.000 A 
ATOM      5  C   UNL     1       1.283  10.143  18.696  0.00  0.00    +0.000 A 
ATOM      6  C   UNL     1       0.812   9.695  19.947  0.00  0.00    +0.000 A 
ATOM      7  C   UNL     1      -0.092  10.572  20.778  0.00  0.00    +0.000 C 
ATOM      8  C   UNL     1       1.210   8.413  20.411  0.00  0.00    +0.000 A 
ATOM      9  C   UNL     1       0.746   7.882  21.751  0.00  0.00    +0.000 C 
ENDROOT
BRANCH   1  11
ATOM     10  C   UNL     1       2.002   5.168  19.653  0.00  0.00    +0.000 C 
ATOM     11  C   UNL     1       2.560   6.306  20.098  0.00  0.00    +0.000 C 
BRANCH  10  13
ATOM     12  C   UNL     1       3.349   3.091  19.763  0.00  0.00    +0.000 C 
ATOM     13  C   UNL     1       2.271   3.815  20.133  0.00  0.00    +0.000 C 
ATOM     14  C   UNL     1       1.240   3.174  21.032  0.00  0.00    +0.000 C 
BRANCH  12  15
ATOM     15  C   UNL     1       4.458   3.526  18.878  0.00  0.00    +0.000 C 
ATOM     16  O   UNL     1       5.519   4.007  19.232  0.00  0.00    +0.000 OA
BRANCH  15  18
ATOM     17  C   UNL     1       4.931   3.925  16.636  0.00  0.00    +0.000 C 
ATOM     18  O   UNL     1       4.078   3.296  17.594  0.00  0.00    +0.000 OA
ENDBRANCH  15  18
ENDBRANCH  12  15
ENDBRANCH  10  13
ENDBRANCH   1  11
BRANCH   5  19
ATOM     19  O   UNL     1       0.897  11.456  18.296  0.00  0.00    +0.000 OA
BRANCH  19  20
ATOM     20  C   UNL     1       1.638  12.641  18.372  0.00  0.00    +0.000 C 
ATOM     21  C   UNL     1       0.736  13.760  18.806  0.00  0.00    +0.000 C 
ATOM     22  O   UNL     1       2.836  12.779  18.168  0.00  0.00    +0.000 OA
ENDBRANCH  19  20
ENDBRANCH   5  19
TORSDOF 6
ENDMDL
