MODEL 1
REMARK VINA RESULT:      -7.4      0.000      0.000
REMARK  Name = 
REMARK  9 active torsions:
REMARK  status: ('A' for Active; 'I' for Inactive)
REMARK    1  A    between atoms: C_2  and  O_3
REMARK    2  A    between atoms: O_3  and  C_4
REMARK    3  A    between atoms: C_4  and  C_5
REMARK    4  A    between atoms: C_5  and  N_6
REMARK    5  A    between atoms: C_8  and  C_9
REMARK    6  A    between atoms: C_9  and  O_11
REMARK    7  A    between atoms: O_11  and  C_12
REMARK    8  A    between atoms: C_12  and  C_13
REMARK    9  A    between atoms: C_14  and  C_15
REMARK                            x       y       z     vdW  Elec       q    Type
REMARK                         _______ _______ _______ _____ _____    ______ ____
ROOT
ATOM      1  N   UNL     1       6.140   4.373  16.916  0.00  0.00    +0.000 N 
ATOM      2  C   UNL     1       4.971   3.620  16.883  0.00  0.00    +0.000 C 
ATOM      3  C   UNL     1       4.121   3.636  17.922  0.00  0.00    +0.000 C 
ATOM      4  C   UNL     1       4.369   4.559  19.072  0.00  0.00    +0.000 C 
ATOM      5  N   UNL     1       5.794   4.769  19.196  0.00  0.00    +0.000 N 
ATOM      6  C   UNL     1       6.615   4.907  18.116  0.00  0.00    +0.000 C 
ATOM      7  O   UNL     1       7.691   5.474  18.277  0.00  0.00    +0.000 OA
ATOM      8  H   UNL     1       6.134   5.244  20.020  0.00  0.00    +0.000 HD
ENDROOT
BRANCH   4   9
ATOM      9  C   UNL     1       3.632   5.892  18.921  0.00  0.00    +0.000 A 
ATOM     10  C   UNL     1       2.748   6.328  19.920  0.00  0.00    +0.000 A 
ATOM     11  C   UNL     1       2.028   7.518  19.767  0.00  0.00    +0.000 A 
ATOM     12  C   UNL     1       2.185   8.292  18.618  0.00  0.00    +0.000 A 
ATOM     13  C   UNL     1       3.071   7.889  17.628  0.00  0.00    +0.000 A 
ATOM     14  C   UNL     1       3.789   6.704  17.780  0.00  0.00    +0.000 A 
ENDBRANCH   4   9
BRANCH   3  15
ATOM     15  C   UNL     1       2.868   2.862  17.845  0.00  0.00    +0.000 C 
ATOM     16  O   UNL     1       2.072   2.937  16.923  0.00  0.00    +0.000 OA
BRANCH  15  17
ATOM     17  O   UNL     1       2.710   2.126  18.973  0.00  0.00    +0.000 OA
BRANCH  17  18
ATOM     18  C   UNL     1       1.381   2.090  19.511  0.00  0.00    +0.000 C 
ATOM     19  C   UNL     1       1.361   2.929  20.777  0.00  0.00    +0.000 C 
ENDBRANCH  17  18
ENDBRANCH  15  17
ENDBRANCH   3  15
BRANCH   1  20
ATOM     20  C   UNL     1       6.809   4.630  15.624  0.00  0.00    +0.000 C 
BRANCH  20  21
ATOM     21  C   UNL     1       6.013   4.347  14.348  0.00  0.00    +0.000 C 
BRANCH  21  22
ATOM     22  O   UNL     1       6.876   4.412  13.204  0.00  0.00    +0.000 OA
BRANCH  22  24
ATOM     23  C   UNL     1       5.195   3.233  12.025  0.00  0.00    +0.000 C 
ATOM     24  C   UNL     1       6.481   3.516  12.243  0.00  0.00    +0.000 C 
ENDBRANCH  22  24
ENDBRANCH  21  22
ENDBRANCH  20  21
ENDBRANCH   1  20
TORSDOF 8
ENDMDL
MODEL 2
REMARK VINA RESULT:      -7.3      1.974      2.660
REMARK  Name = 
REMARK  9 active torsions:
REMARK  status: ('A' for Active; 'I' for Inactive)
REMARK    1  A    between atoms: C_2  and  O_3
REMARK    2  A    between atoms: O_3  and  C_4
REMARK    3  A    between atoms: C_4  and  C_5
REMARK    4  A    between atoms: C_5  and  N_6
REMARK    5  A    between atoms: C_8  and  C_9
REMARK    6  A    between atoms: C_9  and  O_11
REMARK    7  A    between atoms: O_11  and  C_12
REMARK    8  A    between atoms: C_12  and  C_13
REMARK    9  A    between atoms: C_14  and  C_15
REMARK                            x       y       z     vdW  Elec       q    Type
REMARK                         _______ _______ _______ _____ _____    ______ ____
ROOT
ATOM      1  N   UNL     1       5.389   4.444  18.014  0.00  0.00    +0.000 N 
ATOM      2  C   UNL     1       4.150   3.898  17.691  0.00  0.00    +0.000 C 
ATOM      3  C   UNL     1       3.076   4.147  18.457  0.00  0.00    +0.000 C 
ATOM      4  C   UNL     1       3.180   5.113  19.593  0.00  0.00    +0.000 C 
ATOM      5  N   UNL     1       4.536   5.091  20.095  0.00  0.00    +0.000 N 
ATOM      6  C   UNL     1       5.623   4.994  19.276  0.00  0.00    +0.000 C 
ATOM      7  O   UNL     1       6.704   5.385  19.703  0.00  0.00    +0.000 OA
ATOM      8  H   UNL     1       4.730   5.574  20.961  0.00  0.00    +0.000 HD
ENDROOT
BRANCH   4   9
ATOM      9  C   UNL     1       2.769   6.532  19.194  0.00  0.00    +0.000 A 
ATOM     10  C   UNL     1       2.011   7.323  20.071  0.00  0.00    +0.000 A 
ATOM     11  C   UNL     1       1.583   8.600  19.694  0.00  0.00    +0.000 A 
ATOM     12  C   UNL     1       1.912   9.110  18.439  0.00  0.00    +0.000 A 
ATOM     13  C   UNL     1       2.680   8.353  17.563  0.00  0.00    +0.000 A 
ATOM     14  C   UNL     1       3.106   7.080  17.940  0.00  0.00    +0.000 A 
ENDBRANCH   4   9
BRANCH   3  15
ATOM     15  C   UNL     1       1.766   3.590  18.071  0.00  0.00    +0.000 C 
ATOM     16  O   UNL     1       1.082   4.021  17.155  0.00  0.00    +0.000 OA
BRANCH  15  17
ATOM     17  O   UNL     1       1.418   2.596  18.923  0.00  0.00    +0.000 OA
BRANCH  17  18
ATOM     18  C   UNL     1       0.616   2.991  20.045  0.00  0.00    +0.000 C 
ATOM     19  C   UNL     1       1.394   2.688  21.313  0.00  0.00    +0.000 C 
ENDBRANCH  17  18
ENDBRANCH  15  17
ENDBRANCH   3  15
BRANCH   1  20
ATOM     20  C   UNL     1       6.409   4.469  16.946  0.00  0.00    +0.000 C 
BRANCH  20  21
ATOM     21  C   UNL     1       6.492   5.728  16.079  0.00  0.00    +0.000 C 
BRANCH  21  22
ATOM     22  O   UNL     1       7.589   6.548  16.507  0.00  0.00    +0.000 OA
BRANCH  22  24
ATOM     23  C   UNL     1       7.975   8.510  17.776  0.00  0.00    +0.000 C 
ATOM     24  C   UNL     1       7.148   7.577  17.301  0.00  0.00    +0.000 C 
ENDBRANCH  22  24
ENDBRANCH  21  22
ENDBRANCH  20  21
ENDBRANCH   1  20
TORSDOF 8
ENDMDL
MODEL 3
REMARK VINA RESULT:      -7.2      1.978      5.854
REMARK  Name = 
REMARK  9 active torsions:
REMARK  status: ('A' for Active; 'I' for Inactive)
REMARK    1  A    between atoms: C_2  and  O_3
REMARK    2  A    between atoms: O_3  and  C_4
REMARK    3  A    between atoms: C_4  and  C_5
REMARK    4  A    between atoms: C_5  and  N_6
REMARK    5  A    between atoms: C_8  and  C_9
REMARK    6  A    between atoms: C_9  and  O_11
REMARK    7  A    between atoms: O_11  and  C_12
REMARK    8  A    between atoms: C_12  and  C_13
REMARK    9  A    between atoms: C_14  and  C_15
REMARK                            x       y       z     vdW  Elec       q    Type
REMARK                         _______ _______ _______ _____ _____    ______ ____
ROOT
ATOM      1  N   UNL     1       4.141   4.162  17.400  0.00  0.00    +0.000 N 
ATOM      2  C   UNL     1       5.059   3.903  16.388  0.00  0.00    +0.000 C 
ATOM      3  C   UNL     1       5.674   4.912  15.752  0.00  0.00    +0.000 C 
ATOM      4  C   UNL     1       5.465   6.320  16.212  0.00  0.00    +0.000 C 
ATOM      5  N   UNL     1       4.147   6.423  16.795  0.00  0.00    +0.000 N 
ATOM      6  C   UNL     1       3.606   5.441  17.572  0.00  0.00    +0.000 C 
ATOM      7  O   UNL     1       2.704   5.747  18.346  0.00  0.00    +0.000 OA
ATOM      8  H   UNL     1       3.794   7.344  17.013  0.00  0.00    +0.000 HD
ENDROOT
BRANCH   4   9
ATOM      9  C   UNL     1       6.538   6.776  17.203  0.00  0.00    +0.000 A 
ATOM     10  C   UNL     1       7.084   8.065  17.111  0.00  0.00    +0.000 A 
ATOM     11  C   UNL     1       8.104   8.473  17.977  0.00  0.00    +0.000 A 
ATOM     12  C   UNL     1       8.588   7.603  18.952  0.00  0.00    +0.000 A 
ATOM     13  C   UNL     1       8.047   6.330  19.075  0.00  0.00    +0.000 A 
ATOM     14  C   UNL     1       7.030   5.924  18.212  0.00  0.00    +0.000 A 
ENDBRANCH   4   9
BRANCH   3  15
ATOM     15  C   UNL     1       6.674   4.610  14.710  0.00  0.00    +0.000 C 
ATOM     16  O   UNL     1       7.693   5.259  14.531  0.00  0.00    +0.000 OA
BRANCH  15  17
ATOM     17  O   UNL     1       6.253   3.566  13.955  0.00  0.00    +0.000 OA
BRANCH  17  18
ATOM     18  C   UNL     1       6.338   3.753  12.535  0.00  0.00    +0.000 C 
ATOM     19  C   UNL     1       4.988   3.407  11.931  0.00  0.00    +0.000 C 
ENDBRANCH  17  18
ENDBRANCH  15  17
ENDBRANCH   3  15
BRANCH   1  20
ATOM     20  C   UNL     1       3.814   3.046  18.311  0.00  0.00    +0.000 C 
BRANCH  20  21
ATOM     21  C   UNL     1       2.696   2.091  17.886  0.00  0.00    +0.000 C 
BRANCH  21  22
ATOM     22  O   UNL     1       1.416   2.685  18.146  0.00  0.00    +0.000 OA
BRANCH  22  24
ATOM     23  C   UNL     1       0.802   3.591  20.245  0.00  0.00    +0.000 C 
ATOM     24  C   UNL     1       1.071   2.542  19.466  0.00  0.00    +0.000 C 
ENDBRANCH  22  24
ENDBRANCH  21  22
ENDBRANCH  20  21
ENDBRANCH   1  20
TORSDOF 8
ENDMDL
MODEL 4
REMARK VINA RESULT:      -7.2      1.060      1.534
REMARK  Name = 
REMARK  9 active torsions:
REMARK  status: ('A' for Active; 'I' for Inactive)
REMARK    1  A    between atoms: C_2  and  O_3
REMARK    2  A    between atoms: O_3  and  C_4
REMARK    3  A    between atoms: C_4  and  C_5
REMARK    4  A    between atoms: C_5  and  N_6
REMARK    5  A    between atoms: C_8  and  C_9
REMARK    6  A    between atoms: C_9  and  O_11
REMARK    7  A    between atoms: O_11  and  C_12
REMARK    8  A    between atoms: C_12  and  C_13
REMARK    9  A    between atoms: C_14  and  C_15
REMARK                            x       y       z     vdW  Elec       q    Type
REMARK                         _______ _______ _______ _____ _____    ______ ____
ROOT
ATOM      1  N   UNL     1       5.195   5.339  16.938  0.00  0.00    +0.000 N 
ATOM      2  C   UNL     1       4.043   4.559  16.926  0.00  0.00    +0.000 C 
ATOM      3  C   UNL     1       3.258   4.487  18.012  0.00  0.00    +0.000 C 
ATOM      4  C   UNL     1       3.553   5.343  19.202  0.00  0.00    +0.000 C 
ATOM      5  N   UNL     1       4.978   5.583  19.256  0.00  0.00    +0.000 N 
ATOM      6  C   UNL     1       5.729   5.810  18.140  0.00  0.00    +0.000 C 
ATOM      7  O   UNL     1       6.799   6.395  18.273  0.00  0.00    +0.000 OA
ATOM      8  H   UNL     1       5.356   6.016  20.086  0.00  0.00    +0.000 HD
ENDROOT
BRANCH   4   9
ATOM      9  C   UNL     1       2.777   6.662  19.180  0.00  0.00    +0.000 A 
ATOM     10  C   UNL     1       2.745   7.444  18.016  0.00  0.00    +0.000 A 
ATOM     11  C   UNL     1       2.085   8.677  18.001  0.00  0.00    +0.000 A 
ATOM     12  C   UNL     1       1.441   9.144  19.146  0.00  0.00    +0.000 A 
ATOM     13  C   UNL     1       1.442   8.376  20.303  0.00  0.00    +0.000 A 
ATOM     14  C   UNL     1       2.100   7.147  20.317  0.00  0.00    +0.000 A 
ENDBRANCH   4   9
BRANCH   3  15
ATOM     15  C   UNL     1       2.021   3.685  17.961  0.00  0.00    +0.000 C 
ATOM     16  O   UNL     1       1.091   3.910  17.202  0.00  0.00    +0.000 OA
BRANCH  15  17
ATOM     17  O   UNL     1       2.051   2.727  18.919  0.00  0.00    +0.000 OA
BRANCH  17  18
ATOM     18  C   UNL     1       0.910   2.680  19.786  0.00  0.00    +0.000 C 
ATOM     19  C   UNL     1       1.352   3.107  21.175  0.00  0.00    +0.000 C 
ENDBRANCH  17  18
ENDBRANCH  15  17
ENDBRANCH   3  15
BRANCH   1  20
ATOM     20  C   UNL     1       5.779   5.693  15.628  0.00  0.00    +0.000 C 
BRANCH  20  21
ATOM     21  C   UNL     1       6.716   4.675  14.975  0.00  0.00    +0.000 C 
BRANCH  21  22
ATOM     22  O   UNL     1       5.955   3.713  14.230  0.00  0.00    +0.000 OA
BRANCH  22  24
ATOM     23  C   UNL     1       5.682   3.072  11.967  0.00  0.00    +0.000 C 
ATOM     24  C   UNL     1       6.411   3.623  12.939  0.00  0.00    +0.000 C 
ENDBRANCH  22  24
ENDBRANCH  21  22
ENDBRANCH  20  21
ENDBRANCH   1  20
TORSDOF 8
ENDMDL
MODEL 5
REMARK VINA RESULT:      -7.2      0.542      1.140
REMARK  Name = 
REMARK  9 active torsions:
REMARK  status: ('A' for Active; 'I' for Inactive)
REMARK    1  A    between atoms: C_2  and  O_3
REMARK    2  A    between atoms: O_3  and  C_4
REMARK    3  A    between atoms: C_4  and  C_5
REMARK    4  A    between atoms: C_5  and  N_6
REMARK    5  A    between atoms: C_8  and  C_9
REMARK    6  A    between atoms: C_9  and  O_11
REMARK    7  A    between atoms: O_11  and  C_12
REMARK    8  A    between atoms: C_12  and  C_13
REMARK    9  A    between atoms: C_14  and  C_15
REMARK                            x       y       z     vdW  Elec       q    Type
REMARK                         _______ _______ _______ _____ _____    ______ ____
ROOT
ATOM      1  N   UNL     1       6.038   4.231  17.088  0.00  0.00    +0.000 N 
ATOM      2  C   UNL     1       4.875   3.468  17.120  0.00  0.00    +0.000 C 
ATOM      3  C   UNL     1       4.029   3.559  18.157  0.00  0.00    +0.000 C 
ATOM      4  C   UNL     1       4.271   4.574  19.229  0.00  0.00    +0.000 C 
ATOM      5  N   UNL     1       5.694   4.806  19.330  0.00  0.00    +0.000 N 
ATOM      6  C   UNL     1       6.511   4.864  18.240  0.00  0.00    +0.000 C 
ATOM      7  O   UNL     1       7.582   5.452  18.351  0.00  0.00    +0.000 OA
ATOM      8  H   UNL     1       6.032   5.350  20.112  0.00  0.00    +0.000 HD
ENDROOT
BRANCH   4   9
ATOM      9  C   UNL     1       3.521   5.883  18.974  0.00  0.00    +0.000 A 
ATOM     10  C   UNL     1       3.771   6.627  17.811  0.00  0.00    +0.000 A 
ATOM     11  C   UNL     1       3.132   7.852  17.594  0.00  0.00    +0.000 A 
ATOM     12  C   UNL     1       2.227   8.349  18.531  0.00  0.00    +0.000 A 
ATOM     13  C   UNL     1       1.948   7.618  19.679  0.00  0.00    +0.000 A 
ATOM     14  C   UNL     1       2.585   6.397  19.894  0.00  0.00    +0.000 A 
ENDBRANCH   4   9
BRANCH   3  15
ATOM     15  C   UNL     1       2.783   2.769  18.148  0.00  0.00    +0.000 C 
ATOM     16  O   UNL     1       2.039   2.676  17.184  0.00  0.00    +0.000 OA
BRANCH  15  17
ATOM     17  O   UNL     1       2.564   2.238  19.376  0.00  0.00    +0.000 OA
BRANCH  17  18
ATOM     18  C   UNL     1       1.340   2.630  20.013  0.00  0.00    +0.000 C 
ATOM     19  C   UNL     1       1.654   3.003  21.451  0.00  0.00    +0.000 C 
ENDBRANCH  17  18
ENDBRANCH  15  17
ENDBRANCH   3  15
BRANCH   1  20
ATOM     20  C   UNL     1       6.701   4.389  15.777  0.00  0.00    +0.000 C 
BRANCH  20  21
ATOM     21  C   UNL     1       5.923   5.112  14.676  0.00  0.00    +0.000 C 
BRANCH  21  22
ATOM     22  O   UNL     1       5.296   4.158  13.808  0.00  0.00    +0.000 OA
BRANCH  22  24
ATOM     23  C   UNL     1       5.819   2.834  11.916  0.00  0.00    +0.000 C 
ATOM     24  C   UNL     1       6.178   3.709  12.857  0.00  0.00    +0.000 C 
ENDBRANCH  22  24
ENDBRANCH  21  22
ENDBRANCH  20  21
ENDBRANCH   1  20
TORSDOF 8
ENDMDL
MODEL 6
REMARK VINA RESULT:      -7.2      0.936      1.101
REMARK  Name = 
REMARK  9 active torsions:
REMARK  status: ('A' for Active; 'I' for Inactive)
REMARK    1  A    between atoms: C_2  and  O_3
REMARK    2  A    between atoms: O_3  and  C_4
REMARK    3  A    between atoms: C_4  and  C_5
REMARK    4  A    between atoms: C_5  and  N_6
REMARK    5  A    between atoms: C_8  and  C_9
REMARK    6  A    between atoms: C_9  and  O_11
REMARK    7  A    between atoms: O_11  and  C_12
REMARK    8  A    between atoms: C_12  and  C_13
REMARK    9  A    between atoms: C_14  and  C_15
REMARK                            x       y       z     vdW  Elec       q    Type
REMARK                         _______ _______ _______ _____ _____    ______ ____
ROOT
ATOM      1  N   UNL     1       5.505   4.235  17.600  0.00  0.00    +0.000 N 
ATOM      2  C   UNL     1       4.235   3.689  17.450  0.00  0.00    +0.000 C 
ATOM      3  C   UNL     1       3.260   3.982  18.325  0.00  0.00    +0.000 C 
ATOM      4  C   UNL     1       3.503   4.994  19.398  0.00  0.00    +0.000 C 
ATOM      5  N   UNL     1       4.908   4.980  19.736  0.00  0.00    +0.000 N 
ATOM      6  C   UNL     1       5.890   4.837  18.800  0.00  0.00    +0.000 C 
ATOM      7  O   UNL     1       7.017   5.234  19.079  0.00  0.00    +0.000 OA
ATOM      8  H   UNL     1       5.207   5.497  20.551  0.00  0.00    +0.000 HD
ENDROOT
BRANCH   4   9
ATOM      9  C   UNL     1       3.054   6.399  18.988  0.00  0.00    +0.000 A 
ATOM     10  C   UNL     1       2.192   7.135  19.815  0.00  0.00    +0.000 A 
ATOM     11  C   UNL     1       1.733   8.397  19.424  0.00  0.00    +0.000 A 
ATOM     12  C   UNL     1       2.133   8.946  18.207  0.00  0.00    +0.000 A 
ATOM     13  C   UNL     1       3.003   8.243  17.383  0.00  0.00    +0.000 A 
ATOM     14  C   UNL     1       3.461   6.985  17.773  0.00  0.00    +0.000 A 
ENDBRANCH   4   9
BRANCH   3  15
ATOM     15  C   UNL     1       1.911   3.422  18.121  0.00  0.00    +0.000 C 
ATOM     16  O   UNL     1       1.135   3.803  17.259  0.00  0.00    +0.000 OA
BRANCH  15  17
ATOM     17  O   UNL     1       1.649   2.490  19.070  0.00  0.00    +0.000 OA
BRANCH  17  18
ATOM     18  C   UNL     1       0.795   2.917  20.141  0.00  0.00    +0.000 C 
ATOM     19  C   UNL     1       1.522   2.672  21.452  0.00  0.00    +0.000 C 
ENDBRANCH  17  18
ENDBRANCH  15  17
ENDBRANCH   3  15
BRANCH   1  20
ATOM     20  C   UNL     1       6.392   4.205  16.418  0.00  0.00    +0.000 C 
BRANCH  20  21
ATOM     21  C   UNL     1       6.614   5.520  15.668  0.00  0.00    +0.000 C 
BRANCH  21  22
ATOM     22  O   UNL     1       6.699   5.274  14.257  0.00  0.00    +0.000 OA
BRANCH  22  24
ATOM     23  C   UNL     1       6.095   3.589  12.707  0.00  0.00    +0.000 C 
ATOM     24  C   UNL     1       6.306   3.993  13.961  0.00  0.00    +0.000 C 
ENDBRANCH  22  24
ENDBRANCH  21  22
ENDBRANCH  20  21
ENDBRANCH   1  20
TORSDOF 8
ENDMDL
MODEL 7
REMARK VINA RESULT:      -7.1      1.081      1.235
REMARK  Name = 
REMARK  9 active torsions:
REMARK  status: ('A' for Active; 'I' for Inactive)
REMARK    1  A    between atoms: C_2  and  O_3
REMARK    2  A    between atoms: O_3  and  C_4
REMARK    3  A    between atoms: C_4  and  C_5
REMARK    4  A    between atoms: C_5  and  N_6
REMARK    5  A    between atoms: C_8  and  C_9
REMARK    6  A    between atoms: C_9  and  O_11
REMARK    7  A    between atoms: O_11  and  C_12
REMARK    8  A    between atoms: C_12  and  C_13
REMARK    9  A    between atoms: C_14  and  C_15
REMARK                            x       y       z     vdW  Elec       q    Type
REMARK                         _______ _______ _______ _____ _____    ______ ____
ROOT
ATOM      1  N   UNL     1       5.172   5.324  16.748  0.00  0.00    +0.000 N 
ATOM      2  C   UNL     1       4.011   4.561  16.804  0.00  0.00    +0.000 C 
ATOM      3  C   UNL     1       3.275   4.523  17.926  0.00  0.00    +0.000 C 
ATOM      4  C   UNL     1       3.635   5.399  19.083  0.00  0.00    +0.000 C 
ATOM      5  N   UNL     1       5.064   5.619  19.067  0.00  0.00    +0.000 N 
ATOM      6  C   UNL     1       5.767   5.812  17.913  0.00  0.00    +0.000 C 
ATOM      7  O   UNL     1       6.850   6.384  17.986  0.00  0.00    +0.000 OA
ATOM      8  H   UNL     1       5.486   6.063  19.870  0.00  0.00    +0.000 HD
ENDROOT
BRANCH   4   9
ATOM      9  C   UNL     1       2.878   6.728  19.068  0.00  0.00    +0.000 A 
ATOM     10  C   UNL     1       2.124   7.126  20.182  0.00  0.00    +0.000 A 
ATOM     11  C   UNL     1       1.383   8.313  20.158  0.00  0.00    +0.000 A 
ATOM     12  C   UNL     1       1.391   9.123  19.024  0.00  0.00    +0.000 A 
ATOM     13  C   UNL     1       2.148   8.759  17.918  0.00  0.00    +0.000 A 
ATOM     14  C   UNL     1       2.886   7.577  17.942  0.00  0.00    +0.000 A 
ENDBRANCH   4   9
BRANCH   3  15
ATOM     15  C   UNL     1       2.026   3.738  17.947  0.00  0.00    +0.000 C 
ATOM     16  O   UNL     1       1.062   3.967  17.234  0.00  0.00    +0.000 OA
BRANCH  15  17
ATOM     17  O   UNL     1       2.091   2.792  18.916  0.00  0.00    +0.000 OA
BRANCH  17  18
ATOM     18  C   UNL     1       0.965   2.732  19.803  0.00  0.00    +0.000 C 
ATOM     19  C   UNL     1       1.401   3.263  21.158  0.00  0.00    +0.000 C 
ENDBRANCH  17  18
ENDBRANCH  15  17
ENDBRANCH   3  15
BRANCH   1  20
ATOM     20  C   UNL     1       5.701   5.643  15.405  0.00  0.00    +0.000 C 
BRANCH  20  21
ATOM     21  C   UNL     1       6.794   4.731  14.843  0.00  0.00    +0.000 C 
BRANCH  21  22
ATOM     22  O   UNL     1       6.212   3.526  14.325  0.00  0.00    +0.000 OA
BRANCH  22  24
ATOM     23  C   UNL     1       7.009   3.991  12.145  0.00  0.00    +0.000 C 
ATOM     24  C   UNL     1       6.028   3.617  12.968  0.00  0.00    +0.000 C 
ENDBRANCH  22  24
ENDBRANCH  21  22
ENDBRANCH  20  21
ENDBRANCH   1  20
TORSDOF 8
ENDMDL
MODEL 8
REMARK VINA RESULT:      -7.1      1.073      1.394
REMARK  Name = 
REMARK  9 active torsions:
REMARK  status: ('A' for Active; 'I' for Inactive)
REMARK    1  A    between atoms: C_2  and  O_3
REMARK    2  A    between atoms: O_3  and  C_4
REMARK    3  A    between atoms: C_4  and  C_5
REMARK    4  A    between atoms: C_5  and  N_6
REMARK    5  A    between atoms: C_8  and  C_9
REMARK    6  A    between atoms: C_9  and  O_11
REMARK    7  A    between atoms: O_11  and  C_12
REMARK    8  A    between atoms: C_12  and  C_13
REMARK    9  A    between atoms: C_14  and  C_15
REMARK                            x       y       z     vdW  Elec       q    Type
REMARK                         _______ _______ _______ _____ _____    ______ ____
ROOT
ATOM      1  N   UNL     1       5.727   4.568  15.806  0.00  0.00    +0.000 N 
ATOM      2  C   UNL     1       4.889   3.621  16.385  0.00  0.00    +0.000 C 
ATOM      3  C   UNL     1       4.611   3.669  17.697  0.00  0.00    +0.000 C 
ATOM      4  C   UNL     1       5.104   4.816  18.521  0.00  0.00    +0.000 C 
ATOM      5  N   UNL     1       6.336   5.302  17.943  0.00  0.00    +0.000 N 
ATOM      6  C   UNL     1       6.534   5.390  16.596  0.00  0.00    +0.000 C 
ATOM      7  O   UNL     1       7.393   6.164  16.188  0.00  0.00    +0.000 OA
ATOM      8  H   UNL     1       6.876   5.974  18.470  0.00  0.00    +0.000 HD
ENDROOT
BRANCH   4   9
ATOM      9  C   UNL     1       4.072   5.940  18.634  0.00  0.00    +0.000 A 
ATOM     10  C   UNL     1       3.210   6.001  19.740  0.00  0.00    +0.000 A 
ATOM     11  C   UNL     1       2.228   6.993  19.826  0.00  0.00    +0.000 A 
ATOM     12  C   UNL     1       2.096   7.943  18.814  0.00  0.00    +0.000 A 
ATOM     13  C   UNL     1       2.954   7.914  17.722  0.00  0.00    +0.000 A 
ATOM     14  C   UNL     1       3.933   6.926  17.636  0.00  0.00    +0.000 A 
ENDBRANCH   4   9
BRANCH   3  15
ATOM     15  C   UNL     1       3.687   2.677  18.280  0.00  0.00    +0.000 C 
ATOM     16  O   UNL     1       3.956   1.972  19.239  0.00  0.00    +0.000 OA
BRANCH  15  17
ATOM     17  O   UNL     1       2.546   2.624  17.549  0.00  0.00    +0.000 OA
BRANCH  17  18
ATOM     18  C   UNL     1       1.493   3.497  17.978  0.00  0.00    +0.000 C 
ATOM     19  C   UNL     1       0.850   2.893  19.214  0.00  0.00    +0.000 C 
ENDBRANCH  17  18
ENDBRANCH  15  17
ENDBRANCH   3  15
BRANCH   1  20
ATOM     20  C   UNL     1       5.671   4.703  14.336  0.00  0.00    +0.000 C 
BRANCH  20  21
ATOM     21  C   UNL     1       6.697   3.918  13.516  0.00  0.00    +0.000 C 
BRANCH  21  22
ATOM     22  O   UNL     1       6.192   3.680  12.194  0.00  0.00    +0.000 OA
BRANCH  22  24
ATOM     23  C   UNL     1       4.106   3.242  11.163  0.00  0.00    +0.000 C 
ATOM     24  C   UNL     1       4.894   3.239  12.241  0.00  0.00    +0.000 C 
ENDBRANCH  22  24
ENDBRANCH  21  22
ENDBRANCH  20  21
ENDBRANCH   1  20
TORSDOF 8
ENDMDL
MODEL 9
REMARK VINA RESULT:      -7.1      2.044      5.919
REMARK  Name = 
REMARK  9 active torsions:
REMARK  status: ('A' for Active; 'I' for Inactive)
REMARK    1  A    between atoms: C_2  and  O_3
REMARK    2  A    between atoms: O_3  and  C_4
REMARK    3  A    between atoms: C_4  and  C_5
REMARK    4  A    between atoms: C_5  and  N_6
REMARK    5  A    between atoms: C_8  and  C_9
REMARK    6  A    between atoms: C_9  and  O_11
REMARK    7  A    between atoms: O_11  and  C_12
REMARK    8  A    between atoms: C_12  and  C_13
REMARK    9  A    between atoms: C_14  and  C_15
REMARK                            x       y       z     vdW  Elec       q    Type
REMARK                         _______ _______ _______ _____ _____    ______ ____
ROOT
ATOM      1  N   UNL     1       3.941   4.107  17.225  0.00  0.00    +0.000 N 
ATOM      2  C   UNL     1       4.845   3.858  16.197  0.00  0.00    +0.000 C 
ATOM      3  C   UNL     1       5.549   4.862  15.653  0.00  0.00    +0.000 C 
ATOM      4  C   UNL     1       5.455   6.238  16.231  0.00  0.00    +0.000 C 
ATOM      5  N   UNL     1       4.144   6.402  16.817  0.00  0.00    +0.000 N 
ATOM      6  C   UNL     1       3.514   5.406  17.505  0.00  0.00    +0.000 C 
ATOM      7  O   UNL     1       2.633   5.721  18.299  0.00  0.00    +0.000 OA
ATOM      8  H   UNL     1       3.868   7.328  17.113  0.00  0.00    +0.000 HD
ENDROOT
BRANCH   4   9
ATOM      9  C   UNL     1       6.552   6.515  17.262  0.00  0.00    +0.000 A 
ATOM     10  C   UNL     1       6.885   5.544  18.219  0.00  0.00    +0.000 A 
ATOM     11  C   UNL     1       7.847   5.808  19.199  0.00  0.00    +0.000 A 
ATOM     12  C   UNL     1       8.497   7.041  19.233  0.00  0.00    +0.000 A 
ATOM     13  C   UNL     1       8.198   8.008  18.282  0.00  0.00    +0.000 A 
ATOM     14  C   UNL     1       7.239   7.745  17.305  0.00  0.00    +0.000 A 
ENDBRANCH   4   9
BRANCH   3  15
ATOM     15  C   UNL     1       6.531   4.567  14.592  0.00  0.00    +0.000 C 
ATOM     16  O   UNL     1       7.514   5.253  14.359  0.00  0.00    +0.000 OA
BRANCH  15  17
ATOM     17  O   UNL     1       6.136   3.479  13.887  0.00  0.00    +0.000 OA
BRANCH  17  18
ATOM     18  C   UNL     1       6.292   3.572  12.464  0.00  0.00    +0.000 C 
ATOM     19  C   UNL     1       4.972   3.188  11.818  0.00  0.00    +0.000 C 
ENDBRANCH  17  18
ENDBRANCH  15  17
ENDBRANCH   3  15
BRANCH   1  20
ATOM     20  C   UNL     1       3.512   2.948  18.035  0.00  0.00    +0.000 C 
BRANCH  20  21
ATOM     21  C   UNL     1       4.214   2.727  19.377  0.00  0.00    +0.000 C 
BRANCH  21  22
ATOM     22  O   UNL     1       3.565   3.490  20.404  0.00  0.00    +0.000 OA
BRANCH  22  24
ATOM     23  C   UNL     1       1.379   2.846  21.049  0.00  0.00    +0.000 C 
ATOM     24  C   UNL     1       2.704   2.702  21.126  0.00  0.00    +0.000 C 
ENDBRANCH  22  24
ENDBRANCH  21  22
ENDBRANCH  20  21
ENDBRANCH   1  20
TORSDOF 8
ENDMDL
