MODEL 1
REMARK VINA RESULT:     -11.9      0.000      0.000
REMARK  Name = 
REMARK  3 active torsions:
REMARK  status: ('A' for Active; 'I' for Inactive)
REMARK    1  A    between atoms: C_4  and  C_5
REMARK    2  A    between atoms: C_5  and  N_6
REMARK    3  A    between atoms: C_7  and  C_8
REMARK                            x       y       z     vdW  Elec       q    Type
REMARK                         _______ _______ _______ _____ _____    ______ ____
ROOT
ATOM      1  N   UNL     1       3.987   3.992  17.503  0.00  0.00    +0.000 N 
ATOM      2  C   UNL     1       4.230   4.799  18.607  0.00  0.00    +0.000 A 
ATOM      3  C   UNL     1       4.592   3.557  19.171  0.00  0.00    +0.000 A 
ATOM      4  C   UNL     1       3.341   3.090  19.499  0.00  0.00    +0.000 A 
ATOM      5  C   UNL     1       3.073   2.529  20.849  0.00  0.00    +0.000 A 
ATOM      6  C   UNL     1       1.901   2.510  21.542  0.00  0.00    +0.000 A 
ATOM      7  C   UNL     1       0.948   3.086  20.777  0.00  0.00    +0.000 A 
ATOM      8  C   UNL     1       1.237   3.526  19.301  0.00  0.00    +0.000 A 
ATOM      9  C   UNL     1       2.464   3.538  18.212  0.00  0.00    +0.000 A 
ENDROOT
BRANCH   2  10
ATOM     10  C   UNL     1       3.461   6.075  18.422  0.00  0.00    +0.000 A 
ATOM     11  N   UNL     1       2.801   6.485  19.496  0.00  0.00    +0.000 NA
ATOM     12  C   UNL     1       2.341   7.731  19.375  0.00  0.00    +0.000 A 
ATOM     13  C   UNL     1       1.554   8.416  20.295  0.00  0.00    +0.000 A 
ATOM     14  C   UNL     1       0.798   9.519  19.906  0.00  0.00    +0.000 A 
ATOM     15  C   UNL     1      -0.243   9.990  20.714  0.00  0.00    +0.000 A 
ATOM     16  C   UNL     1      -1.104  10.984  20.250  0.00  0.00    +0.000 A 
ATOM     17  C   UNL     1      -0.506  12.109  19.711  0.00  0.00    +0.000 A 
ATOM     18  C   UNL     1       0.244  11.500  18.713  0.00  0.00    +0.000 A 
ATOM     19  C   UNL     1       1.005  10.146  18.694  0.00  0.00    +0.000 A 
ATOM     20  C   UNL     1       1.865   9.352  17.695  0.00  0.00    +0.000 A 
ATOM     21  C   UNL     1       2.580   8.173  18.101  0.00  0.00    +0.000 A 
ATOM     22  N   UNL     1       3.574   7.234  17.638  0.00  0.00    +0.000 N 
ATOM     23  H   UNL     1       4.514   7.508  17.392  0.00  0.00    +0.000 HD
ENDBRANCH   2  10
BRANCH   1  24
ATOM     24  C   UNL     1       4.877   4.850  16.206  0.00  0.00    +0.000 C 
BRANCH  24  28
ATOM     25  C   UNL     1       7.135   4.251  12.190  0.00  0.00    +0.000 A 
ATOM     26  C   UNL     1       7.724   5.006  13.186  0.00  0.00    +0.000 A 
ATOM     27  C   UNL     1       7.080   5.076  14.482  0.00  0.00    +0.000 A 
ATOM     28  C   UNL     1       5.740   4.507  14.788  0.00  0.00    +0.000 A 
ATOM     29  C   UNL     1       5.299   3.653  13.781  0.00  0.00    +0.000 A 
ATOM     30  C   UNL     1       5.970   3.547  12.514  0.00  0.00    +0.000 A 
ENDBRANCH  24  28
ENDBRANCH   1  24
TORSDOF 3
ENDMDL
MODEL 2
REMARK VINA RESULT:     -10.0      2.141      2.894
REMARK  Name = 
REMARK  3 active torsions:
REMARK  status: ('A' for Active; 'I' for Inactive)
REMARK    1  A    between atoms: C_4  and  C_5
REMARK    2  A    between atoms: C_5  and  N_6
REMARK    3  A    between atoms: C_7  and  C_8
REMARK                            x       y       z     vdW  Elec       q    Type
REMARK                         _______ _______ _______ _____ _____    ______ ____
ROOT
ATOM      1  N   UNL     1       4.420   4.462  17.499  0.00  0.00    +0.000 N 
ATOM      2  C   UNL     1       4.127   4.993  18.749  0.00  0.00    +0.000 A 
ATOM      3  C   UNL     1       4.386   3.663  19.142  0.00  0.00    +0.000 A 
ATOM      4  C   UNL     1       3.168   3.101  18.840  0.00  0.00    +0.000 A 
ATOM      5  C   UNL     1       2.471   2.233  19.825  0.00  0.00    +0.000 A 
ATOM      6  C   UNL     1       1.134   2.023  19.973  0.00  0.00    +0.000 A 
ATOM      7  C   UNL     1       0.486   2.738  19.026  0.00  0.00    +0.000 A 
ATOM      8  C   UNL     1       1.265   3.519  17.913  0.00  0.00    +0.000 A 
ATOM      9  C   UNL     1       2.805   3.816  17.433  0.00  0.00    +0.000 A 
ENDROOT
BRANCH   2  10
ATOM     10  C   UNL     1       3.345   6.258  18.538  0.00  0.00    +0.000 A 
ATOM     11  N   UNL     1       2.665   6.672  19.599  0.00  0.00    +0.000 NA
ATOM     12  C   UNL     1       2.192   7.911  19.456  0.00  0.00    +0.000 A 
ATOM     13  C   UNL     1       1.385   8.597  20.357  0.00  0.00    +0.000 A 
ATOM     14  C   UNL     1       0.621   9.686  19.946  0.00  0.00    +0.000 A 
ATOM     15  C   UNL     1      -0.436  10.154  20.734  0.00  0.00    +0.000 A 
ATOM     16  C   UNL     1      -1.303  11.131  20.247  0.00  0.00    +0.000 A 
ATOM     17  C   UNL     1      -0.712  12.258  19.702  0.00  0.00    +0.000 A 
ATOM     18  C   UNL     1       0.058  11.646  18.721  0.00  0.00    +0.000 A 
ATOM     19  C   UNL     1       0.836  10.301  18.728  0.00  0.00    +0.000 A 
ATOM     20  C   UNL     1       1.719   9.505  17.750  0.00  0.00    +0.000 A 
ATOM     21  C   UNL     1       2.443   8.341  18.180  0.00  0.00    +0.000 A 
ATOM     22  N   UNL     1       3.454   7.409  17.741  0.00  0.00    +0.000 N 
ATOM     23  H   UNL     1       4.393   7.691  17.504  0.00  0.00    +0.000 HD
ENDBRANCH   2  10
BRANCH   1  24
ATOM     24  C   UNL     1       5.633   5.621  16.871  0.00  0.00    +0.000 C 
BRANCH  24  28
ATOM     25  C   UNL     1       8.644   8.619  18.751  0.00  0.00    +0.000 A 
ATOM     26  C   UNL     1       8.615   7.318  19.212  0.00  0.00    +0.000 A 
ATOM     27  C   UNL     1       7.773   6.354  18.532  0.00  0.00    +0.000 A 
ATOM     28  C   UNL     1       6.813   6.693  17.447  0.00  0.00    +0.000 A 
ATOM     29  C   UNL     1       7.018   7.980  16.960  0.00  0.00    +0.000 A 
ATOM     30  C   UNL     1       7.894   8.918  17.608  0.00  0.00    +0.000 A 
ENDBRANCH  24  28
ENDBRANCH   1  24
TORSDOF 3
ENDMDL
MODEL 3
REMARK VINA RESULT:      -9.7      3.443      9.106
REMARK  Name = 
REMARK  3 active torsions:
REMARK  status: ('A' for Active; 'I' for Inactive)
REMARK    1  A    between atoms: C_4  and  C_5
REMARK    2  A    between atoms: C_5  and  N_6
REMARK    3  A    between atoms: C_7  and  C_8
REMARK                            x       y       z     vdW  Elec       q    Type
REMARK                         _______ _______ _______ _____ _____    ______ ____
ROOT
ATOM      1  N   UNL     1      -0.415  12.910  19.810  0.00  0.00    +0.000 N 
ATOM      2  C   UNL     1       0.291  12.161  20.743  0.00  0.00    +0.000 A 
ATOM      3  C   UNL     1       0.198  13.367  21.470  0.00  0.00    +0.000 A 
ATOM      4  C   UNL     1       1.239  14.055  20.892  0.00  0.00    +0.000 A 
ATOM      5  C   UNL     1       2.244  14.753  21.735  0.00  0.00    +0.000 A 
ATOM      6  C   UNL     1       3.550  15.016  21.455  0.00  0.00    +0.000 A 
ATOM      7  C   UNL     1       3.820  14.547  20.217  0.00  0.00    +0.000 A 
ATOM      8  C   UNL     1       2.694  13.954  19.303  0.00  0.00    +0.000 A 
ATOM      9  C   UNL     1       1.080  13.659  19.329  0.00  0.00    +0.000 A 
ENDROOT
BRANCH   2  10
ATOM     10  C   UNL     1       0.939  11.017  20.017  0.00  0.00    +0.000 A 
ATOM     11  N   UNL     1       1.020   9.893  20.715  0.00  0.00    +0.000 NA
ATOM     12  C   UNL     1       1.366   8.845  19.967  0.00  0.00    +0.000 A 
ATOM     13  C   UNL     1       1.602   7.549  20.415  0.00  0.00    +0.000 A 
ATOM     14  C   UNL     1       2.344   6.653  19.650  0.00  0.00    +0.000 A 
ATOM     15  C   UNL     1       2.876   5.494  20.226  0.00  0.00    +0.000 A 
ATOM     16  C   UNL     1       3.755   4.686  19.507  0.00  0.00    +0.000 A 
ATOM     17  C   UNL     1       3.350   4.322  18.234  0.00  0.00    +0.000 A 
ATOM     18  C   UNL     1       3.174   5.589  17.692  0.00  0.00    +0.000 A 
ATOM     19  C   UNL     1       2.630   6.900  18.322  0.00  0.00    +0.000 A 
ATOM     20  C   UNL     1       2.374   8.348  17.866  0.00  0.00    +0.000 A 
ATOM     21  C   UNL     1       1.668   9.278  18.703  0.00  0.00    +0.000 A 
ATOM     22  N   UNL     1       1.072  10.593  18.685  0.00  0.00    +0.000 N 
ATOM     23  H   UNL     1       0.314  10.842  18.068  0.00  0.00    +0.000 HD
ENDBRANCH   2  10
BRANCH   1  24
ATOM     24  C   UNL     1      -1.782  11.823  19.410  0.00  0.00    +0.000 C 
BRANCH  24  28
ATOM     25  C   UNL     1      -3.817  10.421  15.476  0.00  0.00    +0.000 A 
ATOM     26  C   UNL     1      -2.591   9.890  15.824  0.00  0.00    +0.000 A 
ATOM     27  C   UNL     1      -2.025  10.226  17.115  0.00  0.00    +0.000 A 
ATOM     28  C   UNL     1      -2.602  11.227  18.052  0.00  0.00    +0.000 A 
ATOM     29  C   UNL     1      -3.894  11.594  17.685  0.00  0.00    +0.000 A 
ATOM     30  C   UNL     1      -4.472  11.215  16.424  0.00  0.00    +0.000 A 
ENDBRANCH  24  28
ENDBRANCH   1  24
TORSDOF 3
ENDMDL
MODEL 4
REMARK VINA RESULT:      -9.5      0.700      1.151
REMARK  Name = 
REMARK  3 active torsions:
REMARK  status: ('A' for Active; 'I' for Inactive)
REMARK    1  A    between atoms: C_4  and  C_5
REMARK    2  A    between atoms: C_5  and  N_6
REMARK    3  A    between atoms: C_7  and  C_8
REMARK                            x       y       z     vdW  Elec       q    Type
REMARK                         _______ _______ _______ _____ _____    ______ ____
ROOT
ATOM      1  N   UNL     1       3.182   3.401  17.516  0.00  0.00    +0.000 N 
ATOM      2  C   UNL     1       3.804   4.249  18.423  0.00  0.00    +0.000 A 
ATOM      3  C   UNL     1       4.203   3.017  18.982  0.00  0.00    +0.000 A 
ATOM      4  C   UNL     1       3.064   2.715  19.692  0.00  0.00    +0.000 A 
ATOM      5  C   UNL     1       3.150   2.283  21.111  0.00  0.00    +0.000 A 
ATOM      6  C   UNL     1       2.231   2.442  22.103  0.00  0.00    +0.000 A 
ATOM      7  C   UNL     1       1.151   3.066  21.583  0.00  0.00    +0.000 A 
ATOM      8  C   UNL     1       1.039   3.369  20.049  0.00  0.00    +0.000 A 
ATOM      9  C   UNL     1       1.896   3.168  18.665  0.00  0.00    +0.000 A 
ENDROOT
BRANCH   2  10
ATOM     10  C   UNL     1       3.128   5.588  18.337  0.00  0.00    +0.000 A 
ATOM     11  N   UNL     1       2.655   6.045  19.489  0.00  0.00    +0.000 NA
ATOM     12  C   UNL     1       2.291   7.326  19.423  0.00  0.00    +0.000 A 
ATOM     13  C   UNL     1       1.696   8.070  20.438  0.00  0.00    +0.000 A 
ATOM     14  C   UNL     1       0.991   9.236  20.149  0.00  0.00    +0.000 A 
ATOM     15  C   UNL     1       0.113   9.788  21.087  0.00  0.00    +0.000 A 
ATOM     16  C   UNL     1      -0.715  10.854  20.738  0.00  0.00    +0.000 A 
ATOM     17  C   UNL     1      -0.103  11.929  20.117  0.00  0.00    +0.000 A 
ATOM     18  C   UNL     1       0.451  11.264  19.031  0.00  0.00    +0.000 A 
ATOM     19  C   UNL     1       1.085   9.850  18.916  0.00  0.00    +0.000 A 
ATOM     20  C   UNL     1       1.732   8.992  17.814  0.00  0.00    +0.000 A 
ATOM     21  C   UNL     1       2.393   7.755  18.127  0.00  0.00    +0.000 A 
ATOM     22  N   UNL     1       3.232   6.738  17.539  0.00  0.00    +0.000 N 
ATOM     23  H   UNL     1       4.149   6.932  17.167  0.00  0.00    +0.000 HD
ENDBRANCH   2  10
BRANCH   1  24
ATOM     24  C   UNL     1       3.732   4.062  15.944  0.00  0.00    +0.000 C 
BRANCH  24  28
ATOM     25  C   UNL     1       7.789   4.792  13.800  0.00  0.00    +0.000 A 
ATOM     26  C   UNL     1       6.758   4.193  13.102  0.00  0.00    +0.000 A 
ATOM     27  C   UNL     1       5.456   4.093  13.730  0.00  0.00    +0.000 A 
ATOM     28  C   UNL     1       5.172   4.460  15.144  0.00  0.00    +0.000 A 
ATOM     29  C   UNL     1       6.220   5.178  15.711  0.00  0.00    +0.000 A 
ATOM     30  C   UNL     1       7.495   5.321  15.063  0.00  0.00    +0.000 A 
ENDBRANCH  24  28
ENDBRANCH   1  24
TORSDOF 3
ENDMDL
MODEL 5
REMARK VINA RESULT:      -9.3      2.353      3.146
REMARK  Name = 
REMARK  3 active torsions:
REMARK  status: ('A' for Active; 'I' for Inactive)
REMARK    1  A    between atoms: C_4  and  C_5
REMARK    2  A    between atoms: C_5  and  N_6
REMARK    3  A    between atoms: C_7  and  C_8
REMARK                            x       y       z     vdW  Elec       q    Type
REMARK                         _______ _______ _______ _____ _____    ______ ____
ROOT
ATOM      1  N   UNL     1       3.982   4.977  17.379  0.00  0.00    +0.000 N 
ATOM      2  C   UNL     1       3.829   5.178  18.745  0.00  0.00    +0.000 A 
ATOM      3  C   UNL     1       4.205   3.819  18.775  0.00  0.00    +0.000 A 
ATOM      4  C   UNL     1       2.987   3.246  18.489  0.00  0.00    +0.000 A 
ATOM      5  C   UNL     1       2.470   2.121  19.309  0.00  0.00    +0.000 A 
ATOM      6  C   UNL     1       1.176   1.775  19.555  0.00  0.00    +0.000 A 
ATOM      7  C   UNL     1       0.374   2.636  18.889  0.00  0.00    +0.000 A 
ATOM      8  C   UNL     1       0.961   3.714  17.915  0.00  0.00    +0.000 A 
ATOM      9  C   UNL     1       2.408   4.237  17.346  0.00  0.00    +0.000 A 
ENDROOT
BRANCH   2  10
ATOM     10  C   UNL     1       2.963   6.390  18.936  0.00  0.00    +0.000 A 
ATOM     11  N   UNL     1       2.618   6.632  20.193  0.00  0.00    +0.000 NA
ATOM     12  C   UNL     1       2.068   7.836  20.354  0.00  0.00    +0.000 A 
ATOM     13  C   UNL     1       1.540   8.354  21.533  0.00  0.00    +0.000 A 
ATOM     14  C   UNL     1       0.639   9.415  21.506  0.00  0.00    +0.000 A 
ATOM     15  C   UNL     1      -0.150   9.709  22.623  0.00  0.00    +0.000 A 
ATOM     16  C   UNL     1      -1.167  10.658  22.541  0.00  0.00    +0.000 A 
ATOM     17  C   UNL     1      -0.821  11.881  21.993  0.00  0.00    +0.000 A 
ATOM     18  C   UNL     1      -0.356  11.443  20.760  0.00  0.00    +0.000 A 
ATOM     19  C   UNL     1       0.448  10.173  20.368  0.00  0.00    +0.000 A 
ATOM     20  C   UNL     1       1.029   9.561  19.080  0.00  0.00    +0.000 A 
ATOM     21  C   UNL     1       1.902   8.420  19.127  0.00  0.00    +0.000 A 
ATOM     22  N   UNL     1       2.774   7.625  18.295  0.00  0.00    +0.000 N 
ATOM     23  H   UNL     1       3.584   8.006  17.829  0.00  0.00    +0.000 HD
ENDBRANCH   2  10
BRANCH   1  24
ATOM     24  C   UNL     1       5.043   6.344  16.914  0.00  0.00    +0.000 C 
BRANCH  24  28
ATOM     25  C   UNL     1       8.722   8.541  18.709  0.00  0.00    +0.000 A 
ATOM     26  C   UNL     1       8.525   7.206  19.006  0.00  0.00    +0.000 A 
ATOM     27  C   UNL     1       7.457   6.492  18.337  0.00  0.00    +0.000 A 
ATOM     28  C   UNL     1       6.448   7.127  17.447  0.00  0.00    +0.000 A 
ATOM     29  C   UNL     1       6.811   8.424  17.098  0.00  0.00    +0.000 A 
ATOM     30  C   UNL     1       7.905   9.113  17.728  0.00  0.00    +0.000 A 
ENDBRANCH  24  28
ENDBRANCH   1  24
TORSDOF 3
ENDMDL
MODEL 6
REMARK VINA RESULT:      -9.3      3.370     10.188
REMARK  Name = 
REMARK  3 active torsions:
REMARK  status: ('A' for Active; 'I' for Inactive)
REMARK    1  A    between atoms: C_4  and  C_5
REMARK    2  A    between atoms: C_5  and  N_6
REMARK    3  A    between atoms: C_7  and  C_8
REMARK                            x       y       z     vdW  Elec       q    Type
REMARK                         _______ _______ _______ _____ _____    ______ ____
ROOT
ATOM      1  N   UNL     1      -2.050  11.581  19.505  0.00  0.00    +0.000 N 
ATOM      2  C   UNL     1      -0.925  11.542  18.692  0.00  0.00    +0.000 A 
ATOM      3  C   UNL     1      -1.718  12.408  17.910  0.00  0.00    +0.000 A 
ATOM      4  C   UNL     1      -2.498  11.476  17.268  0.00  0.00    +0.000 A 
ATOM      5  C   UNL     1      -2.695  11.539  15.797  0.00  0.00    +0.000 A 
ATOM      6  C   UNL     1      -2.944  10.519  14.930  0.00  0.00    +0.000 A 
ATOM      7  C   UNL     1      -3.017   9.370  15.638  0.00  0.00    +0.000 A 
ATOM      8  C   UNL     1      -2.955   9.368  17.204  0.00  0.00    +0.000 A 
ATOM      9  C   UNL     1      -2.808  10.419  18.456  0.00  0.00    +0.000 A 
ENDROOT
BRANCH   2  10
ATOM     10  C   UNL     1      -0.142  10.311  19.051  0.00  0.00    +0.000 A 
ATOM     11  N   UNL     1       0.700   9.897  18.114  0.00  0.00    +0.000 NA
ATOM     12  C   UNL     1       1.546   8.967  18.556  0.00  0.00    +0.000 A 
ATOM     13  C   UNL     1       2.497   8.287  17.802  0.00  0.00    +0.000 A 
ATOM     14  C   UNL     1       3.026   7.076  18.242  0.00  0.00    +0.000 A 
ATOM     15  C   UNL     1       3.699   6.228  17.357  0.00  0.00    +0.000 A 
ATOM     16  C   UNL     1       4.079   4.947  17.755  0.00  0.00    +0.000 A 
ATOM     17  C   UNL     1       4.762   4.856  18.956  0.00  0.00    +0.000 A 
ATOM     18  C   UNL     1       3.820   5.450  19.786  0.00  0.00    +0.000 A 
ATOM     19  C   UNL     1       2.855   6.643  19.542  0.00  0.00    +0.000 A 
ATOM     20  C   UNL     1       1.783   7.407  20.342  0.00  0.00    +0.000 A 
ATOM     21  C   UNL     1       1.199   8.617  19.834  0.00  0.00    +0.000 A 
ATOM     22  N   UNL     1       0.345   9.714  20.225  0.00  0.00    +0.000 N 
ATOM     23  H   UNL     1       0.575  10.346  20.976  0.00  0.00    +0.000 HD
ENDBRANCH   2  10
BRANCH   1  24
ATOM     24  C   UNL     1      -1.345  11.969  21.106  0.00  0.00    +0.000 C 
BRANCH  24  28
ATOM     25  C   UNL     1      -2.652  14.533  24.753  0.00  0.00    +0.000 A 
ATOM     26  C   UNL     1      -3.455  13.485  24.346  0.00  0.00    +0.000 A 
ATOM     27  C   UNL     1      -2.978  12.607  23.298  0.00  0.00    +0.000 A 
ATOM     28  C   UNL     1      -1.733  12.830  22.513  0.00  0.00    +0.000 A 
ATOM     29  C   UNL     1      -0.932  13.812  23.086  0.00  0.00    +0.000 A 
ATOM     30  C   UNL     1      -1.389  14.649  24.162  0.00  0.00    +0.000 A 
ENDBRANCH  24  28
ENDBRANCH   1  24
TORSDOF 3
ENDMDL
MODEL 7
REMARK VINA RESULT:      -9.2      3.221      9.955
REMARK  Name = 
REMARK  3 active torsions:
REMARK  status: ('A' for Active; 'I' for Inactive)
REMARK    1  A    between atoms: C_4  and  C_5
REMARK    2  A    between atoms: C_5  and  N_6
REMARK    3  A    between atoms: C_7  and  C_8
REMARK                            x       y       z     vdW  Elec       q    Type
REMARK                         _______ _______ _______ _____ _____    ______ ____
ROOT
ATOM      1  N   UNL     1      -1.581  11.740  19.560  0.00  0.00    +0.000 N 
ATOM      2  C   UNL     1      -0.542  11.549  18.658  0.00  0.00    +0.000 A 
ATOM      3  C   UNL     1      -1.320  12.445  17.895  0.00  0.00    +0.000 A 
ATOM      4  C   UNL     1      -2.237  11.560  17.380  0.00  0.00    +0.000 A 
ATOM      5  C   UNL     1      -2.559  11.563  15.930  0.00  0.00    +0.000 A 
ATOM      6  C   UNL     1      -2.979  10.527  15.152  0.00  0.00    +0.000 A 
ATOM      7  C   UNL     1      -3.092   9.430  15.933  0.00  0.00    +0.000 A 
ATOM      8  C   UNL     1      -2.889   9.506  17.485  0.00  0.00    +0.000 A 
ATOM      9  C   UNL     1      -2.534  10.602  18.653  0.00  0.00    +0.000 A 
ENDROOT
BRANCH   2  10
ATOM     10  C   UNL     1       0.155  10.270  19.024  0.00  0.00    +0.000 A 
ATOM     11  N   UNL     1       0.986   9.807  18.101  0.00  0.00    +0.000 NA
ATOM     12  C   UNL     1       1.763   8.823  18.553  0.00  0.00    +0.000 A 
ATOM     13  C   UNL     1       2.683   8.088  17.813  0.00  0.00    +0.000 A 
ATOM     14  C   UNL     1       3.125   6.844  18.255  0.00  0.00    +0.000 A 
ATOM     15  C   UNL     1       3.760   5.959  17.377  0.00  0.00    +0.000 A 
ATOM     16  C   UNL     1       4.050   4.654  17.775  0.00  0.00    +0.000 A 
ATOM     17  C   UNL     1       4.703   4.515  18.987  0.00  0.00    +0.000 A 
ATOM     18  C   UNL     1       3.786   5.164  19.804  0.00  0.00    +0.000 A 
ATOM     19  C   UNL     1       2.903   6.417  19.550  0.00  0.00    +0.000 A 
ATOM     20  C   UNL     1       1.867   7.243  20.333  0.00  0.00    +0.000 A 
ATOM     21  C   UNL     1       1.370   8.490  19.822  0.00  0.00    +0.000 A 
ATOM     22  N   UNL     1       0.580   9.637  20.203  0.00  0.00    +0.000 N 
ATOM     23  H   UNL     1       0.836  10.250  20.963  0.00  0.00    +0.000 HD
ENDBRANCH   2  10
BRANCH   1  24
ATOM     24  C   UNL     1      -0.701  12.143  21.068  0.00  0.00    +0.000 C 
BRANCH  24  28
ATOM     25  C   UNL     1      -0.569  15.804  23.926  0.00  0.00    +0.000 A 
ATOM     26  C   UNL     1      -1.380  14.732  24.244  0.00  0.00    +0.000 A 
ATOM     27  C   UNL     1      -1.314  13.540  23.425  0.00  0.00    +0.000 A 
ATOM     28  C   UNL     1      -0.535  13.428  22.162  0.00  0.00    +0.000 A 
ATOM     29  C   UNL     1       0.349  14.491  22.005  0.00  0.00    +0.000 A 
ATOM     30  C   UNL     1       0.316  15.651  22.853  0.00  0.00    +0.000 A 
ENDBRANCH  24  28
ENDBRANCH   1  24
TORSDOF 3
ENDMDL
MODEL 8
REMARK VINA RESULT:      -9.1      3.924      5.066
REMARK  Name = 
REMARK  3 active torsions:
REMARK  status: ('A' for Active; 'I' for Inactive)
REMARK    1  A    between atoms: C_4  and  C_5
REMARK    2  A    between atoms: C_5  and  N_6
REMARK    3  A    between atoms: C_7  and  C_8
REMARK                            x       y       z     vdW  Elec       q    Type
REMARK                         _______ _______ _______ _____ _____    ______ ____
ROOT
ATOM      1  N   UNL     1       4.843   3.973  17.204  0.00  0.00    +0.000 N 
ATOM      2  C   UNL     1       5.521   4.364  18.352  0.00  0.00    +0.000 A 
ATOM      3  C   UNL     1       4.777   3.299  18.901  0.00  0.00    +0.000 A 
ATOM      4  C   UNL     1       3.582   3.948  19.109  0.00  0.00    +0.000 A 
ATOM      5  C   UNL     1       2.877   3.836  20.412  0.00  0.00    +0.000 A 
ATOM      6  C   UNL     1       2.042   4.733  21.004  0.00  0.00    +0.000 A 
ATOM      7  C   UNL     1       1.915   5.798  20.183  0.00  0.00    +0.000 A 
ATOM      8  C   UNL     1       2.553   5.810  18.752  0.00  0.00    +0.000 A 
ATOM      9  C   UNL     1       3.450   4.850  17.769  0.00  0.00    +0.000 A 
ENDROOT
BRANCH   2  10
ATOM     10  C   UNL     1       5.996   5.774  18.147  0.00  0.00    +0.000 A 
ATOM     11  N   UNL     1       7.060   6.110  18.862  0.00  0.00    +0.000 NA
ATOM     12  C   UNL     1       7.597   7.268  18.475  0.00  0.00    +0.000 A 
ATOM     13  C   UNL     1       8.672   7.922  19.069  0.00  0.00    +0.000 A 
ATOM     14  C   UNL     1       8.883   9.282  18.862  0.00  0.00    +0.000 A 
ATOM     15  C   UNL     1       9.726  10.010  19.709  0.00  0.00    +0.000 A 
ATOM     16  C   UNL     1       9.806  11.398  19.606  0.00  0.00    +0.000 A 
ATOM     17  C   UNL     1      10.017  11.907  18.336  0.00  0.00    +0.000 A 
ATOM     18  C   UNL     1       8.915  11.354  17.695  0.00  0.00    +0.000 A 
ATOM     19  C   UNL     1       8.228   9.971  17.861  0.00  0.00    +0.000 A 
ATOM     20  C   UNL     1       7.033   9.225  17.238  0.00  0.00    +0.000 A 
ATOM     21  C   UNL     1       6.793   7.837  17.524  0.00  0.00    +0.000 A 
ATOM     22  N   UNL     1       5.979   6.719  17.109  0.00  0.00    +0.000 N 
ATOM     23  H   UNL     1       6.001   6.343  16.173  0.00  0.00    +0.000 HD
ENDBRANCH   2  10
BRANCH   1  24
ATOM     24  C   UNL     1       6.174   3.814  16.016  0.00  0.00    +0.000 C 
BRANCH  24  28
ATOM     25  C   UNL     1       7.269   4.400  11.539  0.00  0.00    +0.000 A 
ATOM     26  C   UNL     1       6.292   3.484  11.877  0.00  0.00    +0.000 A 
ATOM     27  C   UNL     1       5.859   3.403  13.257  0.00  0.00    +0.000 A 
ATOM     28  C   UNL     1       6.493   4.140  14.383  0.00  0.00    +0.000 A 
ATOM     29  C   UNL     1       7.358   5.131  13.930  0.00  0.00    +0.000 A 
ATOM     30  C   UNL     1       7.746   5.242  12.550  0.00  0.00    +0.000 A 
ENDBRANCH  24  28
ENDBRANCH   1  24
TORSDOF 3
ENDMDL
MODEL 9
REMARK VINA RESULT:      -9.1      2.346      3.321
REMARK  Name = 
REMARK  3 active torsions:
REMARK  status: ('A' for Active; 'I' for Inactive)
REMARK    1  A    between atoms: C_4  and  C_5
REMARK    2  A    between atoms: C_5  and  N_6
REMARK    3  A    between atoms: C_7  and  C_8
REMARK                            x       y       z     vdW  Elec       q    Type
REMARK                         _______ _______ _______ _____ _____    ______ ____
ROOT
ATOM      1  N   UNL     1       4.018   5.052  17.260  0.00  0.00    +0.000 N 
ATOM      2  C   UNL     1       4.139   4.923  18.638  0.00  0.00    +0.000 A 
ATOM      3  C   UNL     1       4.470   3.601  18.274  0.00  0.00    +0.000 A 
ATOM      4  C   UNL     1       3.203   3.093  18.106  0.00  0.00    +0.000 A 
ATOM      5  C   UNL     1       2.819   1.798  18.724  0.00  0.00    +0.000 A 
ATOM      6  C   UNL     1       1.587   1.384  19.131  0.00  0.00    +0.000 A 
ATOM      7  C   UNL     1       0.699   2.366  18.855  0.00  0.00    +0.000 A 
ATOM      8  C   UNL     1       1.119   3.652  18.065  0.00  0.00    +0.000 A 
ATOM      9  C   UNL     1       2.445   4.317  17.362  0.00  0.00    +0.000 A 
ENDROOT
BRANCH   2  10
ATOM     10  C   UNL     1       3.365   6.042  19.273  0.00  0.00    +0.000 A 
ATOM     11  N   UNL     1       3.023   7.020  18.445  0.00  0.00    +0.000 NA
ATOM     12  C   UNL     1       2.137   7.861  18.978  0.00  0.00    +0.000 A 
ATOM     13  C   UNL     1       1.639   9.020  18.392  0.00  0.00    +0.000 A 
ATOM     14  C   UNL     1       1.060  10.021  19.168  0.00  0.00    +0.000 A 
ATOM     15  C   UNL     1       0.881  11.309  18.652  0.00  0.00    +0.000 A 
ATOM     16  C   UNL     1       0.459  12.350  19.477  0.00  0.00    +0.000 A 
ATOM     17  C   UNL     1      -0.655  12.099  20.259  0.00  0.00    +0.000 A 
ATOM     18  C   UNL     1      -0.191  10.984  20.946  0.00  0.00    +0.000 A 
ATOM     19  C   UNL     1       0.701   9.800  20.482  0.00  0.00    +0.000 A 
ATOM     20  C   UNL     1       1.284   8.518  21.104  0.00  0.00    +0.000 A 
ATOM     21  C   UNL     1       1.942   7.531  20.293  0.00  0.00    +0.000 A 
ATOM     22  N   UNL     1       2.475   6.190  20.349  0.00  0.00    +0.000 N 
ATOM     23  H   UNL     1       1.908   5.384  20.563  0.00  0.00    +0.000 HD
ENDBRANCH   2  10
BRANCH   1  24
ATOM     24  C   UNL     1       5.011   6.506  16.929  0.00  0.00    +0.000 C 
BRANCH  24  28
ATOM     25  C   UNL     1       8.765   8.567  18.730  0.00  0.00    +0.000 A 
ATOM     26  C   UNL     1       8.538   7.231  18.999  0.00  0.00    +0.000 A 
ATOM     27  C   UNL     1       7.445   6.560  18.326  0.00  0.00    +0.000 A 
ATOM     28  C   UNL     1       6.442   7.241  17.463  0.00  0.00    +0.000 A 
ATOM     29  C   UNL     1       6.834   8.537  17.140  0.00  0.00    +0.000 A 
ATOM     30  C   UNL     1       7.952   9.183  17.772  0.00  0.00    +0.000 A 
ENDBRANCH  24  28
ENDBRANCH   1  24
TORSDOF 3
ENDMDL
