MODEL 1
REMARK VINA RESULT:      -8.5      0.000      0.000
REMARK  Name = 
REMARK  12 active torsions:
REMARK  status: ('A' for Active; 'I' for Inactive)
REMARK    1  A    between atoms: C_1  and  C_2
REMARK    2  A    between atoms: C_2  and  C_3
REMARK    3  A    between atoms: C_3  and  N_4
REMARK    4  A    between atoms: N_4  and  C_5
REMARK    5  A    between atoms: C_5  and  C_6
REMARK    6  A    between atoms: C_9  and  O_10
REMARK    7  A    between atoms: O_10  and  C_11
REMARK    8  A    between atoms: C_11  and  C_12
REMARK    9  A    between atoms: C_17  and  C_18
REMARK   10  A    between atoms: N_20  and  C_21
REMARK   11  A    between atoms: C_26  and  C_27
REMARK   12  A    between atoms: C_29  and  N_30
REMARK                            x       y       z     vdW  Elec       q    Type
REMARK                         _______ _______ _______ _____ _____    ______ ____
ROOT
ATOM      1  C   UNL     1       3.945   3.947  19.169  0.00  0.00    +0.000 A 
ATOM      2  C   UNL     1       4.186   2.599  18.829  0.00  0.00    +0.000 A 
ATOM      3  C   UNL     1       3.143   1.749  18.457  0.00  0.00    +0.000 A 
ATOM      4  C   UNL     1       1.841   2.231  18.397  0.00  0.00    +0.000 A 
ATOM      5  C   UNL     1       1.586   3.565  18.707  0.00  0.00    +0.000 A 
ATOM      6  C   UNL     1       2.625   4.434  19.088  0.00  0.00    +0.000 A 
ENDROOT
BRANCH   6   7
ATOM      7  C   UNL     1       2.184   5.793  19.516  0.00  0.00    +0.000 C 
ATOM      8  O   UNL     1       1.765   5.900  20.665  0.00  0.00    +0.000 OA
ATOM      9  N   UNL     1       2.230   6.806  18.575  0.00  0.00    +0.000 N 
ATOM     10  H   UNL     1       2.456   6.555  17.617  0.00  0.00    +0.000 HD
BRANCH   9  11
ATOM     11  C   UNL     1       1.952   8.170  18.828  0.00  0.00    +0.000 A 
ATOM     12  C   UNL     1       2.278   9.199  17.945  0.00  0.00    +0.000 A 
ATOM     13  C   UNL     1       1.806  10.495  18.163  0.00  0.00    +0.000 A 
ATOM     14  C   UNL     1       1.049  10.804  19.277  0.00  0.00    +0.000 A 
ATOM     15  N   UNL     1       0.407  11.982  19.334  0.00  0.00    +0.000 NA
ATOM     16  C   UNL     1      -0.329  12.218  20.442  0.00  0.00    +0.000 A 
ATOM     17  C   UNL     1      -1.837  12.219  20.198  0.00  0.00    +0.000 C 
ATOM     18  C   UNL     1      -0.014  11.605  21.633  0.00  0.00    +0.000 A 
ATOM     19  C   UNL     1       0.311  10.267  21.498  0.00  0.00    +0.000 A 
ATOM     20  C   UNL     1       0.887   9.833  20.281  0.00  0.00    +0.000 A 
ATOM     21  C   UNL     1       1.279   8.498  20.008  0.00  0.00    +0.000 A 
BRANCH  19  22
ATOM     22  N   UNL     1       0.147   9.436  22.623  0.00  0.00    +0.000 N 
ATOM     23  H   UNL     1      -0.561   9.797  23.258  0.00  0.00    +0.000 HD
ATOM     24  H   UNL     1      -0.080   8.484  22.357  0.00  0.00    +0.000 HD
ENDBRANCH  19  22
ENDBRANCH   9  11
ENDBRANCH   6   7
BRANCH   1  25
ATOM     25  C   UNL     1       5.102   4.773  19.666  0.00  0.00    +0.000 C 
BRANCH  25  26
ATOM     26  O   UNL     1       5.269   5.895  18.798  0.00  0.00    +0.000 OA
BRANCH  26  30
ATOM     27  C   UNL     1       6.660   4.753  15.000  0.00  0.00    +0.000 A 
ATOM     28  C   UNL     1       7.423   4.550  16.168  0.00  0.00    +0.000 A 
ATOM     29  C   UNL     1       6.936   4.950  17.412  0.00  0.00    +0.000 A 
ATOM     30  C   UNL     1       5.696   5.565  17.527  0.00  0.00    +0.000 A 
ATOM     31  C   UNL     1       4.929   5.763  16.382  0.00  0.00    +0.000 A 
ATOM     32  C   UNL     1       5.397   5.367  15.137  0.00  0.00    +0.000 A 
BRANCH  27  33
ATOM     33  C   UNL     1       7.142   4.321  13.643  0.00  0.00    +0.000 C 
BRANCH  33  34
ATOM     34  N   UNL     1       6.200   3.387  13.019  0.00  0.00    +0.000 NA
ATOM     35  H   UNL     1       6.076   2.584  13.634  0.00  0.00    +0.000 HD
BRANCH  34  36
ATOM     36  C   UNL     1       6.685   2.938  11.717  0.00  0.00    +0.000 C 
BRANCH  36  38
ATOM     37  C   UNL     1       6.375   0.482  11.251  0.00  0.00    +0.000 C 
ATOM     38  C   UNL     1       5.742   1.859  11.171  0.00  0.00    +0.000 C 
ENDBRANCH  36  38
ENDBRANCH  34  36
ENDBRANCH  33  34
ENDBRANCH  27  33
ENDBRANCH  26  30
ENDBRANCH  25  26
ENDBRANCH   1  25
TORSDOF 10
ENDMDL
MODEL 2
REMARK VINA RESULT:      -8.4      0.833      1.006
REMARK  Name = 
REMARK  12 active torsions:
REMARK  status: ('A' for Active; 'I' for Inactive)
REMARK    1  A    between atoms: C_1  and  C_2
REMARK    2  A    between atoms: C_2  and  C_3
REMARK    3  A    between atoms: C_3  and  N_4
REMARK    4  A    between atoms: N_4  and  C_5
REMARK    5  A    between atoms: C_5  and  C_6
REMARK    6  A    between atoms: C_9  and  O_10
REMARK    7  A    between atoms: O_10  and  C_11
REMARK    8  A    between atoms: C_11  and  C_12
REMARK    9  A    between atoms: C_17  and  C_18
REMARK   10  A    between atoms: N_20  and  C_21
REMARK   11  A    between atoms: C_26  and  C_27
REMARK   12  A    between atoms: C_29  and  N_30
REMARK                            x       y       z     vdW  Elec       q    Type
REMARK                         _______ _______ _______ _____ _____    ______ ____
ROOT
ATOM      1  C   UNL     1       3.817   4.014  18.998  0.00  0.00    +0.000 A 
ATOM      2  C   UNL     1       3.981   2.659  18.641  0.00  0.00    +0.000 A 
ATOM      3  C   UNL     1       2.882   1.851  18.344  0.00  0.00    +0.000 A 
ATOM      4  C   UNL     1       1.599   2.383  18.375  0.00  0.00    +0.000 A 
ATOM      5  C   UNL     1       1.418   3.725  18.703  0.00  0.00    +0.000 A 
ATOM      6  C   UNL     1       2.514   4.552  19.010  0.00  0.00    +0.000 A 
ENDROOT
BRANCH   6   7
ATOM      7  C   UNL     1       2.157   5.926  19.469  0.00  0.00    +0.000 C 
ATOM      8  O   UNL     1       1.885   6.057  20.658  0.00  0.00    +0.000 OA
ATOM      9  N   UNL     1       2.108   6.926  18.514  0.00  0.00    +0.000 N 
ATOM     10  H   UNL     1       2.209   6.657  17.539  0.00  0.00    +0.000 HD
BRANCH   9  11
ATOM     11  C   UNL     1       1.891   8.299  18.778  0.00  0.00    +0.000 A 
ATOM     12  C   UNL     1       2.311   9.322  17.928  0.00  0.00    +0.000 A 
ATOM     13  C   UNL     1       1.898  10.639  18.148  0.00  0.00    +0.000 A 
ATOM     14  C   UNL     1       1.109  10.970  19.233  0.00  0.00    +0.000 A 
ATOM     15  N   UNL     1       0.529  12.180  19.282  0.00  0.00    +0.000 NA
ATOM     16  C   UNL     1      -0.244  12.438  20.360  0.00  0.00    +0.000 A 
ATOM     17  C   UNL     1      -1.736  12.523  20.051  0.00  0.00    +0.000 C 
ATOM     18  C   UNL     1      -0.015  11.791  21.553  0.00  0.00    +0.000 A 
ATOM     19  C   UNL     1       0.245  10.440  21.409  0.00  0.00    +0.000 A 
ATOM     20  C   UNL     1       0.851   9.994  20.211  0.00  0.00    +0.000 A 
ATOM     21  C   UNL     1       1.184   8.644  19.932  0.00  0.00    +0.000 A 
BRANCH  19  22
ATOM     22  N   UNL     1      -0.014   9.602  22.511  0.00  0.00    +0.000 N 
ATOM     23  H   UNL     1       0.725   9.657  23.207  0.00  0.00    +0.000 HD
ATOM     24  H   UNL     1      -0.909   9.809  22.939  0.00  0.00    +0.000 HD
ENDBRANCH  19  22
ENDBRANCH   9  11
ENDBRANCH   6   7
BRANCH   1  25
ATOM     25  C   UNL     1       5.037   4.794  19.412  0.00  0.00    +0.000 C 
BRANCH  25  26
ATOM     26  O   UNL     1       5.238   5.857  18.480  0.00  0.00    +0.000 OA
BRANCH  26  30
ATOM     27  C   UNL     1       6.328   4.454  14.671  0.00  0.00    +0.000 A 
ATOM     28  C   UNL     1       7.234   4.469  15.750  0.00  0.00    +0.000 A 
ATOM     29  C   UNL     1       6.844   4.950  16.999  0.00  0.00    +0.000 A 
ATOM     30  C   UNL     1       5.558   5.435  17.205  0.00  0.00    +0.000 A 
ATOM     31  C   UNL     1       4.650   5.419  16.149  0.00  0.00    +0.000 A 
ATOM     32  C   UNL     1       5.023   4.939  14.901  0.00  0.00    +0.000 A 
BRANCH  27  33
ATOM     33  C   UNL     1       6.705   3.928  13.314  0.00  0.00    +0.000 C 
BRANCH  33  34
ATOM     34  N   UNL     1       5.620   3.128  12.736  0.00  0.00    +0.000 NA
ATOM     35  H   UNL     1       5.963   2.185  12.561  0.00  0.00    +0.000 HD
BRANCH  34  36
ATOM     36  C   UNL     1       5.138   3.714  11.489  0.00  0.00    +0.000 C 
BRANCH  36  38
ATOM     37  C   UNL     1       3.213   3.709   9.864  0.00  0.00    +0.000 C 
ATOM     38  C   UNL     1       3.776   3.103  11.137  0.00  0.00    +0.000 C 
ENDBRANCH  36  38
ENDBRANCH  34  36
ENDBRANCH  33  34
ENDBRANCH  27  33
ENDBRANCH  26  30
ENDBRANCH  25  26
ENDBRANCH   1  25
TORSDOF 10
ENDMDL
MODEL 3
REMARK VINA RESULT:      -8.4      1.369      1.508
REMARK  Name = 
REMARK  12 active torsions:
REMARK  status: ('A' for Active; 'I' for Inactive)
REMARK    1  A    between atoms: C_1  and  C_2
REMARK    2  A    between atoms: C_2  and  C_3
REMARK    3  A    between atoms: C_3  and  N_4
REMARK    4  A    between atoms: N_4  and  C_5
REMARK    5  A    between atoms: C_5  and  C_6
REMARK    6  A    between atoms: C_9  and  O_10
REMARK    7  A    between atoms: O_10  and  C_11
REMARK    8  A    between atoms: C_11  and  C_12
REMARK    9  A    between atoms: C_17  and  C_18
REMARK   10  A    between atoms: N_20  and  C_21
REMARK   11  A    between atoms: C_26  and  C_27
REMARK   12  A    between atoms: C_29  and  N_30
REMARK                            x       y       z     vdW  Elec       q    Type
REMARK                         _______ _______ _______ _____ _____    ______ ____
ROOT
ATOM      1  C   UNL     1       3.523   4.472  19.990  0.00  0.00    +0.000 A 
ATOM      2  C   UNL     1       3.627   3.162  20.504  0.00  0.00    +0.000 A 
ATOM      3  C   UNL     1       2.505   2.480  20.978  0.00  0.00    +0.000 A 
ATOM      4  C   UNL     1       1.254   3.082  20.931  0.00  0.00    +0.000 A 
ATOM      5  C   UNL     1       1.127   4.366  20.406  0.00  0.00    +0.000 A 
ATOM      6  C   UNL     1       2.248   5.069  19.928  0.00  0.00    +0.000 A 
ENDROOT
BRANCH   6   7
ATOM      7  C   UNL     1       1.980   6.479  19.520  0.00  0.00    +0.000 C 
ATOM      8  O   UNL     1       2.183   6.759  18.342  0.00  0.00    +0.000 OA
ATOM      9  N   UNL     1       1.582   7.365  20.504  0.00  0.00    +0.000 N 
ATOM     10  H   UNL     1       1.596   7.042  21.468  0.00  0.00    +0.000 HD
BRANCH   9  11
ATOM     11  C   UNL     1       1.187   8.706  20.286  0.00  0.00    +0.000 A 
ATOM     12  C   UNL     1       1.563   9.447  19.166  0.00  0.00    +0.000 A 
ATOM     13  C   UNL     1       0.984  10.694  18.916  0.00  0.00    +0.000 A 
ATOM     14  C   UNL     1       0.067  11.246  19.789  0.00  0.00    +0.000 A 
ATOM     15  N   UNL     1      -0.649  12.315  19.406  0.00  0.00    +0.000 NA
ATOM     16  C   UNL     1      -1.540  12.800  20.298  0.00  0.00    +0.000 A 
ATOM     17  C   UNL     1      -2.999  12.573  19.906  0.00  0.00    +0.000 C 
ATOM     18  C   UNL     1      -1.349  12.610  21.647  0.00  0.00    +0.000 A 
ATOM     19  C   UNL     1      -0.925  11.335  21.974  0.00  0.00    +0.000 A 
ATOM     20  C   UNL     1      -0.165  10.614  21.022  0.00  0.00    +0.000 A 
ATOM     21  C   UNL     1       0.344   9.305  21.225  0.00  0.00    +0.000 A 
BRANCH  19  22
ATOM     22  N   UNL     1      -1.185  10.871  23.277  0.00  0.00    +0.000 N 
ATOM     23  H   UNL     1      -0.873   9.912  23.405  0.00  0.00    +0.000 HD
ATOM     24  H   UNL     1      -0.763  11.468  23.981  0.00  0.00    +0.000 HD
ENDBRANCH  19  22
ENDBRANCH   9  11
ENDBRANCH   6   7
BRANCH   1  25
ATOM     25  C   UNL     1       4.791   5.185  19.600  0.00  0.00    +0.000 C 
BRANCH  25  26
ATOM     26  O   UNL     1       5.718   4.225  19.092  0.00  0.00    +0.000 OA
BRANCH  26  30
ATOM     27  C   UNL     1       6.442   4.365  14.955  0.00  0.00    +0.000 A 
ATOM     28  C   UNL     1       7.426   4.722  15.898  0.00  0.00    +0.000 A 
ATOM     29  C   UNL     1       7.151   4.674  17.264  0.00  0.00    +0.000 A 
ATOM     30  C   UNL     1       5.899   4.284  17.725  0.00  0.00    +0.000 A 
ATOM     31  C   UNL     1       4.920   3.921  16.803  0.00  0.00    +0.000 A 
ATOM     32  C   UNL     1       5.181   3.960  15.440  0.00  0.00    +0.000 A 
BRANCH  27  33
ATOM     33  C   UNL     1       6.705   4.388  13.474  0.00  0.00    +0.000 C 
BRANCH  33  34
ATOM     34  N   UNL     1       6.343   3.110  12.853  0.00  0.00    +0.000 NA
ATOM     35  H   UNL     1       6.806   2.356  13.356  0.00  0.00    +0.000 HD
BRANCH  34  36
ATOM     36  C   UNL     1       6.735   3.076  11.447  0.00  0.00    +0.000 C 
BRANCH  36  38
ATOM     37  C   UNL     1       6.139   0.650  11.126  0.00  0.00    +0.000 C 
ATOM     38  C   UNL     1       7.258   1.677  11.101  0.00  0.00    +0.000 C 
ENDBRANCH  36  38
ENDBRANCH  34  36
ENDBRANCH  33  34
ENDBRANCH  27  33
ENDBRANCH  26  30
ENDBRANCH  25  26
ENDBRANCH   1  25
TORSDOF 10
ENDMDL
MODEL 4
REMARK VINA RESULT:      -8.4      2.856      4.463
REMARK  Name = 
REMARK  12 active torsions:
REMARK  status: ('A' for Active; 'I' for Inactive)
REMARK    1  A    between atoms: C_1  and  C_2
REMARK    2  A    between atoms: C_2  and  C_3
REMARK    3  A    between atoms: C_3  and  N_4
REMARK    4  A    between atoms: N_4  and  C_5
REMARK    5  A    between atoms: C_5  and  C_6
REMARK    6  A    between atoms: C_9  and  O_10
REMARK    7  A    between atoms: O_10  and  C_11
REMARK    8  A    between atoms: C_11  and  C_12
REMARK    9  A    between atoms: C_17  and  C_18
REMARK   10  A    between atoms: N_20  and  C_21
REMARK   11  A    between atoms: C_26  and  C_27
REMARK   12  A    between atoms: C_29  and  N_30
REMARK                            x       y       z     vdW  Elec       q    Type
REMARK                         _______ _______ _______ _____ _____    ______ ____
ROOT
ATOM      1  C   UNL     1       3.120   3.660  17.820  0.00  0.00    +0.000 A 
ATOM      2  C   UNL     1       2.879   2.273  17.728  0.00  0.00    +0.000 A 
ATOM      3  C   UNL     1       1.963   1.640  18.570  0.00  0.00    +0.000 A 
ATOM      4  C   UNL     1       1.252   2.380  19.506  0.00  0.00    +0.000 A 
ATOM      5  C   UNL     1       1.459   3.755  19.597  0.00  0.00    +0.000 A 
ATOM      6  C   UNL     1       2.382   4.408  18.760  0.00  0.00    +0.000 A 
ENDROOT
BRANCH   6   7
ATOM      7  C   UNL     1       2.592   5.854  19.061  0.00  0.00    +0.000 C 
ATOM      8  O   UNL     1       3.564   6.137  19.755  0.00  0.00    +0.000 OA
ATOM      9  N   UNL     1       1.652   6.749  18.584  0.00  0.00    +0.000 N 
ATOM     10  H   UNL     1       0.814   6.372  18.149  0.00  0.00    +0.000 HD
BRANCH   9  11
ATOM     11  C   UNL     1       1.741   8.158  18.681  0.00  0.00    +0.000 A 
ATOM     12  C   UNL     1       2.382   8.956  17.734  0.00  0.00    +0.000 A 
ATOM     13  C   UNL     1       2.267  10.348  17.788  0.00  0.00    +0.000 A 
ATOM     14  C   UNL     1       1.563  10.970  18.801  0.00  0.00    +0.000 A 
ATOM     15  N   UNL     1       1.263  12.274  18.692  0.00  0.00    +0.000 NA
ATOM     16  C   UNL     1       0.559  12.821  19.707  0.00  0.00    +0.000 A 
ATOM     17  C   UNL     1      -0.876  13.192  19.340  0.00  0.00    +0.000 C 
ATOM     18  C   UNL     1       0.630  12.287  20.973  0.00  0.00    +0.000 A 
ATOM     19  C   UNL     1       0.588  10.904  20.994  0.00  0.00    +0.000 A 
ATOM     20  C   UNL     1       1.090  10.198  19.875  0.00  0.00    +0.000 A 
ATOM     21  C   UNL     1       1.119   8.784  19.764  0.00  0.00    +0.000 A 
BRANCH  19  22
ATOM     22  N   UNL     1       0.143  10.280  22.175  0.00  0.00    +0.000 N 
ATOM     23  H   UNL     1       0.020  10.948  22.931  0.00  0.00    +0.000 HD
ATOM     24  H   UNL     1      -0.717   9.763  22.027  0.00  0.00    +0.000 HD
ENDBRANCH  19  22
ENDBRANCH   9  11
ENDBRANCH   6   7
BRANCH   1  25
ATOM     25  C   UNL     1       4.201   4.254  16.956  0.00  0.00    +0.000 C 
BRANCH  25  26
ATOM     26  O   UNL     1       5.439   4.190  17.666  0.00  0.00    +0.000 OA
BRANCH  26  30
ATOM     27  C   UNL     1       7.634   7.765  17.906  0.00  0.00    +0.000 A 
ATOM     28  C   UNL     1       8.021   6.603  18.602  0.00  0.00    +0.000 A 
ATOM     29  C   UNL     1       7.265   5.434  18.508  0.00  0.00    +0.000 A 
ATOM     30  C   UNL     1       6.110   5.395  17.738  0.00  0.00    +0.000 A 
ATOM     31  C   UNL     1       5.721   6.535  17.039  0.00  0.00    +0.000 A 
ATOM     32  C   UNL     1       6.466   7.703  17.118  0.00  0.00    +0.000 A 
BRANCH  27  33
ATOM     33  C   UNL     1       8.432   9.039  17.968  0.00  0.00    +0.000 C 
BRANCH  33  34
ATOM     34  N   UNL     1       8.959   9.269  19.316  0.00  0.00    +0.000 NA
ATOM     35  H   UNL     1       8.191   9.220  19.984  0.00  0.00    +0.000 HD
BRANCH  34  36
ATOM     36  C   UNL     1       9.612  10.571  19.413  0.00  0.00    +0.000 C 
BRANCH  36  38
ATOM     37  C   UNL     1      10.989  11.974  17.838  0.00  0.00    +0.000 C 
ATOM     38  C   UNL     1       9.694  11.201  18.018  0.00  0.00    +0.000 C 
ENDBRANCH  36  38
ENDBRANCH  34  36
ENDBRANCH  33  34
ENDBRANCH  27  33
ENDBRANCH  26  30
ENDBRANCH  25  26
ENDBRANCH   1  25
TORSDOF 10
ENDMDL
MODEL 5
REMARK VINA RESULT:      -8.2      1.043      1.832
REMARK  Name = 
REMARK  12 active torsions:
REMARK  status: ('A' for Active; 'I' for Inactive)
REMARK    1  A    between atoms: C_1  and  C_2
REMARK    2  A    between atoms: C_2  and  C_3
REMARK    3  A    between atoms: C_3  and  N_4
REMARK    4  A    between atoms: N_4  and  C_5
REMARK    5  A    between atoms: C_5  and  C_6
REMARK    6  A    between atoms: C_9  and  O_10
REMARK    7  A    between atoms: O_10  and  C_11
REMARK    8  A    between atoms: C_11  and  C_12
REMARK    9  A    between atoms: C_17  and  C_18
REMARK   10  A    between atoms: N_20  and  C_21
REMARK   11  A    between atoms: C_26  and  C_27
REMARK   12  A    between atoms: C_29  and  N_30
REMARK                            x       y       z     vdW  Elec       q    Type
REMARK                         _______ _______ _______ _____ _____    ______ ____
ROOT
ATOM      1  C   UNL     1       3.828   4.149  19.156  0.00  0.00    +0.000 A 
ATOM      2  C   UNL     1       4.267   2.993  18.477  0.00  0.00    +0.000 A 
ATOM      3  C   UNL     1       3.357   2.098  17.912  0.00  0.00    +0.000 A 
ATOM      4  C   UNL     1       1.993   2.348  17.993  0.00  0.00    +0.000 A 
ATOM      5  C   UNL     1       1.541   3.496  18.640  0.00  0.00    +0.000 A 
ATOM      6  C   UNL     1       2.443   4.406  19.219  0.00  0.00    +0.000 A 
ENDROOT
BRANCH   6   7
ATOM      7  C   UNL     1       1.811   5.517  19.989  0.00  0.00    +0.000 C 
ATOM      8  O   UNL     1       1.220   5.207  21.019  0.00  0.00    +0.000 OA
ATOM      9  N   UNL     1       1.893   6.790  19.456  0.00  0.00    +0.000 N 
ATOM     10  H   UNL     1       2.281   6.891  18.523  0.00  0.00    +0.000 HD
BRANCH   9  11
ATOM     11  C   UNL     1       1.446   7.973  20.092  0.00  0.00    +0.000 A 
ATOM     12  C   UNL     1       1.514   8.179  21.470  0.00  0.00    +0.000 A 
ATOM     13  C   UNL     1       1.238   9.436  22.012  0.00  0.00    +0.000 A 
ATOM     14  C   UNL     1       0.844  10.491  21.211  0.00  0.00    +0.000 A 
ATOM     15  N   UNL     1       0.827  11.735  21.717  0.00  0.00    +0.000 NA
ATOM     16  C   UNL     1       0.448  12.725  20.879  0.00  0.00    +0.000 A 
ATOM     17  C   UNL     1       1.580  13.670  20.481  0.00  0.00    +0.000 C 
ATOM     18  C   UNL     1      -0.380  12.458  19.813  0.00  0.00    +0.000 A 
ATOM     19  C   UNL     1      -0.054  11.297  19.135  0.00  0.00    +0.000 A 
ATOM     20  C   UNL     1       0.568  10.249  19.854  0.00  0.00    +0.000 A 
ATOM     21  C   UNL     1       0.947   9.003  19.292  0.00  0.00    +0.000 A 
BRANCH  19  22
ATOM     22  N   UNL     1      -0.458  11.188  17.791  0.00  0.00    +0.000 N 
ATOM     23  H   UNL     1      -1.470  11.225  17.698  0.00  0.00    +0.000 HD
ATOM     24  H   UNL     1      -0.031  11.901  17.210  0.00  0.00    +0.000 HD
ENDBRANCH  19  22
ENDBRANCH   9  11
ENDBRANCH   6   7
BRANCH   1  25
ATOM     25  C   UNL     1       4.861   5.010  19.835  0.00  0.00    +0.000 C 
BRANCH  25  26
ATOM     26  O   UNL     1       5.130   6.142  19.006  0.00  0.00    +0.000 OA
BRANCH  26  30
ATOM     27  C   UNL     1       6.525   5.013  15.206  0.00  0.00    +0.000 A 
ATOM     28  C   UNL     1       7.256   4.745  16.380  0.00  0.00    +0.000 A 
ATOM     29  C   UNL     1       6.769   5.141  17.626  0.00  0.00    +0.000 A 
ATOM     30  C   UNL     1       5.561   5.818  17.735  0.00  0.00    +0.000 A 
ATOM     31  C   UNL     1       4.825   6.082  16.582  0.00  0.00    +0.000 A 
ATOM     32  C   UNL     1       5.294   5.689  15.336  0.00  0.00    +0.000 A 
BRANCH  27  33
ATOM     33  C   UNL     1       7.008   4.587  13.847  0.00  0.00    +0.000 C 
BRANCH  33  34
ATOM     34  N   UNL     1       6.277   3.409  13.371  0.00  0.00    +0.000 NA
ATOM     35  H   UNL     1       6.588   2.593  13.897  0.00  0.00    +0.000 HD
BRANCH  34  36
ATOM     36  C   UNL     1       6.500   3.188  11.945  0.00  0.00    +0.000 C 
BRANCH  36  38
ATOM     37  C   UNL     1       4.031   3.193  11.444  0.00  0.00    +0.000 C 
ATOM     38  C   UNL     1       5.322   2.397  11.365  0.00  0.00    +0.000 C 
ENDBRANCH  36  38
ENDBRANCH  34  36
ENDBRANCH  33  34
ENDBRANCH  27  33
ENDBRANCH  26  30
ENDBRANCH  25  26
ENDBRANCH   1  25
TORSDOF 10
ENDMDL
MODEL 6
REMARK VINA RESULT:      -8.2      2.888      4.501
REMARK  Name = 
REMARK  12 active torsions:
REMARK  status: ('A' for Active; 'I' for Inactive)
REMARK    1  A    between atoms: C_1  and  C_2
REMARK    2  A    between atoms: C_2  and  C_3
REMARK    3  A    between atoms: C_3  and  N_4
REMARK    4  A    between atoms: N_4  and  C_5
REMARK    5  A    between atoms: C_5  and  C_6
REMARK    6  A    between atoms: C_9  and  O_10
REMARK    7  A    between atoms: O_10  and  C_11
REMARK    8  A    between atoms: C_11  and  C_12
REMARK    9  A    between atoms: C_17  and  C_18
REMARK   10  A    between atoms: N_20  and  C_21
REMARK   11  A    between atoms: C_26  and  C_27
REMARK   12  A    between atoms: C_29  and  N_30
REMARK                            x       y       z     vdW  Elec       q    Type
REMARK                         _______ _______ _______ _____ _____    ______ ____
ROOT
ATOM      1  C   UNL     1       1.995   3.960  19.032  0.00  0.00    +0.000 A 
ATOM      2  C   UNL     1       2.055   2.565  19.228  0.00  0.00    +0.000 A 
ATOM      3  C   UNL     1       2.125   2.016  20.509  0.00  0.00    +0.000 A 
ATOM      4  C   UNL     1       2.117   2.846  21.623  0.00  0.00    +0.000 A 
ATOM      5  C   UNL     1       2.035   4.226  21.452  0.00  0.00    +0.000 A 
ATOM      6  C   UNL     1       1.968   4.796  20.168  0.00  0.00    +0.000 A 
ENDROOT
BRANCH   6   7
ATOM      7  C   UNL     1       2.017   6.287  20.136  0.00  0.00    +0.000 C 
ATOM      8  O   UNL     1       2.934   6.795  19.497  0.00  0.00    +0.000 OA
ATOM      9  N   UNL     1       1.067   6.973  20.870  0.00  0.00    +0.000 N 
ATOM     10  H   UNL     1       0.454   6.435  21.476  0.00  0.00    +0.000 HD
BRANCH   9  11
ATOM     11  C   UNL     1       0.896   8.378  20.876  0.00  0.00    +0.000 A 
ATOM     12  C   UNL     1       1.233   9.189  21.959  0.00  0.00    +0.000 A 
ATOM     13  C   UNL     1       1.222  10.581  21.831  0.00  0.00    +0.000 A 
ATOM     14  C   UNL     1       0.833  11.189  20.653  0.00  0.00    +0.000 A 
ATOM     15  N   UNL     1       1.066  12.499  20.478  0.00  0.00    +0.000 NA
ATOM     16  C   UNL     1       0.677  13.032  19.299  0.00  0.00    +0.000 A 
ATOM     17  C   UNL     1       1.833  13.431  18.384  0.00  0.00    +0.000 C 
ATOM     18  C   UNL     1      -0.354  12.466  18.584  0.00  0.00    +0.000 A 
ATOM     19  C   UNL     1      -0.307  11.084  18.542  0.00  0.00    +0.000 A 
ATOM     20  C   UNL     1       0.292  10.398  19.625  0.00  0.00    +0.000 A 
ATOM     21  C   UNL     1       0.401   8.986  19.721  0.00  0.00    +0.000 A 
BRANCH  19  22
ATOM     22  N   UNL     1      -0.953  10.438  17.471  0.00  0.00    +0.000 N 
ATOM     23  H   UNL     1      -1.921  10.219  17.692  0.00  0.00    +0.000 HD
ATOM     24  H   UNL     1      -0.909  10.986  16.619  0.00  0.00    +0.000 HD
ENDBRANCH  19  22
ENDBRANCH   9  11
ENDBRANCH   6   7
BRANCH   1  25
ATOM     25  C   UNL     1       2.032   4.484  17.621  0.00  0.00    +0.000 C 
BRANCH  25  26
ATOM     26  O   UNL     1       3.203   3.979  16.977  0.00  0.00    +0.000 OA
BRANCH  26  30
ATOM     27  C   UNL     1       6.654   6.203  17.878  0.00  0.00    +0.000 A 
ATOM     28  C   UNL     1       5.866   6.473  16.741  0.00  0.00    +0.000 A 
ATOM     29  C   UNL     1       4.732   5.710  16.465  0.00  0.00    +0.000 A 
ATOM     30  C   UNL     1       4.360   4.661  17.298  0.00  0.00    +0.000 A 
ATOM     31  C   UNL     1       5.125   4.390  18.429  0.00  0.00    +0.000 A 
ATOM     32  C   UNL     1       6.254   5.143  18.719  0.00  0.00    +0.000 A 
BRANCH  27  33
ATOM     33  C   UNL     1       7.874   7.013  18.219  0.00  0.00    +0.000 C 
BRANCH  33  34
ATOM     34  N   UNL     1       8.050   8.125  17.280  0.00  0.00    +0.000 NA
ATOM     35  H   UNL     1       8.992   8.085  16.895  0.00  0.00    +0.000 HD
BRANCH  34  36
ATOM     36  C   UNL     1       7.844   9.411  17.940  0.00  0.00    +0.000 C 
BRANCH  36  38
ATOM     37  C   UNL     1       9.690  11.062  18.402  0.00  0.00    +0.000 C 
ATOM     38  C   UNL     1       9.066   9.738  18.806  0.00  0.00    +0.000 C 
ENDBRANCH  36  38
ENDBRANCH  34  36
ENDBRANCH  33  34
ENDBRANCH  27  33
ENDBRANCH  26  30
ENDBRANCH  25  26
ENDBRANCH   1  25
TORSDOF 10
ENDMDL
MODEL 7
REMARK VINA RESULT:      -8.2      0.517      1.045
REMARK  Name = 
REMARK  12 active torsions:
REMARK  status: ('A' for Active; 'I' for Inactive)
REMARK    1  A    between atoms: C_1  and  C_2
REMARK    2  A    between atoms: C_2  and  C_3
REMARK    3  A    between atoms: C_3  and  N_4
REMARK    4  A    between atoms: N_4  and  C_5
REMARK    5  A    between atoms: C_5  and  C_6
REMARK    6  A    between atoms: C_9  and  O_10
REMARK    7  A    between atoms: O_10  and  C_11
REMARK    8  A    between atoms: C_11  and  C_12
REMARK    9  A    between atoms: C_17  and  C_18
REMARK   10  A    between atoms: N_20  and  C_21
REMARK   11  A    between atoms: C_26  and  C_27
REMARK   12  A    between atoms: C_29  and  N_30
REMARK                            x       y       z     vdW  Elec       q    Type
REMARK                         _______ _______ _______ _____ _____    ______ ____
ROOT
ATOM      1  C   UNL     1       3.766   4.018  19.417  0.00  0.00    +0.000 A 
ATOM      2  C   UNL     1       4.005   2.649  19.178  0.00  0.00    +0.000 A 
ATOM      3  C   UNL     1       2.953   1.759  18.953  0.00  0.00    +0.000 A 
ATOM      4  C   UNL     1       1.643   2.220  18.940  0.00  0.00    +0.000 A 
ATOM      5  C   UNL     1       1.387   3.573  19.151  0.00  0.00    +0.000 A 
ATOM      6  C   UNL     1       2.435   4.483  19.384  0.00  0.00    +0.000 A 
ENDROOT
BRANCH   6   7
ATOM      7  C   UNL     1       2.002   5.869  19.724  0.00  0.00    +0.000 C 
ATOM      8  O   UNL     1       1.502   6.035  20.833  0.00  0.00    +0.000 OA
ATOM      9  N   UNL     1       2.145   6.840  18.749  0.00  0.00    +0.000 N 
ATOM     10  H   UNL     1       2.434   6.543  17.821  0.00  0.00    +0.000 HD
BRANCH   9  11
ATOM     11  C   UNL     1       1.887   8.220  18.925  0.00  0.00    +0.000 A 
ATOM     12  C   UNL     1       2.211   9.191  17.978  0.00  0.00    +0.000 A 
ATOM     13  C   UNL     1       1.757  10.504  18.126  0.00  0.00    +0.000 A 
ATOM     14  C   UNL     1       1.021  10.887  19.231  0.00  0.00    +0.000 A 
ATOM     15  N   UNL     1       0.395  12.074  19.229  0.00  0.00    +0.000 NA
ATOM     16  C   UNL     1      -0.321  12.384  20.332  0.00  0.00    +0.000 A 
ATOM     17  C   UNL     1      -1.832  12.389  20.112  0.00  0.00    +0.000 C 
ATOM     18  C   UNL     1       0.005  11.838  21.552  0.00  0.00    +0.000 A 
ATOM     19  C   UNL     1       0.313  10.491  21.492  0.00  0.00    +0.000 A 
ATOM     20  C   UNL     1       0.865   9.979  20.293  0.00  0.00    +0.000 A 
ATOM     21  C   UNL     1       1.237   8.624  20.093  0.00  0.00    +0.000 A 
BRANCH  19  22
ATOM     22  N   UNL     1       0.157   9.729  22.665  0.00  0.00    +0.000 N 
ATOM     23  H   UNL     1      -0.764   9.855  23.076  0.00  0.00    +0.000 HD
ATOM     24  H   UNL     1       0.331   8.744  22.501  0.00  0.00    +0.000 HD
ENDBRANCH  19  22
ENDBRANCH   9  11
ENDBRANCH   6   7
BRANCH   1  25
ATOM     25  C   UNL     1       4.939   4.897  19.761  0.00  0.00    +0.000 C 
BRANCH  25  26
ATOM     26  O   UNL     1       5.015   5.954  18.803  0.00  0.00    +0.000 OA
BRANCH  26  30
ATOM     27  C   UNL     1       6.399   4.844  14.994  0.00  0.00    +0.000 A 
ATOM     28  C   UNL     1       5.028   4.844  15.320  0.00  0.00    +0.000 A 
ATOM     29  C   UNL     1       4.602   5.208  16.597  0.00  0.00    +0.000 A 
ATOM     30  C   UNL     1       5.519   5.569  17.577  0.00  0.00    +0.000 A 
ATOM     31  C   UNL     1       6.876   5.582  17.264  0.00  0.00    +0.000 A 
ATOM     32  C   UNL     1       7.315   5.225  15.997  0.00  0.00    +0.000 A 
BRANCH  27  33
ATOM     33  C   UNL     1       6.897   4.474  13.624  0.00  0.00    +0.000 C 
BRANCH  33  34
ATOM     34  N   UNL     1       6.412   3.149  13.225  0.00  0.00    +0.000 NA
ATOM     35  H   UNL     1       6.950   2.438  13.718  0.00  0.00    +0.000 HD
BRANCH  34  36
ATOM     36  C   UNL     1       6.542   2.951  11.784  0.00  0.00    +0.000 C 
BRANCH  36  38
ATOM     37  C   UNL     1       4.089   3.206  11.269  0.00  0.00    +0.000 C 
ATOM     38  C   UNL     1       5.279   2.263  11.252  0.00  0.00    +0.000 C 
ENDBRANCH  36  38
ENDBRANCH  34  36
ENDBRANCH  33  34
ENDBRANCH  27  33
ENDBRANCH  26  30
ENDBRANCH  25  26
ENDBRANCH   1  25
TORSDOF 10
ENDMDL
MODEL 8
REMARK VINA RESULT:      -8.1      1.388      2.328
REMARK  Name = 
REMARK  12 active torsions:
REMARK  status: ('A' for Active; 'I' for Inactive)
REMARK    1  A    between atoms: C_1  and  C_2
REMARK    2  A    between atoms: C_2  and  C_3
REMARK    3  A    between atoms: C_3  and  N_4
REMARK    4  A    between atoms: N_4  and  C_5
REMARK    5  A    between atoms: C_5  and  C_6
REMARK    6  A    between atoms: C_9  and  O_10
REMARK    7  A    between atoms: O_10  and  C_11
REMARK    8  A    between atoms: C_11  and  C_12
REMARK    9  A    between atoms: C_17  and  C_18
REMARK   10  A    between atoms: N_20  and  C_21
REMARK   11  A    between atoms: C_26  and  C_27
REMARK   12  A    between atoms: C_29  and  N_30
REMARK                            x       y       z     vdW  Elec       q    Type
REMARK                         _______ _______ _______ _____ _____    ______ ____
ROOT
ATOM      1  C   UNL     1       4.002   4.492  19.444  0.00  0.00    +0.000 A 
ATOM      2  C   UNL     1       4.254   3.106  19.512  0.00  0.00    +0.000 A 
ATOM      3  C   UNL     1       3.209   2.181  19.532  0.00  0.00    +0.000 A 
ATOM      4  C   UNL     1       1.892   2.617  19.464  0.00  0.00    +0.000 A 
ATOM      5  C   UNL     1       1.623   3.981  19.373  0.00  0.00    +0.000 A 
ATOM      6  C   UNL     1       2.664   4.927  19.357  0.00  0.00    +0.000 A 
ENDROOT
BRANCH   6   7
ATOM      7  C   UNL     1       2.221   6.352  19.390  0.00  0.00    +0.000 C 
ATOM      8  O   UNL     1       2.261   6.966  18.329  0.00  0.00    +0.000 OA
ATOM      9  N   UNL     1       1.858   6.879  20.616  0.00  0.00    +0.000 N 
ATOM     10  H   UNL     1       2.011   6.309  21.443  0.00  0.00    +0.000 HD
BRANCH   9  11
ATOM     11  C   UNL     1       1.317   8.170  20.823  0.00  0.00    +0.000 A 
ATOM     12  C   UNL     1       0.549   8.514  21.935  0.00  0.00    +0.000 A 
ATOM     13  C   UNL     1       0.210   9.848  22.175  0.00  0.00    +0.000 A 
ATOM     14  C   UNL     1       0.581  10.851  21.300  0.00  0.00    +0.000 A 
ATOM     15  N   UNL     1       0.460  12.134  21.675  0.00  0.00    +0.000 NA
ATOM     16  C   UNL     1       0.854  13.067  20.781  0.00  0.00    +0.000 A 
ATOM     17  C   UNL     1       2.126  13.813  21.179  0.00  0.00    +0.000 C 
ATOM     18  C   UNL     1       0.836  12.793  19.433  0.00  0.00    +0.000 A 
ATOM     19  C   UNL     1       1.313  11.533  19.117  0.00  0.00    +0.000 A 
ATOM     20  C   UNL     1       1.170  10.500  20.073  0.00  0.00    +0.000 A 
ATOM     21  C   UNL     1       1.602   9.162  19.881  0.00  0.00    +0.000 A 
BRANCH  19  22
ATOM     22  N   UNL     1       1.818  11.330  17.819  0.00  0.00    +0.000 N 
ATOM     23  H   UNL     1       2.038  12.209  17.358  0.00  0.00    +0.000 HD
ATOM     24  H   UNL     1       2.635  10.728  17.822  0.00  0.00    +0.000 HD
ENDBRANCH  19  22
ENDBRANCH   9  11
ENDBRANCH   6   7
BRANCH   1  25
ATOM     25  C   UNL     1       5.173   5.434  19.538  0.00  0.00    +0.000 C 
BRANCH  25  26
ATOM     26  O   UNL     1       5.141   6.317  18.415  0.00  0.00    +0.000 OA
BRANCH  26  30
ATOM     27  C   UNL     1       6.500   4.754  14.758  0.00  0.00    +0.000 A 
ATOM     28  C   UNL     1       5.428   5.666  14.829  0.00  0.00    +0.000 A 
ATOM     29  C   UNL     1       4.995   6.159  16.060  0.00  0.00    +0.000 A 
ATOM     30  C   UNL     1       5.602   5.753  17.242  0.00  0.00    +0.000 A 
ATOM     31  C   UNL     1       6.668   4.859  17.185  0.00  0.00    +0.000 A 
ATOM     32  C   UNL     1       7.113   4.363  15.967  0.00  0.00    +0.000 A 
BRANCH  27  33
ATOM     33  C   UNL     1       7.008   4.213  13.450  0.00  0.00    +0.000 C 
BRANCH  33  34
ATOM     34  N   UNL     1       6.166   3.113  12.970  0.00  0.00    +0.000 NA
ATOM     35  H   UNL     1       6.699   2.246  13.016  0.00  0.00    +0.000 HD
BRANCH  34  36
ATOM     36  C   UNL     1       5.724   3.345  11.599  0.00  0.00    +0.000 C 
BRANCH  36  38
ATOM     37  C   UNL     1       3.506   3.742  10.471  0.00  0.00    +0.000 C 
ATOM     38  C   UNL     1       4.274   2.868  11.447  0.00  0.00    +0.000 C 
ENDBRANCH  36  38
ENDBRANCH  34  36
ENDBRANCH  33  34
ENDBRANCH  27  33
ENDBRANCH  26  30
ENDBRANCH  25  26
ENDBRANCH   1  25
TORSDOF 10
ENDMDL
MODEL 9
REMARK VINA RESULT:      -8.1      1.570      2.314
REMARK  Name = 
REMARK  12 active torsions:
REMARK  status: ('A' for Active; 'I' for Inactive)
REMARK    1  A    between atoms: C_1  and  C_2
REMARK    2  A    between atoms: C_2  and  C_3
REMARK    3  A    between atoms: C_3  and  N_4
REMARK    4  A    between atoms: N_4  and  C_5
REMARK    5  A    between atoms: C_5  and  C_6
REMARK    6  A    between atoms: C_9  and  O_10
REMARK    7  A    between atoms: O_10  and  C_11
REMARK    8  A    between atoms: C_11  and  C_12
REMARK    9  A    between atoms: C_17  and  C_18
REMARK   10  A    between atoms: N_20  and  C_21
REMARK   11  A    between atoms: C_26  and  C_27
REMARK   12  A    between atoms: C_29  and  N_30
REMARK                            x       y       z     vdW  Elec       q    Type
REMARK                         _______ _______ _______ _____ _____    ______ ____
ROOT
ATOM      1  C   UNL     1       3.601   4.560  19.823  0.00  0.00    +0.000 A 
ATOM      2  C   UNL     1       3.707   3.184  20.114  0.00  0.00    +0.000 A 
ATOM      3  C   UNL     1       2.638   2.476  20.667  0.00  0.00    +0.000 A 
ATOM      4  C   UNL     1       1.434   3.121  20.922  0.00  0.00    +0.000 A 
ATOM      5  C   UNL     1       1.302   4.475  20.620  0.00  0.00    +0.000 A 
ATOM      6  C   UNL     1       2.371   5.204  20.068  0.00  0.00    +0.000 A 
ENDROOT
BRANCH   6   7
ATOM      7  C   UNL     1       2.126   6.668  19.922  0.00  0.00    +0.000 C 
ATOM      8  O   UNL     1       2.591   7.209  18.923  0.00  0.00    +0.000 OA
ATOM      9  N   UNL     1       1.447   7.307  20.944  0.00  0.00    +0.000 N 
ATOM     10  H   UNL     1       1.246   6.776  21.786  0.00  0.00    +0.000 HD
BRANCH   9  11
ATOM     11  C   UNL     1       1.037   8.662  20.931  0.00  0.00    +0.000 A 
ATOM     12  C   UNL     1       1.111   9.499  22.044  0.00  0.00    +0.000 A 
ATOM     13  C   UNL     1       0.873  10.870  21.915  0.00  0.00    +0.000 A 
ATOM     14  C   UNL     1       0.513  11.423  20.701  0.00  0.00    +0.000 A 
ATOM     15  N   UNL     1       0.533  12.758  20.551  0.00  0.00    +0.000 NA
ATOM     16  C   UNL     1       0.185  13.237  19.337  0.00  0.00    +0.000 A 
ATOM     17  C   UNL     1       1.346  13.845  18.552  0.00  0.00    +0.000 C 
ATOM     18  C   UNL     1      -0.651  12.515  18.516  0.00  0.00    +0.000 A 
ATOM     19  C   UNL     1      -0.361  11.163  18.479  0.00  0.00    +0.000 A 
ATOM     20  C   UNL     1       0.229  10.570  19.621  0.00  0.00    +0.000 A 
ATOM     21  C   UNL     1       0.570   9.197  19.728  0.00  0.00    +0.000 A 
BRANCH  19  22
ATOM     22  N   UNL     1      -0.768  10.435  17.345  0.00  0.00    +0.000 N 
ATOM     23  H   UNL     1       0.016   9.976  16.891  0.00  0.00    +0.000 HD
ATOM     24  H   UNL     1      -1.484   9.753  17.573  0.00  0.00    +0.000 HD
ENDBRANCH  19  22
ENDBRANCH   9  11
ENDBRANCH   6   7
BRANCH   1  25
ATOM     25  C   UNL     1       4.828   5.281  19.333  0.00  0.00    +0.000 C 
BRANCH  25  26
ATOM     26  O   UNL     1       5.764   4.314  18.851  0.00  0.00    +0.000 OA
BRANCH  26  30
ATOM     27  C   UNL     1       6.116   4.396  14.664  0.00  0.00    +0.000 A 
ATOM     28  C   UNL     1       4.955   3.924  15.307  0.00  0.00    +0.000 A 
ATOM     29  C   UNL     1       4.873   3.901  16.700  0.00  0.00    +0.000 A 
ATOM     30  C   UNL     1       5.938   4.332  17.482  0.00  0.00    +0.000 A 
ATOM     31  C   UNL     1       7.088   4.809  16.858  0.00  0.00    +0.000 A 
ATOM     32  C   UNL     1       7.182   4.843  15.474  0.00  0.00    +0.000 A 
BRANCH  27  33
ATOM     33  C   UNL     1       6.237   4.453  13.166  0.00  0.00    +0.000 C 
BRANCH  33  34
ATOM     34  N   UNL     1       6.857   3.235  12.639  0.00  0.00    +0.000 NA
ATOM     35  H   UNL     1       7.615   3.496  12.010  0.00  0.00    +0.000 HD
BRANCH  34  36
ATOM     36  C   UNL     1       5.886   2.414  11.921  0.00  0.00    +0.000 C 
BRANCH  36  38
ATOM     37  C   UNL     1       6.078   0.001  11.224  0.00  0.00    +0.000 C 
ATOM     38  C   UNL     1       6.629   1.404  11.039  0.00  0.00    +0.000 C 
ENDBRANCH  36  38
ENDBRANCH  34  36
ENDBRANCH  33  34
ENDBRANCH  27  33
ENDBRANCH  26  30
ENDBRANCH  25  26
ENDBRANCH   1  25
TORSDOF 10
ENDMDL
