MODEL 1
REMARK VINA RESULT:      -7.5      0.000      0.000
REMARK  Name = 
REMARK  3 active torsions:
REMARK  status: ('A' for Active; 'I' for Inactive)
REMARK    1  A    between atoms: N_3  and  C_4
REMARK    2  A    between atoms: C_4  and  C_5
REMARK    3  A    between atoms: C_15  and  C_16
REMARK                            x       y       z     vdW  Elec       q    Type
REMARK                         _______ _______ _______ _____ _____    ______ ____
ROOT
ATOM      1  O   UNL     1       7.132   4.193  18.304  0.00  0.00    +0.000 OA
ATOM      2  C   UNL     1       7.165   5.364  17.931  0.00  0.00    +0.000 C 
ATOM      3  N   UNL     1       6.416   5.824  16.893  0.00  0.00    +0.000 N 
ATOM      4  N   UNL     1       7.930   6.251  18.617  0.00  0.00    +0.000 N 
ATOM      5  C   UNL     1       8.091   7.563  18.316  0.00  0.00    +0.000 A 
ATOM      6  N   UNL     1       7.665   8.265  17.291  0.00  0.00    +0.000 NA
ATOM      7  N   UNL     1       8.132   9.548  17.479  0.00  0.00    +0.000 NA
ATOM      8  C   UNL     1       8.806   9.549  18.617  0.00  0.00    +0.000 A 
ATOM      9  O   UNL     1       8.826   8.300  19.198  0.00  0.00    +0.000 OA
ATOM     10  H   UNL     1       6.678   6.704  16.458  0.00  0.00    +0.000 HD
ATOM     11  H   UNL     1       8.405   5.893  19.430  0.00  0.00    +0.000 HD
ENDROOT
BRANCH   8  12
ATOM     12  C   UNL     1       9.445  10.704  19.169  0.00  0.00    +0.000 A 
ATOM     13  C   UNL     1      10.122  11.710  18.498  0.00  0.00    +0.000 A 
ATOM     14  C   UNL     1      10.592  12.623  19.471  0.00  0.00    +0.000 A 
ATOM     15  C   UNL     1      10.164  12.138  20.682  0.00  0.00    +0.000 A 
ATOM     16  O   UNL     1       9.476  10.980  20.514  0.00  0.00    +0.000 OA
ENDBRANCH   8  12
BRANCH   3  17
ATOM     17  C   UNL     1       5.606   4.929  16.092  0.00  0.00    +0.000 C 
BRANCH  17  18
ATOM     18  C   UNL     1       6.194   4.708  14.720  0.00  0.00    +0.000 A 
ATOM     19  C   UNL     1       5.547   3.876  13.807  0.00  0.00    +0.000 A 
ATOM     20  C   UNL     1       6.119   3.677  12.553  0.00  0.00    +0.000 A 
ATOM     21  C   UNL     1       7.308   4.320  12.238  0.00  0.00    +0.000 A 
ATOM     22  C   UNL     1       7.876   5.148  13.192  0.00  0.00    +0.000 A 
ATOM     23  N   UNL     1       7.347   5.360  14.418  0.00  0.00    +0.000 NA
ENDBRANCH  17  18
ENDBRANCH   3  17
TORSDOF 3
ENDMDL
MODEL 2
REMARK VINA RESULT:      -7.2      1.985      3.383
REMARK  Name = 
REMARK  3 active torsions:
REMARK  status: ('A' for Active; 'I' for Inactive)
REMARK    1  A    between atoms: N_3  and  C_4
REMARK    2  A    between atoms: C_4  and  C_5
REMARK    3  A    between atoms: C_15  and  C_16
REMARK                            x       y       z     vdW  Elec       q    Type
REMARK                         _______ _______ _______ _____ _____    ______ ____
ROOT
ATOM      1  O   UNL     1       7.032   4.221  18.133  0.00  0.00    +0.000 OA
ATOM      2  C   UNL     1       7.049   5.418  17.854  0.00  0.00    +0.000 C 
ATOM      3  N   UNL     1       6.206   5.969  16.939  0.00  0.00    +0.000 N 
ATOM      4  N   UNL     1       7.896   6.238  18.526  0.00  0.00    +0.000 N 
ATOM      5  C   UNL     1       8.050   7.569  18.316  0.00  0.00    +0.000 A 
ATOM      6  N   UNL     1       7.534   8.357  17.400  0.00  0.00    +0.000 NA
ATOM      7  N   UNL     1       8.042   9.615  17.640  0.00  0.00    +0.000 NA
ATOM      8  C   UNL     1       8.828   9.516  18.698  0.00  0.00    +0.000 A 
ATOM      9  O   UNL     1       8.885   8.224  19.173  0.00  0.00    +0.000 OA
ATOM     10  H   UNL     1       6.439   6.879  16.551  0.00  0.00    +0.000 HD
ATOM     11  H   UNL     1       8.444   5.811  19.254  0.00  0.00    +0.000 HD
ENDROOT
BRANCH   8  12
ATOM     12  C   UNL     1       9.542  10.615  19.272  0.00  0.00    +0.000 A 
ATOM     13  C   UNL     1       9.475  11.095  20.571  0.00  0.00    +0.000 A 
ATOM     14  C   UNL     1      10.348  12.204  20.657  0.00  0.00    +0.000 A 
ATOM     15  C   UNL     1      10.916  12.335  19.414  0.00  0.00    +0.000 A 
ATOM     16  O   UNL     1      10.435  11.386  18.570  0.00  0.00    +0.000 OA
ENDBRANCH   8  12
BRANCH   3  17
ATOM     17  C   UNL     1       5.301   5.150  16.158  0.00  0.00    +0.000 C 
BRANCH  17  18
ATOM     18  C   UNL     1       4.082   4.743  16.949  0.00  0.00    +0.000 A 
ATOM     19  C   UNL     1       3.360   5.698  17.662  0.00  0.00    +0.000 A 
ATOM     20  C   UNL     1       2.247   5.293  18.396  0.00  0.00    +0.000 A 
ATOM     21  C   UNL     1       1.878   3.954  18.388  0.00  0.00    +0.000 A 
ATOM     22  C   UNL     1       2.635   3.073  17.635  0.00  0.00    +0.000 A 
ATOM     23  N   UNL     1       3.720   3.434  16.915  0.00  0.00    +0.000 NA
ENDBRANCH  17  18
ENDBRANCH   3  17
TORSDOF 3
ENDMDL
MODEL 3
REMARK VINA RESULT:      -7.2      2.265      3.591
REMARK  Name = 
REMARK  3 active torsions:
REMARK  status: ('A' for Active; 'I' for Inactive)
REMARK    1  A    between atoms: N_3  and  C_4
REMARK    2  A    between atoms: C_4  and  C_5
REMARK    3  A    between atoms: C_15  and  C_16
REMARK                            x       y       z     vdW  Elec       q    Type
REMARK                         _______ _______ _______ _____ _____    ______ ____
ROOT
ATOM      1  O   UNL     1       6.575   3.898  18.551  0.00  0.00    +0.000 OA
ATOM      2  C   UNL     1       6.652   5.033  18.087  0.00  0.00    +0.000 C 
ATOM      3  N   UNL     1       5.854   5.466  17.074  0.00  0.00    +0.000 N 
ATOM      4  N   UNL     1       7.521   5.914  18.645  0.00  0.00    +0.000 N 
ATOM      5  C   UNL     1       7.739   7.187  18.232  0.00  0.00    +0.000 A 
ATOM      6  N   UNL     1       7.279   7.840  17.189  0.00  0.00    +0.000 NA
ATOM      7  N   UNL     1       7.838   9.098  17.242  0.00  0.00    +0.000 NA
ATOM      8  C   UNL     1       8.597   9.136  18.324  0.00  0.00    +0.000 A 
ATOM      9  O   UNL     1       8.585   7.935  18.997  0.00  0.00    +0.000 OA
ATOM     10  H   UNL     1       6.135   6.293  16.554  0.00  0.00    +0.000 HD
ATOM     11  H   UNL     1       8.034   5.585  19.446  0.00  0.00    +0.000 HD
ENDROOT
BRANCH   8  12
ATOM     12  C   UNL     1       9.347  10.282  18.736  0.00  0.00    +0.000 A 
ATOM     13  C   UNL     1       9.576  10.737  20.026  0.00  0.00    +0.000 A 
ATOM     14  C   UNL     1      10.356  11.913  19.927  0.00  0.00    +0.000 A 
ATOM     15  C   UNL     1      10.578  12.106  18.586  0.00  0.00    +0.000 A 
ATOM     16  O   UNL     1       9.972  11.133  17.858  0.00  0.00    +0.000 OA
ENDBRANCH   8  12
BRANCH   3  17
ATOM     17  C   UNL     1       4.929   4.572  16.407  0.00  0.00    +0.000 C 
BRANCH  17  18
ATOM     18  C   UNL     1       3.697   4.310  17.238  0.00  0.00    +0.000 A 
ATOM     19  C   UNL     1       3.216   3.010  17.384  0.00  0.00    +0.000 A 
ATOM     20  C   UNL     1       2.068   2.796  18.144  0.00  0.00    +0.000 A 
ATOM     21  C   UNL     1       1.442   3.879  18.748  0.00  0.00    +0.000 A 
ATOM     22  C   UNL     1       1.996   5.135  18.573  0.00  0.00    +0.000 A 
ATOM     23  N   UNL     1       3.106   5.375  17.839  0.00  0.00    +0.000 NA
ENDBRANCH  17  18
ENDBRANCH   3  17
TORSDOF 3
ENDMDL
MODEL 4
REMARK VINA RESULT:      -7.2      2.222      3.573
REMARK  Name = 
REMARK  3 active torsions:
REMARK  status: ('A' for Active; 'I' for Inactive)
REMARK    1  A    between atoms: N_3  and  C_4
REMARK    2  A    between atoms: C_4  and  C_5
REMARK    3  A    between atoms: C_15  and  C_16
REMARK                            x       y       z     vdW  Elec       q    Type
REMARK                         _______ _______ _______ _____ _____    ______ ____
ROOT
ATOM      1  O   UNL     1       6.666   3.881  18.561  0.00  0.00    +0.000 OA
ATOM      2  C   UNL     1       6.716   5.022  18.108  0.00  0.00    +0.000 C 
ATOM      3  N   UNL     1       5.898   5.451  17.110  0.00  0.00    +0.000 N 
ATOM      4  N   UNL     1       7.577   5.912  18.664  0.00  0.00    +0.000 N 
ATOM      5  C   UNL     1       7.768   7.193  18.262  0.00  0.00    +0.000 A 
ATOM      6  N   UNL     1       7.283   7.848  17.232  0.00  0.00    +0.000 NA
ATOM      7  N   UNL     1       7.821   9.116  17.292  0.00  0.00    +0.000 NA
ATOM      8  C   UNL     1       8.592   9.156  18.365  0.00  0.00    +0.000 A 
ATOM      9  O   UNL     1       8.610   7.947  19.025  0.00  0.00    +0.000 OA
ATOM     10  H   UNL     1       6.159   6.288  16.595  0.00  0.00    +0.000 HD
ATOM     11  H   UNL     1       8.106   5.584  19.455  0.00  0.00    +0.000 HD
ENDROOT
BRANCH   8  12
ATOM     12  C   UNL     1       9.328  10.310  18.780  0.00  0.00    +0.000 A 
ATOM     13  C   UNL     1       9.971  11.247  17.986  0.00  0.00    +0.000 A 
ATOM     14  C   UNL     1      10.573  12.191  18.851  0.00  0.00    +0.000 A 
ATOM     15  C   UNL     1      10.252  11.794  20.126  0.00  0.00    +0.000 A 
ATOM     16  O   UNL     1       9.506  10.660  20.096  0.00  0.00    +0.000 OA
ENDBRANCH   8  12
BRANCH   3  17
ATOM     17  C   UNL     1       4.981   4.549  16.445  0.00  0.00    +0.000 C 
BRANCH  17  18
ATOM     18  C   UNL     1       3.739   4.298  17.266  0.00  0.00    +0.000 A 
ATOM     19  C   UNL     1       3.003   5.371  17.766  0.00  0.00    +0.000 A 
ATOM     20  C   UNL     1       1.871   5.112  18.534  0.00  0.00    +0.000 A 
ATOM     21  C   UNL     1       1.495   3.796  18.769  0.00  0.00    +0.000 A 
ATOM     22  C   UNL     1       2.267   2.788  18.217  0.00  0.00    +0.000 A 
ATOM     23  N   UNL     1       3.373   3.006  17.471  0.00  0.00    +0.000 NA
ENDBRANCH  17  18
ENDBRANCH   3  17
TORSDOF 3
ENDMDL
MODEL 5
REMARK VINA RESULT:      -7.1      5.826      6.498
REMARK  Name = 
REMARK  3 active torsions:
REMARK  status: ('A' for Active; 'I' for Inactive)
REMARK    1  A    between atoms: N_3  and  C_4
REMARK    2  A    between atoms: C_4  and  C_5
REMARK    3  A    between atoms: C_15  and  C_16
REMARK                            x       y       z     vdW  Elec       q    Type
REMARK                         _______ _______ _______ _____ _____    ______ ____
ROOT
ATOM      1  O   UNL     1       2.651   4.766  20.886  0.00  0.00    +0.000 OA
ATOM      2  C   UNL     1       2.615   5.594  19.978  0.00  0.00    +0.000 C 
ATOM      3  N   UNL     1       3.028   5.313  18.713  0.00  0.00    +0.000 N 
ATOM      4  N   UNL     1       2.085   6.818  20.227  0.00  0.00    +0.000 N 
ATOM      5  C   UNL     1       1.998   7.843  19.343  0.00  0.00    +0.000 A 
ATOM      6  N   UNL     1       2.463   7.961  18.120  0.00  0.00    +0.000 NA
ATOM      7  N   UNL     1       2.103   9.219  17.688  0.00  0.00    +0.000 NA
ATOM      8  C   UNL     1       1.429   9.786  18.674  0.00  0.00    +0.000 A 
ATOM      9  O   UNL     1       1.337   8.957  19.771  0.00  0.00    +0.000 OA
ATOM     10  H   UNL     1       3.233   6.087  18.087  0.00  0.00    +0.000 HD
ATOM     11  H   UNL     1       1.713   6.963  21.151  0.00  0.00    +0.000 HD
ENDROOT
BRANCH   8  12
ATOM     12  C   UNL     1       0.875  11.103  18.613  0.00  0.00    +0.000 A 
ATOM     13  C   UNL     1       1.542  12.316  18.676  0.00  0.00    +0.000 A 
ATOM     14  C   UNL     1       0.569  13.339  18.591  0.00  0.00    +0.000 A 
ATOM     15  C   UNL     1      -0.640  12.699  18.463  0.00  0.00    +0.000 A 
ATOM     16  O   UNL     1      -0.469  11.352  18.479  0.00  0.00    +0.000 OA
ENDBRANCH   8  12
BRANCH   3  17
ATOM     17  C   UNL     1       3.637   4.041  18.383  0.00  0.00    +0.000 C 
BRANCH  17  18
ATOM     18  C   UNL     1       4.950   4.214  17.659  0.00  0.00    +0.000 A 
ATOM     19  C   UNL     1       4.998   4.136  16.268  0.00  0.00    +0.000 A 
ATOM     20  C   UNL     1       6.224   4.284  15.625  0.00  0.00    +0.000 A 
ATOM     21  C   UNL     1       7.364   4.518  16.382  0.00  0.00    +0.000 A 
ATOM     22  C   UNL     1       7.229   4.604  17.757  0.00  0.00    +0.000 A 
ATOM     23  N   UNL     1       6.053   4.463  18.410  0.00  0.00    +0.000 NA
ENDBRANCH  17  18
ENDBRANCH   3  17
TORSDOF 3
ENDMDL
MODEL 6
REMARK VINA RESULT:      -7.1      8.223      9.034
REMARK  Name = 
REMARK  3 active torsions:
REMARK  status: ('A' for Active; 'I' for Inactive)
REMARK    1  A    between atoms: N_3  and  C_4
REMARK    2  A    between atoms: C_4  and  C_5
REMARK    3  A    between atoms: C_15  and  C_16
REMARK                            x       y       z     vdW  Elec       q    Type
REMARK                         _______ _______ _______ _____ _____    ______ ____
ROOT
ATOM      1  O   UNL     1       2.278   8.659  17.279  0.00  0.00    +0.000 OA
ATOM      2  C   UNL     1       1.925   8.686  18.456  0.00  0.00    +0.000 C 
ATOM      3  N   UNL     1       2.281   7.724  19.350  0.00  0.00    +0.000 N 
ATOM      4  N   UNL     1       1.204   9.745  18.901  0.00  0.00    +0.000 N 
ATOM      5  C   UNL     1       0.720   9.907  20.158  0.00  0.00    +0.000 A 
ATOM      6  N   UNL     1       0.726   9.093  21.190  0.00  0.00    +0.000 NA
ATOM      7  N   UNL     1       0.083   9.758  22.211  0.00  0.00    +0.000 NA
ATOM      8  C   UNL     1      -0.266  10.943  21.739  0.00  0.00    +0.000 A 
ATOM      9  O   UNL     1       0.105  11.096  20.421  0.00  0.00    +0.000 OA
ATOM     10  H   UNL     1       1.751   7.644  20.213  0.00  0.00    +0.000 HD
ATOM     11  H   UNL     1       1.030  10.478  18.233  0.00  0.00    +0.000 HD
ENDROOT
BRANCH   8  12
ATOM     12  C   UNL     1      -0.954  11.938  22.502  0.00  0.00    +0.000 A 
ATOM     13  C   UNL     1      -2.288  11.956  22.880  0.00  0.00    +0.000 A 
ATOM     14  C   UNL     1      -2.504  13.151  23.606  0.00  0.00    +0.000 A 
ATOM     15  C   UNL     1      -1.291  13.792  23.649  0.00  0.00    +0.000 A 
ATOM     16  O   UNL     1      -0.350  13.073  22.984  0.00  0.00    +0.000 OA
ENDBRANCH   8  12
BRANCH   3  17
ATOM     17  C   UNL     1       3.019   6.547  18.938  0.00  0.00    +0.000 C 
BRANCH  17  18
ATOM     18  C   UNL     1       2.249   5.276  19.203  0.00  0.00    +0.000 A 
ATOM     19  C   UNL     1       1.817   4.975  20.494  0.00  0.00    +0.000 A 
ATOM     20  C   UNL     1       1.122   3.788  20.713  0.00  0.00    +0.000 A 
ATOM     21  C   UNL     1       0.864   2.943  19.642  0.00  0.00    +0.000 A 
ATOM     22  C   UNL     1       1.307   3.325  18.387  0.00  0.00    +0.000 A 
ATOM     23  N   UNL     1       1.986   4.469  18.142  0.00  0.00    +0.000 NA
ENDBRANCH  17  18
ENDBRANCH   3  17
TORSDOF 3
ENDMDL
MODEL 7
REMARK VINA RESULT:      -7.0      6.025      6.783
REMARK  Name = 
REMARK  3 active torsions:
REMARK  status: ('A' for Active; 'I' for Inactive)
REMARK    1  A    between atoms: N_3  and  C_4
REMARK    2  A    between atoms: C_4  and  C_5
REMARK    3  A    between atoms: C_15  and  C_16
REMARK                            x       y       z     vdW  Elec       q    Type
REMARK                         _______ _______ _______ _____ _____    ______ ____
ROOT
ATOM      1  O   UNL     1       2.572   3.603  21.187  0.00  0.00    +0.000 OA
ATOM      2  C   UNL     1       2.523   4.622  20.501  0.00  0.00    +0.000 C 
ATOM      3  N   UNL     1       2.986   4.669  19.223  0.00  0.00    +0.000 N 
ATOM      4  N   UNL     1       1.926   5.728  21.012  0.00  0.00    +0.000 N 
ATOM      5  C   UNL     1       1.816   6.931  20.393  0.00  0.00    +0.000 A 
ATOM      6  N   UNL     1       2.311   7.356  19.253  0.00  0.00    +0.000 NA
ATOM      7  N   UNL     1       1.903   8.665  19.118  0.00  0.00    +0.000 NA
ATOM      8  C   UNL     1       1.173   8.952  20.182  0.00  0.00    +0.000 A 
ATOM      9  O   UNL     1       1.088   7.882  21.046  0.00  0.00    +0.000 OA
ATOM     10  H   UNL     1       3.172   5.577  18.808  0.00  0.00    +0.000 HD
ATOM     11  H   UNL     1       1.520   5.633  21.928  0.00  0.00    +0.000 HD
ENDROOT
BRANCH   8  12
ATOM     12  C   UNL     1       0.557  10.223  20.413  0.00  0.00    +0.000 A 
ATOM     13  C   UNL     1      -0.459  10.825  19.687  0.00  0.00    +0.000 A 
ATOM     14  C   UNL     1      -0.718  12.080  20.286  0.00  0.00    +0.000 A 
ATOM     15  C   UNL     1       0.138  12.172  21.356  0.00  0.00    +0.000 A 
ATOM     16  O   UNL     1       0.914  11.061  21.440  0.00  0.00    +0.000 OA
ENDBRANCH   8  12
BRANCH   3  17
ATOM     17  C   UNL     1       3.667   3.538  18.625  0.00  0.00    +0.000 C 
BRANCH  17  18
ATOM     18  C   UNL     1       4.899   3.959  17.862  0.00  0.00    +0.000 A 
ATOM     19  C   UNL     1       4.886   3.976  16.468  0.00  0.00    +0.000 A 
ATOM     20  C   UNL     1       6.042   4.353  15.788  0.00  0.00    +0.000 A 
ATOM     21  C   UNL     1       7.170   4.715  16.512  0.00  0.00    +0.000 A 
ATOM     22  C   UNL     1       7.093   4.693  17.894  0.00  0.00    +0.000 A 
ATOM     23  N   UNL     1       5.989   4.329  18.583  0.00  0.00    +0.000 NA
ENDBRANCH  17  18
ENDBRANCH   3  17
TORSDOF 3
ENDMDL
MODEL 8
REMARK VINA RESULT:      -7.0      5.429      8.351
REMARK  Name = 
REMARK  3 active torsions:
REMARK  status: ('A' for Active; 'I' for Inactive)
REMARK    1  A    between atoms: N_3  and  C_4
REMARK    2  A    between atoms: C_4  and  C_5
REMARK    3  A    between atoms: C_15  and  C_16
REMARK                            x       y       z     vdW  Elec       q    Type
REMARK                         _______ _______ _______ _____ _____    ______ ____
ROOT
ATOM      1  O   UNL     1       1.484   4.917  20.799  0.00  0.00    +0.000 OA
ATOM      2  C   UNL     1       2.138   5.563  19.983  0.00  0.00    +0.000 C 
ATOM      3  N   UNL     1       2.275   6.914  20.058  0.00  0.00    +0.000 N 
ATOM      4  N   UNL     1       2.803   4.901  19.003  0.00  0.00    +0.000 N 
ATOM      5  C   UNL     1       3.541   5.469  18.017  0.00  0.00    +0.000 A 
ATOM      6  N   UNL     1       3.720   6.732  17.701  0.00  0.00    +0.000 NA
ATOM      7  N   UNL     1       4.552   6.742  16.602  0.00  0.00    +0.000 NA
ATOM      8  C   UNL     1       4.838   5.481  16.325  0.00  0.00    +0.000 A 
ATOM      9  O   UNL     1       4.209   4.613  17.191  0.00  0.00    +0.000 OA
ATOM     10  H   UNL     1       2.583   7.417  19.231  0.00  0.00    +0.000 HD
ATOM     11  H   UNL     1       2.746   3.896  19.027  0.00  0.00    +0.000 HD
ENDROOT
BRANCH   8  12
ATOM     12  C   UNL     1       5.687   5.069  15.250  0.00  0.00    +0.000 A 
ATOM     13  C   UNL     1       5.453   4.082  14.305  0.00  0.00    +0.000 A 
ATOM     14  C   UNL     1       6.587   4.030  13.460  0.00  0.00    +0.000 A 
ATOM     15  C   UNL     1       7.445   4.998  13.920  0.00  0.00    +0.000 A 
ATOM     16  O   UNL     1       6.916   5.628  15.000  0.00  0.00    +0.000 OA
ENDBRANCH   8  12
BRANCH   3  17
ATOM     17  C   UNL     1       1.567   7.690  21.055  0.00  0.00    +0.000 C 
BRANCH  17  18
ATOM     18  C   UNL     1       0.939   8.930  20.466  0.00  0.00    +0.000 A 
ATOM     19  C   UNL     1       0.054   9.694  21.224  0.00  0.00    +0.000 A 
ATOM     20  C   UNL     1      -0.523  10.825  20.651  0.00  0.00    +0.000 A 
ATOM     21  C   UNL     1      -0.192  11.171  19.348  0.00  0.00    +0.000 A 
ATOM     22  C   UNL     1       0.713  10.372  18.670  0.00  0.00    +0.000 A 
ATOM     23  N   UNL     1       1.287   9.268  19.197  0.00  0.00    +0.000 NA
ENDBRANCH  17  18
ENDBRANCH   3  17
TORSDOF 3
ENDMDL
MODEL 9
REMARK VINA RESULT:      -6.9      6.874      7.659
REMARK  Name = 
REMARK  3 active torsions:
REMARK  status: ('A' for Active; 'I' for Inactive)
REMARK    1  A    between atoms: N_3  and  C_4
REMARK    2  A    between atoms: C_4  and  C_5
REMARK    3  A    between atoms: C_15  and  C_16
REMARK                            x       y       z     vdW  Elec       q    Type
REMARK                         _______ _______ _______ _____ _____    ______ ____
ROOT
ATOM      1  O   UNL     1       2.812   4.814  20.565  0.00  0.00    +0.000 OA
ATOM      2  C   UNL     1       2.509   5.930  20.148  0.00  0.00    +0.000 C 
ATOM      3  N   UNL     1       2.824   6.354  18.894  0.00  0.00    +0.000 N 
ATOM      4  N   UNL     1       1.778   6.752  20.942  0.00  0.00    +0.000 N 
ATOM      5  C   UNL     1       1.390   8.015  20.637  0.00  0.00    +0.000 A 
ATOM      6  N   UNL     1       1.681   8.776  19.606  0.00  0.00    +0.000 NA
ATOM      7  N   UNL     1       1.031   9.973  19.813  0.00  0.00    +0.000 NA
ATOM      8  C   UNL     1       0.374   9.862  20.954  0.00  0.00    +0.000 A 
ATOM      9  O   UNL     1       0.573   8.631  21.540  0.00  0.00    +0.000 OA
ATOM     10  H   UNL     1       2.799   7.351  18.699  0.00  0.00    +0.000 HD
ATOM     11  H   UNL     1       1.492   6.374  21.830  0.00  0.00    +0.000 HD
ENDROOT
BRANCH   8  12
ATOM     12  C   UNL     1      -0.435  10.899  21.518  0.00  0.00    +0.000 A 
ATOM     13  C   UNL     1      -1.350  11.717  20.872  0.00  0.00    +0.000 A 
ATOM     14  C   UNL     1      -1.886  12.597  21.841  0.00  0.00    +0.000 A 
ATOM     15  C   UNL     1      -1.286  12.261  23.030  0.00  0.00    +0.000 A 
ATOM     16  O   UNL     1      -0.407  11.242  22.847  0.00  0.00    +0.000 OA
ENDBRANCH   8  12
BRANCH   3  17
ATOM     17  C   UNL     1       3.633   5.546  18.005  0.00  0.00    +0.000 C 
BRANCH  17  18
ATOM     18  C   UNL     1       5.100   5.886  18.108  0.00  0.00    +0.000 A 
ATOM     19  C   UNL     1       5.668   6.803  17.225  0.00  0.00    +0.000 A 
ATOM     20  C   UNL     1       7.027   7.088  17.332  0.00  0.00    +0.000 A 
ATOM     21  C   UNL     1       7.777   6.466  18.320  0.00  0.00    +0.000 A 
ATOM     22  C   UNL     1       7.133   5.584  19.171  0.00  0.00    +0.000 A 
ATOM     23  N   UNL     1       5.817   5.285  19.092  0.00  0.00    +0.000 NA
ENDBRANCH  17  18
ENDBRANCH   3  17
TORSDOF 3
ENDMDL
