MODEL 1
REMARK VINA RESULT:      -9.3      0.000      0.000
REMARK  Name = 
REMARK  7 active torsions:
REMARK  status: ('A' for Active; 'I' for Inactive)
REMARK    1  A    between atoms: C_1  and  N_2
REMARK    2  A    between atoms: N_2  and  C_3
REMARK    3  A    between atoms: N_2  and  C_4
REMARK    4  A    between atoms: C_7  and  N_8
REMARK    5  A    between atoms: N_8  and  C_9
REMARK    6  A    between atoms: C_11  and  C_12
REMARK    7  A    between atoms: C_16  and  C_17
REMARK                            x       y       z     vdW  Elec       q    Type
REMARK                         _______ _______ _______ _____ _____    ______ ____
ROOT
ATOM      1  C   UNL     1       3.779   6.660  17.749  0.00  0.00    +0.000 A 
ATOM      2  C   UNL     1       4.937   7.348  17.597  0.00  0.00    +0.000 A 
ATOM      3  C   UNL     1       6.246   6.697  17.715  0.00  0.00    +0.000 A 
ATOM      4  C   UNL     1       6.326   5.389  18.048  0.00  0.00    +0.000 A 
ATOM      5  C   UNL     1       5.133   4.699  18.400  0.00  0.00    +0.000 A 
ATOM      6  N   UNL     1       4.989   3.595  19.098  0.00  0.00    +0.000 NA
ATOM      7  C   UNL     1       3.652   3.335  19.087  0.00  0.00    +0.000 A 
ATOM      8  C   UNL     1       2.975   2.264  19.683  0.00  0.00    +0.000 A 
ATOM      9  C   UNL     1       1.627   2.077  19.383  0.00  0.00    +0.000 A 
ATOM     10  C   UNL     1       0.975   2.940  18.501  0.00  0.00    +0.000 A 
ATOM     11  C   UNL     1       1.613   4.077  17.973  0.00  0.00    +0.000 A 
ATOM     12  C   UNL     1       2.955   4.281  18.331  0.00  0.00    +0.000 A 
ATOM     13  N   UNL     1       3.895   5.288  18.117  0.00  0.00    +0.000 N 
ENDROOT
BRANCH   3  14
ATOM     14  C   UNL     1       7.480   7.533  17.521  0.00  0.00    +0.000 C 
ATOM     15  F   UNL     1       8.133   7.254  16.365  0.00  0.00    +0.000 F 
ATOM     16  F   UNL     1       7.176   8.856  17.477  0.00  0.00    +0.000 F 
ATOM     17  F   UNL     1       8.370   7.356  18.528  0.00  0.00    +0.000 F 
ENDBRANCH   3  14
BRANCH   1  18
ATOM     18  N   UNL     1       2.541   7.302  17.721  0.00  0.00    +0.000 N 
ATOM     19  H   UNL     1       2.316   7.745  16.833  0.00  0.00    +0.000 HD
BRANCH  18  23
ATOM     20  C   UNL     1       0.722   9.465  20.945  0.00  0.00    +0.000 A 
ATOM     21  C   UNL     1       0.821   9.996  19.649  0.00  0.00    +0.000 A 
ATOM     22  C   UNL     1       1.459   9.319  18.601  0.00  0.00    +0.000 A 
ATOM     23  C   UNL     1       2.022   8.061  18.799  0.00  0.00    +0.000 A 
ATOM     24  C   UNL     1       1.941   7.509  20.078  0.00  0.00    +0.000 A 
ATOM     25  C   UNL     1       1.320   8.208  21.133  0.00  0.00    +0.000 A 
BRANCH  20  27
ATOM     26  C   UNL     1      -0.298  11.542  21.821  0.00  0.00    +0.000 C 
ATOM     27  N   UNL     1       0.041  10.130  21.961  0.00  0.00    +0.000 N 
ATOM     28  C   UNL     1      -0.032   9.557  23.301  0.00  0.00    +0.000 C 
ENDBRANCH  20  27
ENDBRANCH  18  23
ENDBRANCH   1  18
BRANCH   4  29
ATOM     29  C   UNL     1       7.568   4.681  18.066  0.00  0.00    +0.000 C 
ATOM     30  N   UNL     1       8.586   4.122  17.996  0.00  0.00    +0.000 NA
ENDBRANCH   4  29
TORSDOF 5
ENDMDL
MODEL 2
REMARK VINA RESULT:      -9.0      0.152      1.311
REMARK  Name = 
REMARK  7 active torsions:
REMARK  status: ('A' for Active; 'I' for Inactive)
REMARK    1  A    between atoms: C_1  and  N_2
REMARK    2  A    between atoms: N_2  and  C_3
REMARK    3  A    between atoms: N_2  and  C_4
REMARK    4  A    between atoms: C_7  and  N_8
REMARK    5  A    between atoms: N_8  and  C_9
REMARK    6  A    between atoms: C_11  and  C_12
REMARK    7  A    between atoms: C_16  and  C_17
REMARK                            x       y       z     vdW  Elec       q    Type
REMARK                         _______ _______ _______ _____ _____    ______ ____
ROOT
ATOM      1  C   UNL     1       3.822   6.672  17.643  0.00  0.00    +0.000 A 
ATOM      2  C   UNL     1       4.976   7.370  17.508  0.00  0.00    +0.000 A 
ATOM      3  C   UNL     1       6.288   6.741  17.693  0.00  0.00    +0.000 A 
ATOM      4  C   UNL     1       6.372   5.445  18.072  0.00  0.00    +0.000 A 
ATOM      5  C   UNL     1       5.177   4.752  18.406  0.00  0.00    +0.000 A 
ATOM      6  N   UNL     1       5.022   3.670  19.134  0.00  0.00    +0.000 NA
ATOM      7  C   UNL     1       3.689   3.392  19.086  0.00  0.00    +0.000 A 
ATOM      8  C   UNL     1       3.005   2.331  19.693  0.00  0.00    +0.000 A 
ATOM      9  C   UNL     1       1.671   2.117  19.354  0.00  0.00    +0.000 A 
ATOM     10  C   UNL     1       1.040   2.942  18.421  0.00  0.00    +0.000 A 
ATOM     11  C   UNL     1       1.682   4.069  17.877  0.00  0.00    +0.000 A 
ATOM     12  C   UNL     1       3.008   4.303  18.275  0.00  0.00    +0.000 A 
ATOM     13  N   UNL     1       3.942   5.315  18.060  0.00  0.00    +0.000 N 
ENDROOT
BRANCH   3  14
ATOM     14  C   UNL     1       7.518   7.587  17.514  0.00  0.00    +0.000 C 
ATOM     15  F   UNL     1       7.247   8.915  17.478  0.00  0.00    +0.000 F 
ATOM     16  F   UNL     1       8.393   7.404  18.537  0.00  0.00    +0.000 F 
ATOM     17  F   UNL     1       8.172   7.287  16.366  0.00  0.00    +0.000 F 
ENDBRANCH   3  14
BRANCH   1  18
ATOM     18  N   UNL     1       2.578   7.296  17.551  0.00  0.00    +0.000 N 
ATOM     19  H   UNL     1       2.430   7.814  16.687  0.00  0.00    +0.000 HD
BRANCH  18  23
ATOM     20  C   UNL     1       0.879   9.425  20.861  0.00  0.00    +0.000 A 
ATOM     21  C   UNL     1       1.509   8.179  21.016  0.00  0.00    +0.000 A 
ATOM     22  C   UNL     1       2.022   7.452  19.934  0.00  0.00    +0.000 A 
ATOM     23  C   UNL     1       1.940   7.947  18.635  0.00  0.00    +0.000 A 
ATOM     24  C   UNL     1       1.317   9.183  18.450  0.00  0.00    +0.000 A 
ATOM     25  C   UNL     1       0.781   9.896  19.542  0.00  0.00    +0.000 A 
BRANCH  20  27
ATOM     26  C   UNL     1       0.061   9.481  23.196  0.00  0.00    +0.000 C 
ATOM     27  N   UNL     1       0.420  10.156  21.954  0.00  0.00    +0.000 N 
ATOM     28  C   UNL     1      -0.047  11.528  21.782  0.00  0.00    +0.000 C 
ENDBRANCH  20  27
ENDBRANCH  18  23
ENDBRANCH   1  18
BRANCH   4  29
ATOM     29  C   UNL     1       7.622   4.756  18.157  0.00  0.00    +0.000 C 
ATOM     30  N   UNL     1       8.616   4.151  18.154  0.00  0.00    +0.000 NA
ENDBRANCH   4  29
TORSDOF 5
ENDMDL
MODEL 3
REMARK VINA RESULT:      -8.4      0.800      1.206
REMARK  Name = 
REMARK  7 active torsions:
REMARK  status: ('A' for Active; 'I' for Inactive)
REMARK    1  A    between atoms: C_1  and  N_2
REMARK    2  A    between atoms: N_2  and  C_3
REMARK    3  A    between atoms: N_2  and  C_4
REMARK    4  A    between atoms: C_7  and  N_8
REMARK    5  A    between atoms: N_8  and  C_9
REMARK    6  A    between atoms: C_11  and  C_12
REMARK    7  A    between atoms: C_16  and  C_17
REMARK                            x       y       z     vdW  Elec       q    Type
REMARK                         _______ _______ _______ _____ _____    ______ ____
ROOT
ATOM      1  C   UNL     1       3.602   6.516  17.720  0.00  0.00    +0.000 A 
ATOM      2  C   UNL     1       4.723   7.252  17.526  0.00  0.00    +0.000 A 
ATOM      3  C   UNL     1       6.064   6.665  17.626  0.00  0.00    +0.000 A 
ATOM      4  C   UNL     1       6.211   5.369  17.986  0.00  0.00    +0.000 A 
ATOM      5  C   UNL     1       5.060   4.634  18.381  0.00  0.00    +0.000 A 
ATOM      6  N   UNL     1       4.983   3.541  19.105  0.00  0.00    +0.000 NA
ATOM      7  C   UNL     1       3.660   3.220  19.131  0.00  0.00    +0.000 A 
ATOM      8  C   UNL     1       3.047   2.132  19.766  0.00  0.00    +0.000 A 
ATOM      9  C   UNL     1       1.702   1.877  19.502  0.00  0.00    +0.000 A 
ATOM     10  C   UNL     1       0.992   2.690  18.618  0.00  0.00    +0.000 A 
ATOM     11  C   UNL     1       1.564   3.842  18.051  0.00  0.00    +0.000 A 
ATOM     12  C   UNL     1       2.903   4.116  18.373  0.00  0.00    +0.000 A 
ATOM     13  N   UNL     1       3.790   5.159  18.114  0.00  0.00    +0.000 N 
ENDROOT
BRANCH   3  14
ATOM     14  C   UNL     1       7.253   7.552  17.385  0.00  0.00    +0.000 C 
ATOM     15  F   UNL     1       8.102   7.597  18.442  0.00  0.00    +0.000 F 
ATOM     16  F   UNL     1       7.985   7.117  16.327  0.00  0.00    +0.000 F 
ATOM     17  F   UNL     1       6.883   8.829  17.123  0.00  0.00    +0.000 F 
ENDBRANCH   3  14
BRANCH   1  18
ATOM     18  N   UNL     1       2.336   7.100  17.708  0.00  0.00    +0.000 N 
ATOM     19  H   UNL     1       1.883   7.105  16.797  0.00  0.00    +0.000 HD
BRANCH  18  23
ATOM     20  C   UNL     1       1.045  10.558  19.891  0.00  0.00    +0.000 A 
ATOM     21  C   UNL     1       1.303  10.597  18.511  0.00  0.00    +0.000 A 
ATOM     22  C   UNL     1       1.775   9.486  17.798  0.00  0.00    +0.000 A 
ATOM     23  C   UNL     1       1.999   8.269  18.436  0.00  0.00    +0.000 A 
ATOM     24  C   UNL     1       1.752   8.200  19.808  0.00  0.00    +0.000 A 
ATOM     25  C   UNL     1       1.303   9.330  20.522  0.00  0.00    +0.000 A 
BRANCH  20  27
ATOM     26  C   UNL     1       1.378  12.804  20.872  0.00  0.00    +0.000 C 
ATOM     27  N   UNL     1       0.529  11.657  20.573  0.00  0.00    +0.000 N 
ATOM     28  C   UNL     1      -0.728  11.549  21.305  0.00  0.00    +0.000 C 
ENDBRANCH  20  27
ENDBRANCH  18  23
ENDBRANCH   1  18
BRANCH   4  29
ATOM     29  C   UNL     1       7.485   4.720  17.988  0.00  0.00    +0.000 C 
ATOM     30  N   UNL     1       8.484   4.126  18.034  0.00  0.00    +0.000 NA
ENDBRANCH   4  29
TORSDOF 5
ENDMDL
MODEL 4
REMARK VINA RESULT:      -7.7      3.199      4.836
REMARK  Name = 
REMARK  7 active torsions:
REMARK  status: ('A' for Active; 'I' for Inactive)
REMARK    1  A    between atoms: C_1  and  N_2
REMARK    2  A    between atoms: N_2  and  C_3
REMARK    3  A    between atoms: N_2  and  C_4
REMARK    4  A    between atoms: C_7  and  N_8
REMARK    5  A    between atoms: N_8  and  C_9
REMARK    6  A    between atoms: C_11  and  C_12
REMARK    7  A    between atoms: C_16  and  C_17
REMARK                            x       y       z     vdW  Elec       q    Type
REMARK                         _______ _______ _______ _____ _____    ______ ____
ROOT
ATOM      1  C   UNL     1       2.841   5.674  18.662  0.00  0.00    +0.000 A 
ATOM      2  C   UNL     1       2.036   4.741  19.226  0.00  0.00    +0.000 A 
ATOM      3  C   UNL     1       2.575   3.532  19.857  0.00  0.00    +0.000 A 
ATOM      4  C   UNL     1       3.905   3.288  19.831  0.00  0.00    +0.000 A 
ATOM      5  C   UNL     1       4.744   4.155  19.078  0.00  0.00    +0.000 A 
ATOM      6  N   UNL     1       5.946   3.933  18.596  0.00  0.00    +0.000 NA
ATOM      7  C   UNL     1       6.323   5.106  18.016  0.00  0.00    +0.000 A 
ATOM      8  C   UNL     1       7.526   5.400  17.363  0.00  0.00    +0.000 A 
ATOM      9  C   UNL     1       7.790   6.723  17.013  0.00  0.00    +0.000 A 
ATOM     10  C   UNL     1       6.871   7.728  17.318  0.00  0.00    +0.000 A 
ATOM     11  C   UNL     1       5.616   7.436  17.882  0.00  0.00    +0.000 A 
ATOM     12  C   UNL     1       5.344   6.090  18.175  0.00  0.00    +0.000 A 
ATOM     13  N   UNL     1       4.236   5.381  18.634  0.00  0.00    +0.000 N 
ENDROOT
BRANCH   3  14
ATOM     14  C   UNL     1       1.610   2.553  20.467  0.00  0.00    +0.000 C 
ATOM     15  F   UNL     1       1.898   2.263  21.760  0.00  0.00    +0.000 F 
ATOM     16  F   UNL     1       0.343   3.041  20.458  0.00  0.00    +0.000 F 
ATOM     17  F   UNL     1       1.595   1.377  19.794  0.00  0.00    +0.000 F 
ENDBRANCH   3  14
BRANCH   1  18
ATOM     18  N   UNL     1       2.317   6.777  17.988  0.00  0.00    +0.000 N 
ATOM     19  H   UNL     1       2.771   6.983  17.101  0.00  0.00    +0.000 HD
BRANCH  18  23
ATOM     20  C   UNL     1       0.832  10.307  19.915  0.00  0.00    +0.000 A 
ATOM     21  C   UNL     1       1.084  10.258  18.535  0.00  0.00    +0.000 A 
ATOM     22  C   UNL     1       1.618   9.126  17.904  0.00  0.00    +0.000 A 
ATOM     23  C   UNL     1       1.915   7.975  18.629  0.00  0.00    +0.000 A 
ATOM     24  C   UNL     1       1.676   7.996  20.004  0.00  0.00    +0.000 A 
ATOM     25  C   UNL     1       1.163   9.147  20.635  0.00  0.00    +0.000 A 
BRANCH  20  27
ATOM     26  C   UNL     1       0.499  12.758  19.984  0.00  0.00    +0.000 C 
ATOM     27  N   UNL     1       0.254  11.422  20.517  0.00  0.00    +0.000 N 
ATOM     28  C   UNL     1      -0.296  11.334  21.866  0.00  0.00    +0.000 C 
ENDBRANCH  20  27
ENDBRANCH  18  23
ENDBRANCH   1  18
BRANCH   4  29
ATOM     29  C   UNL     1       4.491   2.185  20.526  0.00  0.00    +0.000 C 
ATOM     30  N   UNL     1       5.020   1.344  21.132  0.00  0.00    +0.000 NA
ENDBRANCH   4  29
TORSDOF 5
ENDMDL
MODEL 5
REMARK VINA RESULT:      -7.7      5.193      9.715
REMARK  Name = 
REMARK  7 active torsions:
REMARK  status: ('A' for Active; 'I' for Inactive)
REMARK    1  A    between atoms: C_1  and  N_2
REMARK    2  A    between atoms: N_2  and  C_3
REMARK    3  A    between atoms: N_2  and  C_4
REMARK    4  A    between atoms: C_7  and  N_8
REMARK    5  A    between atoms: N_8  and  C_9
REMARK    6  A    between atoms: C_11  and  C_12
REMARK    7  A    between atoms: C_16  and  C_17
REMARK                            x       y       z     vdW  Elec       q    Type
REMARK                         _______ _______ _______ _____ _____    ______ ____
ROOT
ATOM      1  C   UNL     1      -0.986  11.652  19.792  0.00  0.00    +0.000 A 
ATOM      2  C   UNL     1      -1.029  12.221  21.021  0.00  0.00    +0.000 A 
ATOM      3  C   UNL     1      -2.297  12.581  21.665  0.00  0.00    +0.000 A 
ATOM      4  C   UNL     1      -3.465  12.410  21.005  0.00  0.00    +0.000 A 
ATOM      5  C   UNL     1      -3.428  11.996  19.645  0.00  0.00    +0.000 A 
ATOM      6  N   UNL     1      -4.347  12.123  18.714  0.00  0.00    +0.000 NA
ATOM      7  C   UNL     1      -3.832  11.505  17.615  0.00  0.00    +0.000 A 
ATOM      8  C   UNL     1      -4.421  11.354  16.353  0.00  0.00    +0.000 A 
ATOM      9  C   UNL     1      -3.806  10.515  15.426  0.00  0.00    +0.000 A 
ATOM     10  C   UNL     1      -2.632   9.839  15.759  0.00  0.00    +0.000 A 
ATOM     11  C   UNL     1      -1.975  10.056  16.983  0.00  0.00    +0.000 A 
ATOM     12  C   UNL     1      -2.579  10.950  17.882  0.00  0.00    +0.000 A 
ATOM     13  N   UNL     1      -2.231  11.500  19.115  0.00  0.00    +0.000 N 
ENDROOT
BRANCH   3  14
ATOM     14  C   UNL     1      -2.254  13.199  23.034  0.00  0.00    +0.000 C 
ATOM     15  F   UNL     1      -2.970  12.503  23.952  0.00  0.00    +0.000 F 
ATOM     16  F   UNL     1      -0.982  13.258  23.508  0.00  0.00    +0.000 F 
ATOM     17  F   UNL     1      -2.742  14.463  23.030  0.00  0.00    +0.000 F 
ENDBRANCH   3  14
BRANCH   1  18
ATOM     18  N   UNL     1       0.225  11.393  19.151  0.00  0.00    +0.000 N 
ATOM     19  H   UNL     1       0.280  11.741  18.197  0.00  0.00    +0.000 HD
BRANCH  18  23
ATOM     20  C   UNL     1       2.161   7.577  19.423  0.00  0.00    +0.000 A 
ATOM     21  C   UNL     1       1.506   8.164  20.518  0.00  0.00    +0.000 A 
ATOM     22  C   UNL     1       0.916   9.433  20.454  0.00  0.00    +0.000 A 
ATOM     23  C   UNL     1       0.940  10.176  19.276  0.00  0.00    +0.000 A 
ATOM     24  C   UNL     1       1.585   9.618  18.171  0.00  0.00    +0.000 A 
ATOM     25  C   UNL     1       2.200   8.351  18.252  0.00  0.00    +0.000 A 
BRANCH  20  27
ATOM     26  C   UNL     1       3.620   5.826  18.461  0.00  0.00    +0.000 C 
ATOM     27  N   UNL     1       2.698   6.294  19.490  0.00  0.00    +0.000 N 
ATOM     28  C   UNL     1       2.098   5.285  20.356  0.00  0.00    +0.000 C 
ENDBRANCH  20  27
ENDBRANCH  18  23
ENDBRANCH   1  18
BRANCH   4  29
ATOM     29  C   UNL     1      -4.732  12.638  21.627  0.00  0.00    +0.000 C 
ATOM     30  N   UNL     1      -5.744  12.761  22.188  0.00  0.00    +0.000 NA
ENDBRANCH   4  29
TORSDOF 5
ENDMDL
MODEL 6
REMARK VINA RESULT:      -7.5      3.227      4.945
REMARK  Name = 
REMARK  7 active torsions:
REMARK  status: ('A' for Active; 'I' for Inactive)
REMARK    1  A    between atoms: C_1  and  N_2
REMARK    2  A    between atoms: N_2  and  C_3
REMARK    3  A    between atoms: N_2  and  C_4
REMARK    4  A    between atoms: C_7  and  N_8
REMARK    5  A    between atoms: N_8  and  C_9
REMARK    6  A    between atoms: C_11  and  C_12
REMARK    7  A    between atoms: C_16  and  C_17
REMARK                            x       y       z     vdW  Elec       q    Type
REMARK                         _______ _______ _______ _____ _____    ______ ____
ROOT
ATOM      1  C   UNL     1       2.840   5.732  18.707  0.00  0.00    +0.000 A 
ATOM      2  C   UNL     1       2.026   4.818  19.288  0.00  0.00    +0.000 A 
ATOM      3  C   UNL     1       2.552   3.606  19.926  0.00  0.00    +0.000 A 
ATOM      4  C   UNL     1       3.878   3.341  19.888  0.00  0.00    +0.000 A 
ATOM      5  C   UNL     1       4.723   4.187  19.118  0.00  0.00    +0.000 A 
ATOM      6  N   UNL     1       5.916   3.941  18.626  0.00  0.00    +0.000 NA
ATOM      7  C   UNL     1       6.305   5.102  18.029  0.00  0.00    +0.000 A 
ATOM      8  C   UNL     1       7.506   5.370  17.361  0.00  0.00    +0.000 A 
ATOM      9  C   UNL     1       7.786   6.685  16.995  0.00  0.00    +0.000 A 
ATOM     10  C   UNL     1       6.887   7.708  17.300  0.00  0.00    +0.000 A 
ATOM     11  C   UNL     1       5.634   7.442  17.880  0.00  0.00    +0.000 A 
ATOM     12  C   UNL     1       5.344   6.103  18.189  0.00  0.00    +0.000 A 
ATOM     13  N   UNL     1       4.229   5.417  18.667  0.00  0.00    +0.000 N 
ENDROOT
BRANCH   3  14
ATOM     14  C   UNL     1       1.579   2.649  20.556  0.00  0.00    +0.000 C 
ATOM     15  F   UNL     1       1.575   1.431  19.961  0.00  0.00    +0.000 F 
ATOM     16  F   UNL     1       1.878   2.434  21.863  0.00  0.00    +0.000 F 
ATOM     17  F   UNL     1       0.309   3.118  20.504  0.00  0.00    +0.000 F 
ENDBRANCH   3  14
BRANCH   1  18
ATOM     18  N   UNL     1       2.326   6.837  18.027  0.00  0.00    +0.000 N 
ATOM     19  H   UNL     1       2.854   7.105  17.200  0.00  0.00    +0.000 HD
BRANCH  18  23
ATOM     20  C   UNL     1       0.989  10.406  19.990  0.00  0.00    +0.000 A 
ATOM     21  C   UNL     1       1.222   9.210  20.688  0.00  0.00    +0.000 A 
ATOM     22  C   UNL     1       1.610   8.025  20.049  0.00  0.00    +0.000 A 
ATOM     23  C   UNL     1       1.797   7.983  18.670  0.00  0.00    +0.000 A 
ATOM     24  C   UNL     1       1.570   9.157  17.950  0.00  0.00    +0.000 A 
ATOM     25  C   UNL     1       1.156  10.338  18.597  0.00  0.00    +0.000 A 
BRANCH  20  27
ATOM     26  C   UNL     1      -0.698  11.788  21.158  0.00  0.00    +0.000 C 
ATOM     27  N   UNL     1       0.653  11.587  20.648  0.00  0.00    +0.000 N 
ATOM     28  C   UNL     1       1.504  12.766  20.530  0.00  0.00    +0.000 C 
ENDBRANCH  20  27
ENDBRANCH  18  23
ENDBRANCH   1  18
BRANCH   4  29
ATOM     29  C   UNL     1       4.454   2.236  20.589  0.00  0.00    +0.000 C 
ATOM     30  N   UNL     1       5.000   1.376  21.151  0.00  0.00    +0.000 NA
ENDBRANCH   4  29
TORSDOF 5
ENDMDL
MODEL 7
REMARK VINA RESULT:      -7.5      3.202      4.938
REMARK  Name = 
REMARK  7 active torsions:
REMARK  status: ('A' for Active; 'I' for Inactive)
REMARK    1  A    between atoms: C_1  and  N_2
REMARK    2  A    between atoms: N_2  and  C_3
REMARK    3  A    between atoms: N_2  and  C_4
REMARK    4  A    between atoms: C_7  and  N_8
REMARK    5  A    between atoms: N_8  and  C_9
REMARK    6  A    between atoms: C_11  and  C_12
REMARK    7  A    between atoms: C_16  and  C_17
REMARK                            x       y       z     vdW  Elec       q    Type
REMARK                         _______ _______ _______ _____ _____    ______ ____
ROOT
ATOM      1  C   UNL     1       2.974   6.103  18.599  0.00  0.00    +0.000 A 
ATOM      2  C   UNL     1       1.984   5.295  19.051  0.00  0.00    +0.000 A 
ATOM      3  C   UNL     1       2.131   3.837  19.092  0.00  0.00    +0.000 A 
ATOM      4  C   UNL     1       3.253   3.255  18.609  0.00  0.00    +0.000 A 
ATOM      5  C   UNL     1       4.218   4.069  17.955  0.00  0.00    +0.000 A 
ATOM      6  N   UNL     1       5.156   3.720  17.103  0.00  0.00    +0.000 NA
ATOM      7  C   UNL     1       5.840   4.867  16.833  0.00  0.00    +0.000 A 
ATOM      8  C   UNL     1       6.942   5.036  15.987  0.00  0.00    +0.000 A 
ATOM      9  C   UNL     1       7.617   6.256  16.005  0.00  0.00    +0.000 A 
ATOM     10  C   UNL     1       7.199   7.278  16.859  0.00  0.00    +0.000 A 
ATOM     11  C   UNL     1       6.036   7.160  17.641  0.00  0.00    +0.000 A 
ATOM     12  C   UNL     1       5.336   5.945  17.566  0.00  0.00    +0.000 A 
ATOM     13  N   UNL     1       4.135   5.460  18.081  0.00  0.00    +0.000 N 
ENDROOT
BRANCH   3  14
ATOM     14  C   UNL     1       0.987   3.016  19.618  0.00  0.00    +0.000 C 
ATOM     15  F   UNL     1       1.367   2.124  20.565  0.00  0.00    +0.000 F 
ATOM     16  F   UNL     1       0.041   3.803  20.194  0.00  0.00    +0.000 F 
ATOM     17  F   UNL     1       0.380   2.311  18.633  0.00  0.00    +0.000 F 
ENDBRANCH   3  14
BRANCH   1  18
ATOM     18  N   UNL     1       2.793   7.481  18.482  0.00  0.00    +0.000 N 
ATOM     19  H   UNL     1       3.653   8.009  18.346  0.00  0.00    +0.000 HD
BRANCH  18  23
ATOM     20  C   UNL     1       0.218   9.919  20.892  0.00  0.00    +0.000 A 
ATOM     21  C   UNL     1       0.873   8.788  21.405  0.00  0.00    +0.000 A 
ATOM     22  C   UNL     1       1.676   7.955  20.613  0.00  0.00    +0.000 A 
ATOM     23  C   UNL     1       1.873   8.225  19.262  0.00  0.00    +0.000 A 
ATOM     24  C   UNL     1       1.232   9.343  18.724  0.00  0.00    +0.000 A 
ATOM     25  C   UNL     1       0.405  10.160  19.521  0.00  0.00    +0.000 A 
BRANCH  20  27
ATOM     26  C   UNL     1      -0.862  10.372  23.072  0.00  0.00    +0.000 C 
ATOM     27  N   UNL     1      -0.535  10.763  21.705  0.00  0.00    +0.000 N 
ATOM     28  C   UNL     1      -1.304  11.858  21.123  0.00  0.00    +0.000 C 
ENDBRANCH  20  27
ENDBRANCH  18  23
ENDBRANCH   1  18
BRANCH   4  29
ATOM     29  C   UNL     1       3.494   1.851  18.727  0.00  0.00    +0.000 C 
ATOM     30  N   UNL     1       3.746   0.715  18.759  0.00  0.00    +0.000 NA
ENDBRANCH   4  29
TORSDOF 5
ENDMDL
MODEL 8
REMARK VINA RESULT:      -7.4      3.277      4.942
REMARK  Name = 
REMARK  7 active torsions:
REMARK  status: ('A' for Active; 'I' for Inactive)
REMARK    1  A    between atoms: C_1  and  N_2
REMARK    2  A    between atoms: N_2  and  C_3
REMARK    3  A    between atoms: N_2  and  C_4
REMARK    4  A    between atoms: C_7  and  N_8
REMARK    5  A    between atoms: N_8  and  C_9
REMARK    6  A    between atoms: C_11  and  C_12
REMARK    7  A    between atoms: C_16  and  C_17
REMARK                            x       y       z     vdW  Elec       q    Type
REMARK                         _______ _______ _______ _____ _____    ______ ____
ROOT
ATOM      1  C   UNL     1       3.132   6.084  18.464  0.00  0.00    +0.000 A 
ATOM      2  C   UNL     1       2.121   5.378  19.028  0.00  0.00    +0.000 A 
ATOM      3  C   UNL     1       2.157   3.914  19.121  0.00  0.00    +0.000 A 
ATOM      4  C   UNL     1       3.186   3.225  18.578  0.00  0.00    +0.000 A 
ATOM      5  C   UNL     1       4.156   3.932  17.815  0.00  0.00    +0.000 A 
ATOM      6  N   UNL     1       4.991   3.476  16.909  0.00  0.00    +0.000 NA
ATOM      7  C   UNL     1       5.738   4.552  16.536  0.00  0.00    +0.000 A 
ATOM      8  C   UNL     1       6.778   4.599  15.599  0.00  0.00    +0.000 A 
ATOM      9  C   UNL     1       7.545   5.759  15.511  0.00  0.00    +0.000 A 
ATOM     10  C   UNL     1       7.280   6.844  16.348  0.00  0.00    +0.000 A 
ATOM     11  C   UNL     1       6.179   6.850  17.223  0.00  0.00    +0.000 A 
ATOM     12  C   UNL     1       5.383   5.694  17.257  0.00  0.00    +0.000 A 
ATOM     13  N   UNL     1       4.193   5.330  17.885  0.00  0.00    +0.000 N 
ENDROOT
BRANCH   3  14
ATOM     14  C   UNL     1       0.999   3.211  19.771  0.00  0.00    +0.000 C 
ATOM     15  F   UNL     1       0.097   4.066  20.314  0.00  0.00    +0.000 F 
ATOM     16  F   UNL     1       0.315   2.456  18.873  0.00  0.00    +0.000 F 
ATOM     17  F   UNL     1       1.406   2.385  20.765  0.00  0.00    +0.000 F 
ENDBRANCH   3  14
BRANCH   1  18
ATOM     18  N   UNL     1       3.051   7.467  18.301  0.00  0.00    +0.000 N 
ATOM     19  H   UNL     1       3.938   7.955  18.400  0.00  0.00    +0.000 HD
BRANCH  18  23
ATOM     20  C   UNL     1       0.026  10.082  19.848  0.00  0.00    +0.000 A 
ATOM     21  C   UNL     1       0.721   9.176  20.665  0.00  0.00    +0.000 A 
ATOM     22  C   UNL     1       1.675   8.282  20.161  0.00  0.00    +0.000 A 
ATOM     23  C   UNL     1       1.990   8.260  18.805  0.00  0.00    +0.000 A 
ATOM     24  C   UNL     1       1.313   9.149  17.968  0.00  0.00    +0.000 A 
ATOM     25  C   UNL     1       0.336  10.027  18.479  0.00  0.00    +0.000 A 
BRANCH  20  27
ATOM     26  C   UNL     1      -1.768  11.748  19.490  0.00  0.00    +0.000 C 
ATOM     27  N   UNL     1      -0.882  10.998  20.373  0.00  0.00    +0.000 N 
ATOM     28  C   UNL     1      -0.730  11.489  21.739  0.00  0.00    +0.000 C 
ENDBRANCH  20  27
ENDBRANCH  18  23
ENDBRANCH   1  18
BRANCH   4  29
ATOM     29  C   UNL     1       3.325   1.811  18.739  0.00  0.00    +0.000 C 
ATOM     30  N   UNL     1       3.504   0.676  18.923  0.00  0.00    +0.000 NA
ENDBRANCH   4  29
TORSDOF 5
ENDMDL
