MODEL 1
REMARK VINA RESULT:      -9.0      0.000      0.000
REMARK  Name = 
REMARK  7 active torsions:
REMARK  status: ('A' for Active; 'I' for Inactive)
REMARK    1  A    between atoms: C_1  and  C_2
REMARK    2  A    between atoms: C_7  and  C_8
REMARK    3  A    between atoms: C_12  and  O_13
REMARK    4  A    between atoms: O_13  and  C_14
REMARK    5  A    between atoms: C_18  and  S_19
REMARK    6  A    between atoms: S_19  and  C_20
REMARK    7  A    between atoms: C_25  and  C_26
REMARK                            x       y       z     vdW  Elec       q    Type
REMARK                         _______ _______ _______ _____ _____    ______ ____
ROOT
ATOM      1  C   UNL     1       0.323   9.777  19.116  0.00  0.00    +0.000 A 
ATOM      2  C   UNL     1       1.241   9.984  18.066  0.00  0.00    +0.000 A 
ATOM      3  C   UNL     1       2.240   9.057  17.769  0.00  0.00    +0.000 A 
ATOM      4  C   UNL     1       2.450   7.982  18.616  0.00  0.00    +0.000 A 
ATOM      5  C   UNL     1       1.721   7.886  19.801  0.00  0.00    +0.000 A 
ATOM      6  C   UNL     1       0.605   8.712  19.995  0.00  0.00    +0.000 A 
ENDROOT
BRANCH   1  13
ATOM      7  C   UNL     1      -5.296  12.329  17.565  0.00  0.00    +0.000 C 
ATOM      8  C   UNL     1      -4.059  11.488  17.377  0.00  0.00    +0.000 A 
ATOM      9  C   UNL     1      -3.938  10.730  16.205  0.00  0.00    +0.000 A 
ATOM     10  C   UNL     1      -2.863   9.882  16.048  0.00  0.00    +0.000 A 
ATOM     11  C   UNL     1      -1.906   9.800  17.056  0.00  0.00    +0.000 A 
ATOM     12  C   UNL     1      -1.928  10.622  18.221  0.00  0.00    +0.000 A 
ATOM     13  C   UNL     1      -0.894  10.644  19.252  0.00  0.00    +0.000 A 
ATOM     14  C   UNL     1      -1.115  11.479  20.373  0.00  0.00    +0.000 A 
ATOM     15  C   UNL     1      -2.296  12.209  20.420  0.00  0.00    +0.000 A 
ATOM     16  N   UNL     1      -3.240  12.224  19.455  0.00  0.00    +0.000 NA
ATOM     17  C   UNL     1      -3.066  11.457  18.372  0.00  0.00    +0.000 A 
BRANCH  14  18
ATOM     18  C   UNL     1      -0.251  11.673  21.563  0.00  0.00    +0.000 C 
ATOM     19  N   UNL     1      -0.607  11.095  22.747  0.00  0.00    +0.000 N 
ATOM     20  O   UNL     1       0.791  12.319  21.484  0.00  0.00    +0.000 OA
ATOM     21  H   UNL     1      -1.473  10.603  22.900  0.00  0.00    +0.000 HD
ATOM     22  H   UNL     1      -0.024  11.306  23.550  0.00  0.00    +0.000 HD
ENDBRANCH  14  18
ENDBRANCH   1  13
BRANCH   5  23
ATOM     23  O   UNL     1       2.031   7.002  20.815  0.00  0.00    +0.000 OA
BRANCH  23  24
ATOM     24  C   UNL     1       2.012   5.648  20.539  0.00  0.00    +0.000 A 
ATOM     25  C   UNL     1       0.758   5.037  20.532  0.00  0.00    +0.000 A 
ATOM     26  C   UNL     1       0.628   3.699  20.149  0.00  0.00    +0.000 A 
ATOM     27  C   UNL     1       1.753   2.968  19.763  0.00  0.00    +0.000 A 
ATOM     28  C   UNL     1       3.012   3.565  19.829  0.00  0.00    +0.000 A 
ATOM     29  C   UNL     1       3.155   4.889  20.256  0.00  0.00    +0.000 A 
BRANCH  28  30
ATOM     30  S   UNL     1       4.437   2.698  19.215  0.00  0.00    +0.000 S 
ATOM     31  C   UNL     1       3.748   1.470  18.142  0.00  0.00    +0.000 C 
ATOM     32  O   UNL     1       5.201   3.629  18.407  0.00  0.00    +0.000 OA
ATOM     33  O   UNL     1       5.051   2.021  20.342  0.00  0.00    +0.000 OA
ENDBRANCH  28  30
ENDBRANCH  23  24
ENDBRANCH   5  23
TORSDOF 5
ENDMDL
MODEL 2
REMARK VINA RESULT:      -8.7      0.993      1.279
REMARK  Name = 
REMARK  7 active torsions:
REMARK  status: ('A' for Active; 'I' for Inactive)
REMARK    1  A    between atoms: C_1  and  C_2
REMARK    2  A    between atoms: C_7  and  C_8
REMARK    3  A    between atoms: C_12  and  O_13
REMARK    4  A    between atoms: O_13  and  C_14
REMARK    5  A    between atoms: C_18  and  S_19
REMARK    6  A    between atoms: S_19  and  C_20
REMARK    7  A    between atoms: C_25  and  C_26
REMARK                            x       y       z     vdW  Elec       q    Type
REMARK                         _______ _______ _______ _____ _____    ______ ____
ROOT
ATOM      1  C   UNL     1       0.108  10.086  19.199  0.00  0.00    +0.000 A 
ATOM      2  C   UNL     1       1.067  10.408  18.216  0.00  0.00    +0.000 A 
ATOM      3  C   UNL     1       2.100   9.534  17.882  0.00  0.00    +0.000 A 
ATOM      4  C   UNL     1       2.299   8.388  18.635  0.00  0.00    +0.000 A 
ATOM      5  C   UNL     1       1.521   8.168  19.771  0.00  0.00    +0.000 A 
ATOM      6  C   UNL     1       0.378   8.949  19.989  0.00  0.00    +0.000 A 
ENDROOT
BRANCH   1  13
ATOM      7  C   UNL     1      -5.617  12.452  17.749  0.00  0.00    +0.000 C 
ATOM      8  C   UNL     1      -4.356  11.654  17.538  0.00  0.00    +0.000 A 
ATOM      9  C   UNL     1      -4.230  10.903  16.362  0.00  0.00    +0.000 A 
ATOM     10  C   UNL     1      -3.130  10.092  16.185  0.00  0.00    +0.000 A 
ATOM     11  C   UNL     1      -2.154  10.040  17.176  0.00  0.00    +0.000 A 
ATOM     12  C   UNL     1      -2.184  10.857  18.344  0.00  0.00    +0.000 A 
ATOM     13  C   UNL     1      -1.134  10.911  19.358  0.00  0.00    +0.000 A 
ATOM     14  C   UNL     1      -1.364  11.735  20.485  0.00  0.00    +0.000 A 
ATOM     15  C   UNL     1      -2.568  12.425  20.554  0.00  0.00    +0.000 A 
ATOM     16  N   UNL     1      -3.527  12.411  19.604  0.00  0.00    +0.000 NA
ATOM     17  C   UNL     1      -3.347  11.653  18.516  0.00  0.00    +0.000 A 
BRANCH  14  18
ATOM     18  C   UNL     1      -0.488  11.954  21.661  0.00  0.00    +0.000 C 
ATOM     19  N   UNL     1      -0.810  11.370  22.852  0.00  0.00    +0.000 N 
ATOM     20  O   UNL     1       0.536  12.627  21.565  0.00  0.00    +0.000 OA
ATOM     21  H   UNL     1      -1.661  10.858  23.019  0.00  0.00    +0.000 HD
ATOM     22  H   UNL     1      -0.221  11.599  23.645  0.00  0.00    +0.000 HD
ENDBRANCH  14  18
ENDBRANCH   1  13
BRANCH   5  23
ATOM     23  O   UNL     1       1.808   7.200  20.712  0.00  0.00    +0.000 OA
BRANCH  23  24
ATOM     24  C   UNL     1       2.229   5.958  20.275  0.00  0.00    +0.000 A 
ATOM     25  C   UNL     1       1.385   4.884  20.560  0.00  0.00    +0.000 A 
ATOM     26  C   UNL     1       1.667   3.612  20.056  0.00  0.00    +0.000 A 
ATOM     27  C   UNL     1       2.796   3.408  19.259  0.00  0.00    +0.000 A 
ATOM     28  C   UNL     1       3.669   4.471  19.027  0.00  0.00    +0.000 A 
ATOM     29  C   UNL     1       3.417   5.737  19.566  0.00  0.00    +0.000 A 
BRANCH  28  30
ATOM     30  S   UNL     1       5.033   4.267  17.906  0.00  0.00    +0.000 S 
ATOM     31  C   UNL     1       5.122   5.823  17.067  0.00  0.00    +0.000 C 
ATOM     32  O   UNL     1       6.235   4.112  18.703  0.00  0.00    +0.000 OA
ATOM     33  O   UNL     1       4.651   3.253  16.940  0.00  0.00    +0.000 OA
ENDBRANCH  28  30
ENDBRANCH  23  24
ENDBRANCH   5  23
TORSDOF 5
ENDMDL
MODEL 3
REMARK VINA RESULT:      -8.5      2.041      2.552
REMARK  Name = 
REMARK  7 active torsions:
REMARK  status: ('A' for Active; 'I' for Inactive)
REMARK    1  A    between atoms: C_1  and  C_2
REMARK    2  A    between atoms: C_7  and  C_8
REMARK    3  A    between atoms: C_12  and  O_13
REMARK    4  A    between atoms: O_13  and  C_14
REMARK    5  A    between atoms: C_18  and  S_19
REMARK    6  A    between atoms: S_19  and  C_20
REMARK    7  A    between atoms: C_25  and  C_26
REMARK                            x       y       z     vdW  Elec       q    Type
REMARK                         _______ _______ _______ _____ _____    ______ ____
ROOT
ATOM      1  C   UNL     1      -0.092   9.665  19.735  0.00  0.00    +0.000 A 
ATOM      2  C   UNL     1       0.038   8.893  20.908  0.00  0.00    +0.000 A 
ATOM      3  C   UNL     1       1.183   8.141  21.170  0.00  0.00    +0.000 A 
ATOM      4  C   UNL     1       2.156   8.011  20.193  0.00  0.00    +0.000 A 
ATOM      5  C   UNL     1       1.939   8.559  18.929  0.00  0.00    +0.000 A 
ATOM      6  C   UNL     1       0.882   9.458  18.737  0.00  0.00    +0.000 A 
ENDROOT
BRANCH   1  13
ATOM      7  C   UNL     1      -5.161  12.516  17.152  0.00  0.00    +0.000 C 
ATOM      8  C   UNL     1      -4.022  11.532  17.241  0.00  0.00    +0.000 A 
ATOM      9  C   UNL     1      -3.869  10.594  16.212  0.00  0.00    +0.000 A 
ATOM     10  C   UNL     1      -2.894   9.624  16.311  0.00  0.00    +0.000 A 
ATOM     11  C   UNL     1      -2.068   9.601  17.431  0.00  0.00    +0.000 A 
ATOM     12  C   UNL     1      -2.115  10.590  18.457  0.00  0.00    +0.000 A 
ATOM     13  C   UNL     1      -1.202  10.665  19.594  0.00  0.00    +0.000 A 
ATOM     14  C   UNL     1      -1.440  11.681  20.550  0.00  0.00    +0.000 A 
ATOM     15  C   UNL     1      -2.521  12.529  20.346  0.00  0.00    +0.000 A 
ATOM     16  N   UNL     1      -3.347  12.492  19.279  0.00  0.00    +0.000 NA
ATOM     17  C   UNL     1      -3.153  11.553  18.345  0.00  0.00    +0.000 A 
BRANCH  14  18
ATOM     18  C   UNL     1      -0.691  11.965  21.798  0.00  0.00    +0.000 C 
ATOM     19  N   UNL     1      -1.235  11.608  22.998  0.00  0.00    +0.000 N 
ATOM     20  O   UNL     1       0.420  12.489  21.759  0.00  0.00    +0.000 OA
ATOM     21  H   UNL     1      -2.162  11.232  23.110  0.00  0.00    +0.000 HD
ATOM     22  H   UNL     1      -0.721  11.880  23.830  0.00  0.00    +0.000 HD
ENDBRANCH  14  18
ENDBRANCH   1  13
BRANCH   5  23
ATOM     23  O   UNL     1       2.725   8.270  17.832  0.00  0.00    +0.000 OA
BRANCH  23  24
ATOM     24  C   UNL     1       3.328   7.028  17.759  0.00  0.00    +0.000 A 
ATOM     25  C   UNL     1       2.479   5.924  17.846  0.00  0.00    +0.000 A 
ATOM     26  C   UNL     1       2.981   4.633  17.664  0.00  0.00    +0.000 A 
ATOM     27  C   UNL     1       4.336   4.440  17.388  0.00  0.00    +0.000 A 
ATOM     28  C   UNL     1       5.192   5.542  17.362  0.00  0.00    +0.000 A 
ATOM     29  C   UNL     1       4.704   6.833  17.589  0.00  0.00    +0.000 A 
BRANCH  28  30
ATOM     30  S   UNL     1       6.889   5.333  16.879  0.00  0.00    +0.000 S 
ATOM     31  C   UNL     1       6.783   4.457  15.345  0.00  0.00    +0.000 C 
ATOM     32  O   UNL     1       7.433   6.651  16.612  0.00  0.00    +0.000 OA
ATOM     33  O   UNL     1       7.514   4.461  17.856  0.00  0.00    +0.000 OA
ENDBRANCH  28  30
ENDBRANCH  23  24
ENDBRANCH   5  23
TORSDOF 5
ENDMDL
MODEL 4
REMARK VINA RESULT:      -8.4      1.785      1.976
REMARK  Name = 
REMARK  7 active torsions:
REMARK  status: ('A' for Active; 'I' for Inactive)
REMARK    1  A    between atoms: C_1  and  C_2
REMARK    2  A    between atoms: C_7  and  C_8
REMARK    3  A    between atoms: C_12  and  O_13
REMARK    4  A    between atoms: O_13  and  C_14
REMARK    5  A    between atoms: C_18  and  S_19
REMARK    6  A    between atoms: S_19  and  C_20
REMARK    7  A    between atoms: C_25  and  C_26
REMARK                            x       y       z     vdW  Elec       q    Type
REMARK                         _______ _______ _______ _____ _____    ______ ____
ROOT
ATOM      1  C   UNL     1       0.489  10.163  18.861  0.00  0.00    +0.000 A 
ATOM      2  C   UNL     1       1.518  10.754  18.099  0.00  0.00    +0.000 A 
ATOM      3  C   UNL     1       2.598  10.013  17.620  0.00  0.00    +0.000 A 
ATOM      4  C   UNL     1       2.762   8.700  18.029  0.00  0.00    +0.000 A 
ATOM      5  C   UNL     1       1.898   8.163  18.982  0.00  0.00    +0.000 A 
ATOM      6  C   UNL     1       0.721   8.848  19.313  0.00  0.00    +0.000 A 
ENDROOT
BRANCH   1  13
ATOM      7  C   UNL     1      -5.472  12.192  17.941  0.00  0.00    +0.000 C 
ATOM      8  C   UNL     1      -4.186  11.476  17.610  0.00  0.00    +0.000 A 
ATOM      9  C   UNL     1      -4.115  10.753  16.412  0.00  0.00    +0.000 A 
ATOM     10  C   UNL     1      -2.987  10.014  16.127  0.00  0.00    +0.000 A 
ATOM     11  C   UNL     1      -1.929  10.007  17.033  0.00  0.00    +0.000 A 
ATOM     12  C   UNL     1      -1.910  10.803  18.216  0.00  0.00    +0.000 A 
ATOM     13  C   UNL     1      -0.784  10.907  19.139  0.00  0.00    +0.000 A 
ATOM     14  C   UNL     1      -0.967  11.697  20.298  0.00  0.00    +0.000 A 
ATOM     15  C   UNL     1      -2.200  12.311  20.481  0.00  0.00    +0.000 A 
ATOM     16  N   UNL     1      -3.234  12.252  19.615  0.00  0.00    +0.000 NA
ATOM     17  C   UNL     1      -3.100  11.523  18.500  0.00  0.00    +0.000 A 
BRANCH  14  18
ATOM     18  C   UNL     1      -0.009  11.953  21.401  0.00  0.00    +0.000 C 
ATOM     19  N   UNL     1       0.589  13.176  21.495  0.00  0.00    +0.000 N 
ATOM     20  O   UNL     1       0.226  11.089  22.243  0.00  0.00    +0.000 OA
ATOM     21  H   UNL     1       0.491  13.908  20.811  0.00  0.00    +0.000 HD
ATOM     22  H   UNL     1       1.286  13.287  22.224  0.00  0.00    +0.000 HD
ENDBRANCH  14  18
ENDBRANCH   1  13
BRANCH   5  23
ATOM     23  O   UNL     1       2.130   6.966  19.628  0.00  0.00    +0.000 OA
BRANCH  23  24
ATOM     24  C   UNL     1       2.812   5.971  18.953  0.00  0.00    +0.000 A 
ATOM     25  C   UNL     1       2.033   4.955  18.398  0.00  0.00    +0.000 A 
ATOM     26  C   UNL     1       2.621   3.973  17.598  0.00  0.00    +0.000 A 
ATOM     27  C   UNL     1       3.994   4.004  17.344  0.00  0.00    +0.000 A 
ATOM     28  C   UNL     1       4.778   4.987  17.949  0.00  0.00    +0.000 A 
ATOM     29  C   UNL     1       4.203   5.946  18.788  0.00  0.00    +0.000 A 
BRANCH  28  30
ATOM     30  S   UNL     1       6.500   5.127  17.531  0.00  0.00    +0.000 S 
ATOM     31  C   UNL     1       6.614   4.326  15.957  0.00  0.00    +0.000 C 
ATOM     32  O   UNL     1       6.792   6.535  17.346  0.00  0.00    +0.000 OA
ATOM     33  O   UNL     1       7.245   4.339  18.495  0.00  0.00    +0.000 OA
ENDBRANCH  28  30
ENDBRANCH  23  24
ENDBRANCH   5  23
TORSDOF 5
ENDMDL
MODEL 5
REMARK VINA RESULT:      -8.4      1.060      1.238
REMARK  Name = 
REMARK  7 active torsions:
REMARK  status: ('A' for Active; 'I' for Inactive)
REMARK    1  A    between atoms: C_1  and  C_2
REMARK    2  A    between atoms: C_7  and  C_8
REMARK    3  A    between atoms: C_12  and  O_13
REMARK    4  A    between atoms: O_13  and  C_14
REMARK    5  A    between atoms: C_18  and  S_19
REMARK    6  A    between atoms: S_19  and  C_20
REMARK    7  A    between atoms: C_25  and  C_26
REMARK                            x       y       z     vdW  Elec       q    Type
REMARK                         _______ _______ _______ _____ _____    ______ ____
ROOT
ATOM      1  C   UNL     1       0.321   9.878  18.951  0.00  0.00    +0.000 A 
ATOM      2  C   UNL     1       1.220  10.149  17.898  0.00  0.00    +0.000 A 
ATOM      3  C   UNL     1       2.238   9.260  17.553  0.00  0.00    +0.000 A 
ATOM      4  C   UNL     1       2.486   8.158  18.355  0.00  0.00    +0.000 A 
ATOM      5  C   UNL     1       1.776   7.998  19.544  0.00  0.00    +0.000 A 
ATOM      6  C   UNL     1       0.642   8.787  19.784  0.00  0.00    +0.000 A 
ENDROOT
BRANCH   1  13
ATOM      7  C   UNL     1      -5.411  12.288  17.602  0.00  0.00    +0.000 C 
ATOM      8  C   UNL     1      -4.156  11.486  17.366  0.00  0.00    +0.000 A 
ATOM      9  C   UNL     1      -4.049  10.750  16.179  0.00  0.00    +0.000 A 
ATOM     10  C   UNL     1      -2.955   9.935  15.978  0.00  0.00    +0.000 A 
ATOM     11  C   UNL     1      -1.967   9.867  16.957  0.00  0.00    +0.000 A 
ATOM     12  C   UNL     1      -1.978  10.670  18.135  0.00  0.00    +0.000 A 
ATOM     13  C   UNL     1      -0.916  10.707  19.135  0.00  0.00    +0.000 A 
ATOM     14  C   UNL     1      -1.127  11.518  20.275  0.00  0.00    +0.000 A 
ATOM     15  C   UNL     1      -2.327  12.213  20.367  0.00  0.00    +0.000 A 
ATOM     16  N   UNL     1      -3.298  12.215  19.430  0.00  0.00    +0.000 NA
ATOM     17  C   UNL     1      -3.135  11.469  18.331  0.00  0.00    +0.000 A 
BRANCH  14  18
ATOM     18  C   UNL     1      -0.235  11.719  21.442  0.00  0.00    +0.000 C 
ATOM     19  N   UNL     1      -0.568  11.160  22.642  0.00  0.00    +0.000 N 
ATOM     20  O   UNL     1       0.812  12.355  21.331  0.00  0.00    +0.000 OA
ATOM     21  H   UNL     1      -1.435  10.680  22.821  0.00  0.00    +0.000 HD
ATOM     22  H   UNL     1       0.034  11.376  23.428  0.00  0.00    +0.000 HD
ENDBRANCH  14  18
ENDBRANCH   1  13
BRANCH   5  23
ATOM     23  O   UNL     1       2.122   7.084  20.518  0.00  0.00    +0.000 OA
BRANCH  23  24
ATOM     24  C   UNL     1       2.057   5.737  20.214  0.00  0.00    +0.000 A 
ATOM     25  C   UNL     1       1.138   4.983  20.945  0.00  0.00    +0.000 A 
ATOM     26  C   UNL     1       0.917   3.640  20.628  0.00  0.00    +0.000 A 
ATOM     27  C   UNL     1       1.611   3.046  19.571  0.00  0.00    +0.000 A 
ATOM     28  C   UNL     1       2.572   3.788  18.882  0.00  0.00    +0.000 A 
ATOM     29  C   UNL     1       2.831   5.118  19.225  0.00  0.00    +0.000 A 
BRANCH  28  30
ATOM     30  S   UNL     1       3.365   3.094  17.451  0.00  0.00    +0.000 S 
ATOM     31  C   UNL     1       4.818   4.085  17.256  0.00  0.00    +0.000 C 
ATOM     32  O   UNL     1       3.777   1.746  17.790  0.00  0.00    +0.000 OA
ATOM     33  O   UNL     1       2.495   3.336  16.314  0.00  0.00    +0.000 OA
ENDBRANCH  28  30
ENDBRANCH  23  24
ENDBRANCH   5  23
TORSDOF 5
ENDMDL
MODEL 6
REMARK VINA RESULT:      -8.3      1.360      1.619
REMARK  Name = 
REMARK  7 active torsions:
REMARK  status: ('A' for Active; 'I' for Inactive)
REMARK    1  A    between atoms: C_1  and  C_2
REMARK    2  A    between atoms: C_7  and  C_8
REMARK    3  A    between atoms: C_12  and  O_13
REMARK    4  A    between atoms: O_13  and  C_14
REMARK    5  A    between atoms: C_18  and  S_19
REMARK    6  A    between atoms: S_19  and  C_20
REMARK    7  A    between atoms: C_25  and  C_26
REMARK                            x       y       z     vdW  Elec       q    Type
REMARK                         _______ _______ _______ _____ _____    ______ ____
ROOT
ATOM      1  C   UNL     1       0.028  10.356  19.359  0.00  0.00    +0.000 A 
ATOM      2  C   UNL     1       0.955  10.727  18.362  0.00  0.00    +0.000 A 
ATOM      3  C   UNL     1       1.981   9.873  17.959  0.00  0.00    +0.000 A 
ATOM      4  C   UNL     1       2.208   8.698  18.655  0.00  0.00    +0.000 A 
ATOM      5  C   UNL     1       1.466   8.424  19.803  0.00  0.00    +0.000 A 
ATOM      6  C   UNL     1       0.327   9.188  20.089  0.00  0.00    +0.000 A 
ENDROOT
BRANCH   1  13
ATOM      7  C   UNL     1      -5.831  12.597  18.289  0.00  0.00    +0.000 C 
ATOM      8  C   UNL     1      -4.576  11.812  18.003  0.00  0.00    +0.000 A 
ATOM      9  C   UNL     1      -4.526  11.032  16.840  0.00  0.00    +0.000 A 
ATOM     10  C   UNL     1      -3.429  10.233  16.600  0.00  0.00    +0.000 A 
ATOM     11  C   UNL     1      -2.380  10.222  17.516  0.00  0.00    +0.000 A 
ATOM     12  C   UNL     1      -2.336  11.070  18.661  0.00  0.00    +0.000 A 
ATOM     13  C   UNL     1      -1.213  11.167  19.590  0.00  0.00    +0.000 A 
ATOM     14  C   UNL     1      -1.371  12.016  20.711  0.00  0.00    +0.000 A 
ATOM     15  C   UNL     1      -2.578  12.691  20.853  0.00  0.00    +0.000 A 
ATOM     16  N   UNL     1      -3.606  12.636  19.980  0.00  0.00    +0.000 NA
ATOM     17  C   UNL     1      -3.495  11.853  18.901  0.00  0.00    +0.000 A 
BRANCH  14  18
ATOM     18  C   UNL     1      -0.412  12.280  21.810  0.00  0.00    +0.000 C 
ATOM     19  N   UNL     1       0.427  13.353  21.721  0.00  0.00    +0.000 N 
ATOM     20  O   UNL     1      -0.387  11.564  22.809  0.00  0.00    +0.000 OA
ATOM     21  H   UNL     1       0.503  13.946  20.910  0.00  0.00    +0.000 HD
ATOM     22  H   UNL     1       1.111  13.460  22.462  0.00  0.00    +0.000 HD
ENDBRANCH  14  18
ENDBRANCH   1  13
BRANCH   5  23
ATOM     23  O   UNL     1       1.786   7.417  20.692  0.00  0.00    +0.000 OA
BRANCH  23  24
ATOM     24  C   UNL     1       2.131   6.177  20.189  0.00  0.00    +0.000 A 
ATOM     25  C   UNL     1       1.300   5.114  20.546  0.00  0.00    +0.000 A 
ATOM     26  C   UNL     1       1.501   3.847  19.991  0.00  0.00    +0.000 A 
ATOM     27  C   UNL     1       2.531   3.638  19.073  0.00  0.00    +0.000 A 
ATOM     28  C   UNL     1       3.396   4.689  18.766  0.00  0.00    +0.000 A 
ATOM     29  C   UNL     1       3.230   5.948  19.352  0.00  0.00    +0.000 A 
BRANCH  28  30
ATOM     30  S   UNL     1       4.625   4.482  17.499  0.00  0.00    +0.000 S 
ATOM     31  C   UNL     1       6.157   4.597  18.379  0.00  0.00    +0.000 C 
ATOM     32  O   UNL     1       4.498   3.132  16.983  0.00  0.00    +0.000 OA
ATOM     33  O   UNL     1       4.527   5.625  16.609  0.00  0.00    +0.000 OA
ENDBRANCH  28  30
ENDBRANCH  23  24
ENDBRANCH   5  23
TORSDOF 5
ENDMDL
MODEL 7
REMARK VINA RESULT:      -8.2      1.695      2.491
REMARK  Name = 
REMARK  7 active torsions:
REMARK  status: ('A' for Active; 'I' for Inactive)
REMARK    1  A    between atoms: C_1  and  C_2
REMARK    2  A    between atoms: C_7  and  C_8
REMARK    3  A    between atoms: C_12  and  O_13
REMARK    4  A    between atoms: O_13  and  C_14
REMARK    5  A    between atoms: C_18  and  S_19
REMARK    6  A    between atoms: S_19  and  C_20
REMARK    7  A    between atoms: C_25  and  C_26
REMARK                            x       y       z     vdW  Elec       q    Type
REMARK                         _______ _______ _______ _____ _____    ______ ____
ROOT
ATOM      1  C   UNL     1      -0.303   9.856  19.884  0.00  0.00    +0.000 A 
ATOM      2  C   UNL     1      -0.169   9.080  21.055  0.00  0.00    +0.000 A 
ATOM      3  C   UNL     1       0.990   8.354  21.327  0.00  0.00    +0.000 A 
ATOM      4  C   UNL     1       1.977   8.252  20.361  0.00  0.00    +0.000 A 
ATOM      5  C   UNL     1       1.763   8.802  19.097  0.00  0.00    +0.000 A 
ATOM      6  C   UNL     1       0.687   9.677  18.897  0.00  0.00    +0.000 A 
ENDROOT
BRANCH   1  13
ATOM      7  C   UNL     1      -5.422  12.587  17.272  0.00  0.00    +0.000 C 
ATOM      8  C   UNL     1      -4.261  11.629  17.368  0.00  0.00    +0.000 A 
ATOM      9  C   UNL     1      -4.083  10.692  16.342  0.00  0.00    +0.000 A 
ATOM     10  C   UNL     1      -3.088   9.744  16.448  0.00  0.00    +0.000 A 
ATOM     11  C   UNL     1      -2.266   9.742  17.572  0.00  0.00    +0.000 A 
ATOM     12  C   UNL     1      -2.340  10.733  18.595  0.00  0.00    +0.000 A 
ATOM     13  C   UNL     1      -1.434  10.830  19.736  0.00  0.00    +0.000 A 
ATOM     14  C   UNL     1      -1.698  11.843  20.688  0.00  0.00    +0.000 A 
ATOM     15  C   UNL     1      -2.798  12.667  20.477  0.00  0.00    +0.000 A 
ATOM     16  N   UNL     1      -3.618  12.608  19.406  0.00  0.00    +0.000 NA
ATOM     17  C   UNL     1      -3.398  11.672  18.476  0.00  0.00    +0.000 A 
BRANCH  14  18
ATOM     18  C   UNL     1      -0.962  12.148  21.939  0.00  0.00    +0.000 C 
ATOM     19  N   UNL     1      -1.486  11.750  23.135  0.00  0.00    +0.000 N 
ATOM     20  O   UNL     1       0.123  12.724  21.905  0.00  0.00    +0.000 OA
ATOM     21  H   UNL     1      -2.394  11.329  23.243  0.00  0.00    +0.000 HD
ATOM     22  H   UNL     1      -0.984  12.036  23.969  0.00  0.00    +0.000 HD
ENDBRANCH  14  18
ENDBRANCH   1  13
BRANCH   5  23
ATOM     23  O   UNL     1       2.568   8.538  18.008  0.00  0.00    +0.000 OA
BRANCH  23  24
ATOM     24  C   UNL     1       3.007   7.242  17.809  0.00  0.00    +0.000 A 
ATOM     25  C   UNL     1       4.247   7.100  17.185  0.00  0.00    +0.000 A 
ATOM     26  C   UNL     1       4.826   5.835  17.048  0.00  0.00    +0.000 A 
ATOM     27  C   UNL     1       4.169   4.706  17.541  0.00  0.00    +0.000 A 
ATOM     28  C   UNL     1       2.902   4.847  18.109  0.00  0.00    +0.000 A 
ATOM     29  C   UNL     1       2.297   6.103  18.208  0.00  0.00    +0.000 A 
BRANCH  28  30
ATOM     30  S   UNL     1       2.110   3.445  18.864  0.00  0.00    +0.000 S 
ATOM     31  C   UNL     1       1.254   4.143  20.247  0.00  0.00    +0.000 C 
ATOM     32  O   UNL     1       1.124   2.943  17.926  0.00  0.00    +0.000 OA
ATOM     33  O   UNL     1       3.158   2.577  19.370  0.00  0.00    +0.000 OA
ENDBRANCH  28  30
ENDBRANCH  23  24
ENDBRANCH   5  23
TORSDOF 5
ENDMDL
MODEL 8
REMARK VINA RESULT:      -8.1      2.983      4.494
REMARK  Name = 
REMARK  7 active torsions:
REMARK  status: ('A' for Active; 'I' for Inactive)
REMARK    1  A    between atoms: C_1  and  C_2
REMARK    2  A    between atoms: C_7  and  C_8
REMARK    3  A    between atoms: C_12  and  O_13
REMARK    4  A    between atoms: O_13  and  C_14
REMARK    5  A    between atoms: C_18  and  S_19
REMARK    6  A    between atoms: S_19  and  C_20
REMARK    7  A    between atoms: C_25  and  C_26
REMARK                            x       y       z     vdW  Elec       q    Type
REMARK                         _______ _______ _______ _____ _____    ______ ____
ROOT
ATOM      1  C   UNL     1       0.829   9.940  19.331  0.00  0.00    +0.000 A 
ATOM      2  C   UNL     1       0.656   9.305  20.578  0.00  0.00    +0.000 A 
ATOM      3  C   UNL     1       1.353   8.146  20.917  0.00  0.00    +0.000 A 
ATOM      4  C   UNL     1       2.115   7.500  19.958  0.00  0.00    +0.000 A 
ATOM      5  C   UNL     1       2.106   7.966  18.643  0.00  0.00    +0.000 A 
ATOM      6  C   UNL     1       1.557   9.223  18.359  0.00  0.00    +0.000 A 
ENDROOT
BRANCH   1  13
ATOM      7  C   UNL     1       0.546  16.293  19.539  0.00  0.00    +0.000 C 
ATOM      8  C   UNL     1       1.092  14.922  19.844  0.00  0.00    +0.000 A 
ATOM      9  C   UNL     1       2.259  14.824  20.613  0.00  0.00    +0.000 A 
ATOM     10  C   UNL     1       2.833  13.589  20.830  0.00  0.00    +0.000 A 
ATOM     11  C   UNL     1       2.234  12.455  20.287  0.00  0.00    +0.000 A 
ATOM     12  C   UNL     1       0.995  12.487  19.583  0.00  0.00    +0.000 A 
ATOM     13  C   UNL     1       0.280  11.315  19.087  0.00  0.00    +0.000 A 
ATOM     14  C   UNL     1      -0.908  11.542  18.353  0.00  0.00    +0.000 A 
ATOM     15  C   UNL     1      -1.306  12.858  18.149  0.00  0.00    +0.000 A 
ATOM     16  N   UNL     1      -0.673  13.946  18.635  0.00  0.00    +0.000 NA
ATOM     17  C   UNL     1       0.449  13.777  19.344  0.00  0.00    +0.000 A 
BRANCH  14  18
ATOM     18  C   UNL     1      -1.807  10.546  17.721  0.00  0.00    +0.000 C 
ATOM     19  N   UNL     1      -1.982  10.569  16.368  0.00  0.00    +0.000 N 
ATOM     20  O   UNL     1      -2.368   9.688  18.399  0.00  0.00    +0.000 OA
ATOM     21  H   UNL     1      -1.604  11.277  15.760  0.00  0.00    +0.000 HD
ATOM     22  H   UNL     1      -2.655   9.913  15.985  0.00  0.00    +0.000 HD
ENDBRANCH  14  18
ENDBRANCH   1  13
BRANCH   5  23
ATOM     23  O   UNL     1       2.624   7.253  17.581  0.00  0.00    +0.000 OA
BRANCH  23  24
ATOM     24  C   UNL     1       3.465   6.188  17.848  0.00  0.00    +0.000 A 
ATOM     25  C   UNL     1       2.878   4.923  17.847  0.00  0.00    +0.000 A 
ATOM     26  C   UNL     1       3.669   3.779  17.988  0.00  0.00    +0.000 A 
ATOM     27  C   UNL     1       5.053   3.896  18.126  0.00  0.00    +0.000 A 
ATOM     28  C   UNL     1       5.628   5.166  18.187  0.00  0.00    +0.000 A 
ATOM     29  C   UNL     1       4.838   6.316  18.092  0.00  0.00    +0.000 A 
BRANCH  28  30
ATOM     30  S   UNL     1       7.398   5.335  18.224  0.00  0.00    +0.000 S 
ATOM     31  C   UNL     1       7.669   7.007  17.712  0.00  0.00    +0.000 C 
ATOM     32  O   UNL     1       7.820   5.210  19.607  0.00  0.00    +0.000 OA
ATOM     33  O   UNL     1       7.938   4.454  17.205  0.00  0.00    +0.000 OA
ENDBRANCH  28  30
ENDBRANCH  23  24
ENDBRANCH   5  23
TORSDOF 5
ENDMDL
MODEL 9
REMARK VINA RESULT:      -8.1      4.206      8.821
REMARK  Name = 
REMARK  7 active torsions:
REMARK  status: ('A' for Active; 'I' for Inactive)
REMARK    1  A    between atoms: C_1  and  C_2
REMARK    2  A    between atoms: C_7  and  C_8
REMARK    3  A    between atoms: C_12  and  O_13
REMARK    4  A    between atoms: O_13  and  C_14
REMARK    5  A    between atoms: C_18  and  S_19
REMARK    6  A    between atoms: S_19  and  C_20
REMARK    7  A    between atoms: C_25  and  C_26
REMARK                            x       y       z     vdW  Elec       q    Type
REMARK                         _______ _______ _______ _____ _____    ______ ____
ROOT
ATOM      1  C   UNL     1       2.374   6.658  19.428  0.00  0.00    +0.000 A 
ATOM      2  C   UNL     1       2.020   6.636  20.794  0.00  0.00    +0.000 A 
ATOM      3  C   UNL     1       1.258   7.651  21.372  0.00  0.00    +0.000 A 
ATOM      4  C   UNL     1       0.970   8.792  20.643  0.00  0.00    +0.000 A 
ATOM      5  C   UNL     1       1.519   8.953  19.371  0.00  0.00    +0.000 A 
ATOM      6  C   UNL     1       2.123   7.860  18.735  0.00  0.00    +0.000 A 
ENDROOT
BRANCH   1  13
ATOM      7  C   UNL     1       5.868   3.304  15.302  0.00  0.00    +0.000 C 
ATOM      8  C   UNL     1       5.252   4.538  15.911  0.00  0.00    +0.000 A 
ATOM      9  C   UNL     1       5.562   5.784  15.352  0.00  0.00    +0.000 A 
ATOM     10  C   UNL     1       5.088   6.935  15.945  0.00  0.00    +0.000 A 
ATOM     11  C   UNL     1       4.297   6.838  17.087  0.00  0.00    +0.000 A 
ATOM     12  C   UNL     1       3.870   5.594  17.637  0.00  0.00    +0.000 A 
ATOM     13  C   UNL     1       2.960   5.445  18.768  0.00  0.00    +0.000 A 
ATOM     14  C   UNL     1       2.696   4.130  19.220  0.00  0.00    +0.000 A 
ATOM     15  C   UNL     1       3.324   3.077  18.564  0.00  0.00    +0.000 A 
ATOM     16  N   UNL     1       4.137   3.203  17.494  0.00  0.00    +0.000 NA
ATOM     17  C   UNL     1       4.405   4.428  17.027  0.00  0.00    +0.000 A 
BRANCH  14  18
ATOM     18  C   UNL     1       1.839   3.697  20.350  0.00  0.00    +0.000 C 
ATOM     19  N   UNL     1       0.500   3.533  20.146  0.00  0.00    +0.000 N 
ATOM     20  O   UNL     1       2.327   3.455  21.452  0.00  0.00    +0.000 OA
ATOM     21  H   UNL     1       0.024   3.769  19.290  0.00  0.00    +0.000 HD
ATOM     22  H   UNL     1      -0.059   3.300  20.960  0.00  0.00    +0.000 HD
ENDBRANCH  14  18
ENDBRANCH   1  13
BRANCH   5  23
ATOM     23  O   UNL     1       1.496  10.147  18.680  0.00  0.00    +0.000 OA
BRANCH  23  24
ATOM     24  C   UNL     1       0.327  10.885  18.673  0.00  0.00    +0.000 A 
ATOM     25  C   UNL     1       0.411  12.180  19.185  0.00  0.00    +0.000 A 
ATOM     26  C   UNL     1      -0.688  13.040  19.112  0.00  0.00    +0.000 A 
ATOM     27  C   UNL     1      -1.877  12.609  18.520  0.00  0.00    +0.000 A 
ATOM     28  C   UNL     1      -1.975  11.294  18.064  0.00  0.00    +0.000 A 
ATOM     29  C   UNL     1      -0.895  10.414  18.176  0.00  0.00    +0.000 A 
BRANCH  28  30
ATOM     30  S   UNL     1      -3.429  10.769  17.186  0.00  0.00    +0.000 S 
ATOM     31  C   UNL     1      -2.917  10.767  15.492  0.00  0.00    +0.000 C 
ATOM     32  O   UNL     1      -3.706   9.400  17.578  0.00  0.00    +0.000 OA
ATOM     33  O   UNL     1      -4.434  11.803  17.355  0.00  0.00    +0.000 OA
ENDBRANCH  28  30
ENDBRANCH  23  24
ENDBRANCH   5  23
TORSDOF 5
ENDMDL
