MODEL 1
REMARK VINA RESULT:      -7.2      0.000      0.000
REMARK  Name = 
REMARK  5 active torsions:
REMARK  status: ('A' for Active; 'I' for Inactive)
REMARK    1  A    between atoms: C_1  and  C_2
REMARK    2  A    between atoms: C_2  and  O_3
REMARK    3  A    between atoms: O_3  and  C_4
REMARK    4  A    between atoms: C_4  and  C_6
REMARK    5  A    between atoms: C_17  and  O_18
REMARK                            x       y       z     vdW  Elec       q    Type
REMARK                         _______ _______ _______ _____ _____    ______ ____
ROOT
ATOM      1  C   UNL     1       5.759   4.769  15.767  0.00  0.00    +0.000 A 
ATOM      2  C   UNL     1       5.504   3.713  16.616  0.00  0.00    +0.000 A 
ATOM      3  N   UNL     1       4.699   3.800  17.700  0.00  0.00    +0.000 NA
ATOM      4  C   UNL     1       4.084   4.973  17.989  0.00  0.00    +0.000 A 
ATOM      5  C   UNL     1       3.236   5.089  19.106  0.00  0.00    +0.000 A 
ATOM      6 CL   UNL     1       3.001   3.698  20.130  0.00  0.00    +0.000 Cl
ATOM      7  C   UNL     1       2.580   6.294  19.401  0.00  0.00    +0.000 A 
ATOM      8 CL   UNL     1       1.526   6.479  20.760  0.00  0.00    +0.000 Cl
ATOM      9  C   UNL     1       2.760   7.402  18.583  0.00  0.00    +0.000 A 
ATOM     10  C   UNL     1       3.594   7.312  17.474  0.00  0.00    +0.000 A 
ATOM     11  C   UNL     1       4.272   6.110  17.168  0.00  0.00    +0.000 A 
ATOM     12  C   UNL     1       5.127   5.979  16.050  0.00  0.00    +0.000 A 
ENDROOT
BRANCH   1  13
ATOM     13  C   UNL     1       6.669   4.613  14.620  0.00  0.00    +0.000 C 
ATOM     14  O   UNL     1       7.563   5.392  14.327  0.00  0.00    +0.000 OA
BRANCH  13  15
ATOM     15  O   UNL     1       6.284   3.525  13.905  0.00  0.00    +0.000 OA
BRANCH  15  17
ATOM     16  C   UNL     1       5.071   3.224  11.879  0.00  0.00    +0.000 C 
ATOM     17  C   UNL     1       6.392   3.667  12.481  0.00  0.00    +0.000 C 
ENDBRANCH  15  17
ENDBRANCH  13  15
ENDBRANCH   1  13
BRANCH  12  18
ATOM     18  O   UNL     1       5.298   7.026  15.180  0.00  0.00    +0.000 OA
ATOM     19  H   UNL     1       5.353   6.690  14.270  0.00  0.00    +0.000 HD
ENDBRANCH  12  18
TORSDOF 4
ENDMDL
MODEL 2
REMARK VINA RESULT:      -7.0      1.386      2.346
REMARK  Name = 
REMARK  5 active torsions:
REMARK  status: ('A' for Active; 'I' for Inactive)
REMARK    1  A    between atoms: C_1  and  C_2
REMARK    2  A    between atoms: C_2  and  O_3
REMARK    3  A    between atoms: O_3  and  C_4
REMARK    4  A    between atoms: C_4  and  C_6
REMARK    5  A    between atoms: C_17  and  O_18
REMARK                            x       y       z     vdW  Elec       q    Type
REMARK                         _______ _______ _______ _____ _____    ______ ____
ROOT
ATOM      1  C   UNL     1       5.805   5.012  15.477  0.00  0.00    +0.000 A 
ATOM      2  C   UNL     1       5.385   6.287  15.784  0.00  0.00    +0.000 A 
ATOM      3  N   UNL     1       4.476   6.565  16.748  0.00  0.00    +0.000 NA
ATOM      4  C   UNL     1       3.940   5.558  17.478  0.00  0.00    +0.000 A 
ATOM      5  C   UNL     1       2.999   5.819  18.491  0.00  0.00    +0.000 A 
ATOM      6 CL   UNL     1       2.516   7.469  18.782  0.00  0.00    +0.000 Cl
ATOM      7  C   UNL     1       2.452   4.783  19.264  0.00  0.00    +0.000 A 
ATOM      8 CL   UNL     1       1.298   5.060  20.521  0.00  0.00    +0.000 Cl
ATOM      9  C   UNL     1       2.841   3.469  19.039  0.00  0.00    +0.000 A 
ATOM     10  C   UNL     1       3.769   3.185  18.042  0.00  0.00    +0.000 A 
ATOM     11  C   UNL     1       4.320   4.214  17.246  0.00  0.00    +0.000 A 
ATOM     12  C   UNL     1       5.266   3.966  16.225  0.00  0.00    +0.000 A 
ENDROOT
BRANCH   1  13
ATOM     13  C   UNL     1       6.777   4.777  14.395  0.00  0.00    +0.000 C 
ATOM     14  O   UNL     1       7.693   5.530  14.103  0.00  0.00    +0.000 OA
BRANCH  13  15
ATOM     15  O   UNL     1       6.424   3.645  13.732  0.00  0.00    +0.000 OA
BRANCH  15  17
ATOM     16  C   UNL     1       5.081   3.222  11.813  0.00  0.00    +0.000 C 
ATOM     17  C   UNL     1       6.413   3.761  12.302  0.00  0.00    +0.000 C 
ENDBRANCH  15  17
ENDBRANCH  13  15
ENDBRANCH   1  13
BRANCH  12  18
ATOM     18  O   UNL     1       5.723   2.693  15.996  0.00  0.00    +0.000 OA
ATOM     19  H   UNL     1       5.069   2.049  16.312  0.00  0.00    +0.000 HD
ENDBRANCH  12  18
TORSDOF 4
ENDMDL
MODEL 3
REMARK VINA RESULT:      -7.0      2.672      3.701
REMARK  Name = 
REMARK  5 active torsions:
REMARK  status: ('A' for Active; 'I' for Inactive)
REMARK    1  A    between atoms: C_1  and  C_2
REMARK    2  A    between atoms: C_2  and  O_3
REMARK    3  A    between atoms: O_3  and  C_4
REMARK    4  A    between atoms: C_4  and  C_6
REMARK    5  A    between atoms: C_17  and  O_18
REMARK                            x       y       z     vdW  Elec       q    Type
REMARK                         _______ _______ _______ _____ _____    ______ ____
ROOT
ATOM      1  C   UNL     1       6.047   5.706  17.492  0.00  0.00    +0.000 A 
ATOM      2  C   UNL     1       6.499   4.584  18.154  0.00  0.00    +0.000 A 
ATOM      3  N   UNL     1       5.727   3.838  18.978  0.00  0.00    +0.000 NA
ATOM      4  C   UNL     1       4.430   4.177  19.175  0.00  0.00    +0.000 A 
ATOM      5  C   UNL     1       3.603   3.415  20.021  0.00  0.00    +0.000 A 
ATOM      6 CL   UNL     1       4.282   2.028  20.831  0.00  0.00    +0.000 Cl
ATOM      7  C   UNL     1       2.254   3.748  20.217  0.00  0.00    +0.000 A 
ATOM      8 CL   UNL     1       1.202   2.836  21.243  0.00  0.00    +0.000 Cl
ATOM      9  C   UNL     1       1.709   4.849  19.567  0.00  0.00    +0.000 A 
ATOM     10  C   UNL     1       2.506   5.618  18.727  0.00  0.00    +0.000 A 
ATOM     11  C   UNL     1       3.870   5.304  18.528  0.00  0.00    +0.000 A 
ATOM     12  C   UNL     1       4.712   6.061  17.682  0.00  0.00    +0.000 A 
ENDROOT
BRANCH   1  13
ATOM     13  C   UNL     1       6.948   6.489  16.631  0.00  0.00    +0.000 C 
ATOM     14  O   UNL     1       7.567   6.043  15.678  0.00  0.00    +0.000 OA
BRANCH  13  15
ATOM     15  O   UNL     1       7.043   7.748  17.133  0.00  0.00    +0.000 OA
BRANCH  15  17
ATOM     16  C   UNL     1       8.396   9.434  18.130  0.00  0.00    +0.000 C 
ATOM     17  C   UNL     1       8.106   7.945  18.076  0.00  0.00    +0.000 C 
ENDBRANCH  15  17
ENDBRANCH  13  15
ENDBRANCH   1  13
BRANCH  12  18
ATOM     18  O   UNL     1       4.211   7.126  16.976  0.00  0.00    +0.000 OA
ATOM     19  H   UNL     1       4.371   7.949  17.467  0.00  0.00    +0.000 HD
ENDBRANCH  12  18
TORSDOF 4
ENDMDL
MODEL 4
REMARK VINA RESULT:      -6.9      1.018      1.077
REMARK  Name = 
REMARK  5 active torsions:
REMARK  status: ('A' for Active; 'I' for Inactive)
REMARK    1  A    between atoms: C_1  and  C_2
REMARK    2  A    between atoms: C_2  and  O_3
REMARK    3  A    between atoms: O_3  and  C_4
REMARK    4  A    between atoms: C_4  and  C_6
REMARK    5  A    between atoms: C_17  and  O_18
REMARK                            x       y       z     vdW  Elec       q    Type
REMARK                         _______ _______ _______ _____ _____    ______ ____
ROOT
ATOM      1  C   UNL     1       5.444   4.903  16.667  0.00  0.00    +0.000 A 
ATOM      2  C   UNL     1       5.120   4.062  17.709  0.00  0.00    +0.000 A 
ATOM      3  N   UNL     1       4.258   4.393  18.699  0.00  0.00    +0.000 NA
ATOM      4  C   UNL     1       3.654   5.606  18.689  0.00  0.00    +0.000 A 
ATOM      5  C   UNL     1       2.748   5.972  19.701  0.00  0.00    +0.000 A 
ATOM      6 CL   UNL     1       2.426   4.841  20.989  0.00  0.00    +0.000 Cl
ATOM      7  C   UNL     1       2.104   7.219  19.688  0.00  0.00    +0.000 A 
ATOM      8 CL   UNL     1       0.981   7.707  20.909  0.00  0.00    +0.000 Cl
ATOM      9  C   UNL     1       2.353   8.119  18.659  0.00  0.00    +0.000 A 
ATOM     10  C   UNL     1       3.245   7.780  17.647  0.00  0.00    +0.000 A 
ATOM     11  C   UNL     1       3.912   6.534  17.652  0.00  0.00    +0.000 A 
ATOM     12  C   UNL     1       4.824   6.152  16.642  0.00  0.00    +0.000 A 
ENDROOT
BRANCH   1  13
ATOM     13  C   UNL     1       6.412   4.491  15.637  0.00  0.00    +0.000 C 
ATOM     14  O   UNL     1       7.623   4.454  15.791  0.00  0.00    +0.000 OA
BRANCH  13  15
ATOM     15  O   UNL     1       5.742   4.258  14.479  0.00  0.00    +0.000 OA
BRANCH  15  17
ATOM     16  C   UNL     1       5.736   3.252  12.322  0.00  0.00    +0.000 C 
ATOM     17  C   UNL     1       6.575   4.005  13.339  0.00  0.00    +0.000 C 
ENDBRANCH  15  17
ENDBRANCH  13  15
ENDBRANCH   1  13
BRANCH  12  18
ATOM     18  O   UNL     1       5.066   6.981  15.575  0.00  0.00    +0.000 OA
ATOM     19  H   UNL     1       4.334   7.612  15.479  0.00  0.00    +0.000 HD
ENDBRANCH  12  18
TORSDOF 4
ENDMDL
MODEL 5
REMARK VINA RESULT:      -6.9      2.528      4.202
REMARK  Name = 
REMARK  5 active torsions:
REMARK  status: ('A' for Active; 'I' for Inactive)
REMARK    1  A    between atoms: C_1  and  C_2
REMARK    2  A    between atoms: C_2  and  O_3
REMARK    3  A    between atoms: O_3  and  C_4
REMARK    4  A    between atoms: C_4  and  C_6
REMARK    5  A    between atoms: C_17  and  O_18
REMARK                            x       y       z     vdW  Elec       q    Type
REMARK                         _______ _______ _______ _____ _____    ______ ____
ROOT
ATOM      1  C   UNL     1       5.384   5.882  17.508  0.00  0.00    +0.000 A 
ATOM      2  C   UNL     1       4.260   6.606  17.845  0.00  0.00    +0.000 A 
ATOM      3  N   UNL     1       3.305   6.156  18.692  0.00  0.00    +0.000 NA
ATOM      4  C   UNL     1       3.436   4.937  19.268  0.00  0.00    +0.000 A 
ATOM      5  C   UNL     1       2.462   4.448  20.158  0.00  0.00    +0.000 A 
ATOM      6 CL   UNL     1       1.065   5.434  20.497  0.00  0.00    +0.000 Cl
ATOM      7  C   UNL     1       2.599   3.194  20.773  0.00  0.00    +0.000 A 
ATOM      8 CL   UNL     1       1.429   2.558  21.876  0.00  0.00    +0.000 Cl
ATOM      9  C   UNL     1       3.715   2.409  20.510  0.00  0.00    +0.000 A 
ATOM     10  C   UNL     1       4.691   2.870  19.634  0.00  0.00    +0.000 A 
ATOM     11  C   UNL     1       4.563   4.125  18.996  0.00  0.00    +0.000 A 
ATOM     12  C   UNL     1       5.533   4.628  18.099  0.00  0.00    +0.000 A 
ENDROOT
BRANCH   1  13
ATOM     13  C   UNL     1       6.371   6.419  16.557  0.00  0.00    +0.000 C 
ATOM     14  O   UNL     1       6.818   5.812  15.596  0.00  0.00    +0.000 OA
BRANCH  13  15
ATOM     15  O   UNL     1       6.762   7.648  16.983  0.00  0.00    +0.000 OA
BRANCH  15  17
ATOM     16  C   UNL     1       8.298   9.092  18.088  0.00  0.00    +0.000 C 
ATOM     17  C   UNL     1       7.872   7.648  17.892  0.00  0.00    +0.000 C 
ENDBRANCH  15  17
ENDBRANCH  13  15
ENDBRANCH   1  13
BRANCH  12  18
ATOM     18  O   UNL     1       6.680   3.917  17.845  0.00  0.00    +0.000 OA
ATOM     19  H   UNL     1       7.203   4.373  17.166  0.00  0.00    +0.000 HD
ENDBRANCH  12  18
TORSDOF 4
ENDMDL
MODEL 6
REMARK VINA RESULT:      -6.8      1.779      2.897
REMARK  Name = 
REMARK  5 active torsions:
REMARK  status: ('A' for Active; 'I' for Inactive)
REMARK    1  A    between atoms: C_1  and  C_2
REMARK    2  A    between atoms: C_2  and  O_3
REMARK    3  A    between atoms: O_3  and  C_4
REMARK    4  A    between atoms: C_4  and  C_6
REMARK    5  A    between atoms: C_17  and  O_18
REMARK                            x       y       z     vdW  Elec       q    Type
REMARK                         _______ _______ _______ _____ _____    ______ ____
ROOT
ATOM      1  C   UNL     1       5.494   5.527  16.958  0.00  0.00    +0.000 A 
ATOM      2  C   UNL     1       4.857   6.466  17.741  0.00  0.00    +0.000 A 
ATOM      3  N   UNL     1       3.905   6.161  18.654  0.00  0.00    +0.000 NA
ATOM      4  C   UNL     1       3.544   4.869  18.842  0.00  0.00    +0.000 A 
ATOM      5  C   UNL     1       2.563   4.522  19.789  0.00  0.00    +0.000 A 
ATOM      6 CL   UNL     1       1.800   5.792  20.711  0.00  0.00    +0.000 Cl
ATOM      7  C   UNL     1       2.196   3.185  20.004  0.00  0.00    +0.000 A 
ATOM      8 CL   UNL     1       1.000   2.715  21.161  0.00  0.00    +0.000 Cl
ATOM      9  C   UNL     1       2.807   2.171  19.277  0.00  0.00    +0.000 A 
ATOM     10  C   UNL     1       3.779   2.488  18.334  0.00  0.00    +0.000 A 
ATOM     11  C   UNL     1       4.151   3.831  18.096  0.00  0.00    +0.000 A 
ATOM     12  C   UNL     1       5.135   4.193  17.148  0.00  0.00    +0.000 A 
ENDROOT
BRANCH   1  13
ATOM     13  C   UNL     1       6.501   5.931  15.963  0.00  0.00    +0.000 C 
ATOM     14  O   UNL     1       7.528   6.541  16.216  0.00  0.00    +0.000 OA
BRANCH  13  15
ATOM     15  O   UNL     1       6.049   5.596  14.727  0.00  0.00    +0.000 OA
BRANCH  15  17
ATOM     16  C   UNL     1       6.245   3.780  13.201  0.00  0.00    +0.000 C 
ATOM     17  C   UNL     1       6.994   4.896  13.906  0.00  0.00    +0.000 C 
ENDBRANCH  15  17
ENDBRANCH  13  15
ENDBRANCH   1  13
BRANCH  12  18
ATOM     18  O   UNL     1       5.807   3.228  16.440  0.00  0.00    +0.000 OA
ATOM     19  H   UNL     1       5.541   3.262  15.507  0.00  0.00    +0.000 HD
ENDBRANCH  12  18
TORSDOF 4
ENDMDL
MODEL 7
REMARK VINA RESULT:      -6.8      2.085      3.252
REMARK  Name = 
REMARK  5 active torsions:
REMARK  status: ('A' for Active; 'I' for Inactive)
REMARK    1  A    between atoms: C_1  and  C_2
REMARK    2  A    between atoms: C_2  and  O_3
REMARK    3  A    between atoms: O_3  and  C_4
REMARK    4  A    between atoms: C_4  and  C_6
REMARK    5  A    between atoms: C_17  and  O_18
REMARK                            x       y       z     vdW  Elec       q    Type
REMARK                         _______ _______ _______ _____ _____    ______ ____
ROOT
ATOM      1  C   UNL     1       5.454   5.820  17.531  0.00  0.00    +0.000 A 
ATOM      2  C   UNL     1       4.317   6.542  17.821  0.00  0.00    +0.000 A 
ATOM      3  N   UNL     1       3.342   6.105  18.651  0.00  0.00    +0.000 NA
ATOM      4  C   UNL     1       3.465   4.899  19.257  0.00  0.00    +0.000 A 
ATOM      5  C   UNL     1       2.470   4.423  20.131  0.00  0.00    +0.000 A 
ATOM      6 CL   UNL     1       1.057   5.407  20.410  0.00  0.00    +0.000 Cl
ATOM      7  C   UNL     1       2.599   3.185  20.778  0.00  0.00    +0.000 A 
ATOM      8 CL   UNL     1       1.403   2.565  21.862  0.00  0.00    +0.000 Cl
ATOM      9  C   UNL     1       3.726   2.402  20.563  0.00  0.00    +0.000 A 
ATOM     10  C   UNL     1       4.723   2.851  19.704  0.00  0.00    +0.000 A 
ATOM     11  C   UNL     1       4.604   4.090  19.035  0.00  0.00    +0.000 A 
ATOM     12  C   UNL     1       5.596   4.580  18.154  0.00  0.00    +0.000 A 
ENDROOT
BRANCH   1  13
ATOM     13  C   UNL     1       6.463   6.343  16.595  0.00  0.00    +0.000 C 
ATOM     14  O   UNL     1       7.438   7.006  16.917  0.00  0.00    +0.000 OA
BRANCH  13  15
ATOM     15  O   UNL     1       6.076   6.046  15.328  0.00  0.00    +0.000 OA
BRANCH  15  17
ATOM     16  C   UNL     1       5.924   3.967  14.178  0.00  0.00    +0.000 C 
ATOM     17  C   UNL     1       6.870   5.048  14.671  0.00  0.00    +0.000 C 
ENDBRANCH  15  17
ENDBRANCH  13  15
ENDBRANCH   1  13
BRANCH  12  18
ATOM     18  O   UNL     1       6.753   3.872  17.947  0.00  0.00    +0.000 OA
ATOM     19  H   UNL     1       7.520   4.450  18.093  0.00  0.00    +0.000 HD
ENDBRANCH  12  18
TORSDOF 4
ENDMDL
MODEL 8
REMARK VINA RESULT:      -6.8      1.865      2.421
REMARK  Name = 
REMARK  5 active torsions:
REMARK  status: ('A' for Active; 'I' for Inactive)
REMARK    1  A    between atoms: C_1  and  C_2
REMARK    2  A    between atoms: C_2  and  O_3
REMARK    3  A    between atoms: O_3  and  C_4
REMARK    4  A    between atoms: C_4  and  C_6
REMARK    5  A    between atoms: C_17  and  O_18
REMARK                            x       y       z     vdW  Elec       q    Type
REMARK                         _______ _______ _______ _____ _____    ______ ____
ROOT
ATOM      1  C   UNL     1       5.932   5.532  17.422  0.00  0.00    +0.000 A 
ATOM      2  C   UNL     1       6.405   4.431  18.103  0.00  0.00    +0.000 A 
ATOM      3  N   UNL     1       5.663   3.716  18.980  0.00  0.00    +0.000 NA
ATOM      4  C   UNL     1       4.376   4.068  19.215  0.00  0.00    +0.000 A 
ATOM      5  C   UNL     1       3.579   3.337  20.117  0.00  0.00    +0.000 A 
ATOM      6 CL   UNL     1       4.284   1.974  20.946  0.00  0.00    +0.000 Cl
ATOM      7  C   UNL     1       2.240   3.683  20.352  0.00  0.00    +0.000 A 
ATOM      8 CL   UNL     1       1.225   2.810  21.447  0.00  0.00    +0.000 Cl
ATOM      9  C   UNL     1       1.674   4.764  19.688  0.00  0.00    +0.000 A 
ATOM     10  C   UNL     1       2.441   5.502  18.793  0.00  0.00    +0.000 A 
ATOM     11  C   UNL     1       3.795   5.175  18.553  0.00  0.00    +0.000 A 
ATOM     12  C   UNL     1       4.607   5.900  17.651  0.00  0.00    +0.000 A 
ENDROOT
BRANCH   1  13
ATOM     13  C   UNL     1       6.802   6.283  16.502  0.00  0.00    +0.000 C 
ATOM     14  O   UNL     1       7.692   7.045  16.848  0.00  0.00    +0.000 OA
BRANCH  13  15
ATOM     15  O   UNL     1       6.386   6.058  15.229  0.00  0.00    +0.000 OA
BRANCH  15  17
ATOM     16  C   UNL     1       5.917   4.042  14.052  0.00  0.00    +0.000 C 
ATOM     17  C   UNL     1       7.018   4.949  14.574  0.00  0.00    +0.000 C 
ENDBRANCH  15  17
ENDBRANCH  13  15
ENDBRANCH   1  13
BRANCH  12  18
ATOM     18  O   UNL     1       4.083   6.943  16.929  0.00  0.00    +0.000 OA
ATOM     19  H   UNL     1       4.046   6.704  15.989  0.00  0.00    +0.000 HD
ENDBRANCH  12  18
TORSDOF 4
ENDMDL
MODEL 9
REMARK VINA RESULT:      -6.7      1.872      2.608
REMARK  Name = 
REMARK  5 active torsions:
REMARK  status: ('A' for Active; 'I' for Inactive)
REMARK    1  A    between atoms: C_1  and  C_2
REMARK    2  A    between atoms: C_2  and  O_3
REMARK    3  A    between atoms: O_3  and  C_4
REMARK    4  A    between atoms: C_4  and  C_6
REMARK    5  A    between atoms: C_17  and  O_18
REMARK                            x       y       z     vdW  Elec       q    Type
REMARK                         _______ _______ _______ _____ _____    ______ ____
ROOT
ATOM      1  C   UNL     1       5.625   5.140  16.758  0.00  0.00    +0.000 A 
ATOM      2  C   UNL     1       5.134   6.344  16.301  0.00  0.00    +0.000 A 
ATOM      3  N   UNL     1       4.168   7.049  16.936  0.00  0.00    +0.000 NA
ATOM      4  C   UNL     1       3.642   6.579  18.092  0.00  0.00    +0.000 A 
ATOM      5  C   UNL     1       2.642   7.295  18.776  0.00  0.00    +0.000 A 
ATOM      6 CL   UNL     1       2.074   8.798  18.099  0.00  0.00    +0.000 Cl
ATOM      7  C   UNL     1       2.105   6.825  19.984  0.00  0.00    +0.000 A 
ATOM      8 CL   UNL     1       0.880   7.676  20.860  0.00  0.00    +0.000 Cl
ATOM      9  C   UNL     1       2.561   5.632  20.531  0.00  0.00    +0.000 A 
ATOM     10  C   UNL     1       3.549   4.906  19.873  0.00  0.00    +0.000 A 
ATOM     11  C   UNL     1       4.091   5.358  18.649  0.00  0.00    +0.000 A 
ATOM     12  C   UNL     1       5.096   4.649  17.951  0.00  0.00    +0.000 A 
ENDROOT
BRANCH   1  13
ATOM     13  C   UNL     1       6.657   4.410  16.003  0.00  0.00    +0.000 C 
ATOM     14  O   UNL     1       7.851   4.420  16.263  0.00  0.00    +0.000 OA
BRANCH  13  15
ATOM     15  O   UNL     1       6.072   3.814  14.932  0.00  0.00    +0.000 OA
BRANCH  15  17
ATOM     16  C   UNL     1       5.818   3.468  12.591  0.00  0.00    +0.000 C 
ATOM     17  C   UNL     1       6.640   4.162  13.662  0.00  0.00    +0.000 C 
ENDBRANCH  15  17
ENDBRANCH  13  15
ENDBRANCH   1  13
BRANCH  12  18
ATOM     18  O   UNL     1       5.620   3.492  18.472  0.00  0.00    +0.000 OA
ATOM     19  H   UNL     1       4.906   2.949  18.844  0.00  0.00    +0.000 HD
ENDBRANCH  12  18
TORSDOF 4
ENDMDL
