MODEL 1
REMARK VINA RESULT:      -7.2      0.000      0.000
REMARK  Name = 
REMARK  5 active torsions:
REMARK  status: ('A' for Active; 'I' for Inactive)
REMARK    1  A    between atoms: C_2  and  C_3
REMARK    2  A    between atoms: C_3  and  O_4
REMARK    3  A    between atoms: O_4  and  C_5
REMARK    4  A    between atoms: C_8  and  C_9
REMARK    5  A    between atoms: N_13  and  C_14
REMARK                            x       y       z     vdW  Elec       q    Type
REMARK                         _______ _______ _______ _____ _____    ______ ____
ROOT
ATOM      1  C   UNL     1       2.830   6.570  18.885  0.00  0.00    +0.000 A 
ATOM      2  N   UNL     1       2.219   6.096  19.995  0.00  0.00    +0.000 NA
ATOM      3  O   UNL     1       1.507   7.222  20.457  0.00  0.00    +0.000 OA
ATOM      4  C   UNL     1       1.751   8.234  19.566  0.00  0.00    +0.000 A 
ATOM      5  N   UNL     1       1.084   9.408  19.746  0.00  0.00    +0.000 N 
ATOM      6  N   UNL     1       2.565   7.887  18.620  0.00  0.00    +0.000 NA
ATOM      7  H   UNL     1       0.615   9.572  20.624  0.00  0.00    +0.000 HD
ENDROOT
BRANCH   1  11
ATOM      8  C   UNL     1       5.277   4.372  16.116  0.00  0.00    +0.000 A 
ATOM      9  C   UNL     1       4.342   3.700  16.912  0.00  0.00    +0.000 A 
ATOM     10  C   UNL     1       3.534   4.399  17.825  0.00  0.00    +0.000 A 
ATOM     11  C   UNL     1       3.660   5.783  17.971  0.00  0.00    +0.000 A 
ATOM     12  C   UNL     1       4.594   6.448  17.154  0.00  0.00    +0.000 A 
ATOM     13  C   UNL     1       5.395   5.753  16.238  0.00  0.00    +0.000 A 
BRANCH   8  14
ATOM     14  O   UNL     1       6.011   3.590  15.263  0.00  0.00    +0.000 OA
BRANCH  14  15
ATOM     15  C   UNL     1       6.476   4.231  14.070  0.00  0.00    +0.000 C 
BRANCH  15  17
ATOM     16  C   UNL     1       5.260   3.024  11.826  0.00  0.00    +0.000 C 
ATOM     17  C   UNL     1       5.821   3.582  12.862  0.00  0.00    +0.000 C 
ENDBRANCH  15  17
ENDBRANCH  14  15
ENDBRANCH   8  14
ENDBRANCH   1  11
BRANCH   5  18
ATOM     18  C   UNL     1       0.824  10.306  18.621  0.00  0.00    +0.000 C 
ATOM     19  C   UNL     1      -0.447   9.944  17.845  0.00  0.00    +0.000 C 
ATOM     20  C   UNL     1      -1.761  10.263  18.550  0.00  0.00    +0.000 C 
ATOM     21  C   UNL     1      -1.806  11.638  19.220  0.00  0.00    +0.000 C 
ATOM     22  C   UNL     1      -0.502  12.175  19.817  0.00  0.00    +0.000 C 
ATOM     23  C   UNL     1       0.750  11.789  19.039  0.00  0.00    +0.000 C 
ENDBRANCH   5  18
TORSDOF 5
ENDMDL
MODEL 2
REMARK VINA RESULT:      -7.2      0.407      1.198
REMARK  Name = 
REMARK  5 active torsions:
REMARK  status: ('A' for Active; 'I' for Inactive)
REMARK    1  A    between atoms: C_2  and  C_3
REMARK    2  A    between atoms: C_3  and  O_4
REMARK    3  A    between atoms: O_4  and  C_5
REMARK    4  A    between atoms: C_8  and  C_9
REMARK    5  A    between atoms: N_13  and  C_14
REMARK                            x       y       z     vdW  Elec       q    Type
REMARK                         _______ _______ _______ _____ _____    ______ ____
ROOT
ATOM      1  C   UNL     1       2.959   6.531  18.752  0.00  0.00    +0.000 A 
ATOM      2  N   UNL     1       2.437   6.043  19.902  0.00  0.00    +0.000 NA
ATOM      3  O   UNL     1       1.705   7.142  20.396  0.00  0.00    +0.000 OA
ATOM      4  C   UNL     1       1.850   8.153  19.483  0.00  0.00    +0.000 A 
ATOM      5  N   UNL     1       1.144   9.299  19.692  0.00  0.00    +0.000 N 
ATOM      6  N   UNL     1       2.620   7.832  18.493  0.00  0.00    +0.000 NA
ATOM      7  H   UNL     1       0.722   9.453  20.596  0.00  0.00    +0.000 HD
ENDROOT
BRANCH   1  11
ATOM      8  C   UNL     1       5.328   4.186  16.037  0.00  0.00    +0.000 A 
ATOM      9  C   UNL     1       5.434   5.582  16.035  0.00  0.00    +0.000 A 
ATOM     10  C   UNL     1       4.667   6.367  16.912  0.00  0.00    +0.000 A 
ATOM     11  C   UNL     1       3.766   5.770  17.797  0.00  0.00    +0.000 A 
ATOM     12  C   UNL     1       3.679   4.364  17.799  0.00  0.00    +0.000 A 
ATOM     13  C   UNL     1       4.449   3.580  16.929  0.00  0.00    +0.000 A 
BRANCH   8  14
ATOM     14  O   UNL     1       6.122   3.523  15.138  0.00  0.00    +0.000 OA
BRANCH  14  15
ATOM     15  C   UNL     1       6.433   4.232  13.935  0.00  0.00    +0.000 C 
BRANCH  15  17
ATOM     16  C   UNL     1       4.928   3.161  11.799  0.00  0.00    +0.000 C 
ATOM     17  C   UNL     1       5.623   3.655  12.786  0.00  0.00    +0.000 C 
ENDBRANCH  15  17
ENDBRANCH  14  15
ENDBRANCH   8  14
ENDBRANCH   1  11
BRANCH   5  18
ATOM     18  C   UNL     1       0.777  10.172  18.578  0.00  0.00    +0.000 C 
ATOM     19  C   UNL     1      -0.737  10.358  18.433  0.00  0.00    +0.000 C 
ATOM     20  C   UNL     1      -1.395  11.240  19.489  0.00  0.00    +0.000 C 
ATOM     21  C   UNL     1      -0.632  12.529  19.806  0.00  0.00    +0.000 C 
ATOM     22  C   UNL     1       0.897  12.480  19.737  0.00  0.00    +0.000 C 
ATOM     23  C   UNL     1       1.447  11.560  18.654  0.00  0.00    +0.000 C 
ENDBRANCH   5  18
TORSDOF 5
ENDMDL
MODEL 3
REMARK VINA RESULT:      -7.1      3.339      9.533
REMARK  Name = 
REMARK  5 active torsions:
REMARK  status: ('A' for Active; 'I' for Inactive)
REMARK    1  A    between atoms: C_2  and  C_3
REMARK    2  A    between atoms: C_3  and  O_4
REMARK    3  A    between atoms: O_4  and  C_5
REMARK    4  A    between atoms: C_8  and  C_9
REMARK    5  A    between atoms: N_13  and  C_14
REMARK                            x       y       z     vdW  Elec       q    Type
REMARK                         _______ _______ _______ _____ _____    ______ ____
ROOT
ATOM      1  C   UNL     1       1.704   8.307  19.788  0.00  0.00    +0.000 A 
ATOM      2  N   UNL     1       2.173   8.650  18.565  0.00  0.00    +0.000 NA
ATOM      3  O   UNL     1       2.710   7.436  18.092  0.00  0.00    +0.000 OA
ATOM      4  C   UNL     1       2.484   6.500  19.066  0.00  0.00    +0.000 A 
ATOM      5  N   UNL     1       2.827   5.210  18.794  0.00  0.00    +0.000 N 
ATOM      6  N   UNL     1       1.905   6.993  20.114  0.00  0.00    +0.000 NA
ATOM      7  H   UNL     1       3.420   5.021  18.000  0.00  0.00    +0.000 HD
ENDROOT
BRANCH   1  11
ATOM      8  C   UNL     1      -0.465  10.801  22.538  0.00  0.00    +0.000 A 
ATOM      9  C   UNL     1      -0.246  11.231  21.224  0.00  0.00    +0.000 A 
ATOM     10  C   UNL     1       0.462  10.433  20.309  0.00  0.00    +0.000 A 
ATOM     11  C   UNL     1       0.981   9.196  20.700  0.00  0.00    +0.000 A 
ATOM     12  C   UNL     1       0.742   8.769  22.020  0.00  0.00    +0.000 A 
ATOM     13  C   UNL     1       0.029   9.561  22.930  0.00  0.00    +0.000 A 
BRANCH   8  14
ATOM     14  O   UNL     1      -1.166  11.661  23.342  0.00  0.00    +0.000 OA
BRANCH  14  15
ATOM     15  C   UNL     1      -2.316  12.273  22.750  0.00  0.00    +0.000 C 
BRANCH  15  17
ATOM     16  C   UNL     1      -4.380  12.440  24.670  0.00  0.00    +0.000 C 
ATOM     17  C   UNL     1      -3.426  12.363  23.784  0.00  0.00    +0.000 C 
ENDBRANCH  15  17
ENDBRANCH  14  15
ENDBRANCH   8  14
ENDBRANCH   1  11
BRANCH   5  18
ATOM     18  C   UNL     1       2.158   4.095  19.464  0.00  0.00    +0.000 C 
ATOM     19  C   UNL     1       1.468   3.134  18.489  0.00  0.00    +0.000 C 
ATOM     20  C   UNL     1       2.400   2.238  17.681  0.00  0.00    +0.000 C 
ATOM     21  C   UNL     1       3.533   1.603  18.491  0.00  0.00    +0.000 C 
ATOM     22  C   UNL     1       4.118   2.419  19.646  0.00  0.00    +0.000 C 
ATOM     23  C   UNL     1       3.102   3.288  20.379  0.00  0.00    +0.000 C 
ENDBRANCH   5  18
TORSDOF 5
ENDMDL
MODEL 4
REMARK VINA RESULT:      -7.0      0.780      1.305
REMARK  Name = 
REMARK  5 active torsions:
REMARK  status: ('A' for Active; 'I' for Inactive)
REMARK    1  A    between atoms: C_2  and  C_3
REMARK    2  A    between atoms: C_3  and  O_4
REMARK    3  A    between atoms: O_4  and  C_5
REMARK    4  A    between atoms: C_8  and  C_9
REMARK    5  A    between atoms: N_13  and  C_14
REMARK                            x       y       z     vdW  Elec       q    Type
REMARK                         _______ _______ _______ _____ _____    ______ ____
ROOT
ATOM      1  C   UNL     1       2.440   7.205  19.100  0.00  0.00    +0.000 A 
ATOM      2  N   UNL     1       1.945   6.888  20.319  0.00  0.00    +0.000 NA
ATOM      3  O   UNL     1       1.230   8.051  20.670  0.00  0.00    +0.000 OA
ATOM      4  C   UNL     1       1.356   8.923  19.621  0.00  0.00    +0.000 A 
ATOM      5  N   UNL     1       0.659  10.092  19.683  0.00  0.00    +0.000 N 
ATOM      6  N   UNL     1       2.100   8.459  18.667  0.00  0.00    +0.000 NA
ATOM      7  H   UNL     1       0.260  10.374  20.566  0.00  0.00    +0.000 HD
ENDROOT
BRANCH   1  11
ATOM      8  C   UNL     1       4.712   4.476  16.675  0.00  0.00    +0.000 A 
ATOM      9  C   UNL     1       4.980   5.849  16.625  0.00  0.00    +0.000 A 
ATOM     10  C   UNL     1       4.248   6.759  17.407  0.00  0.00    +0.000 A 
ATOM     11  C   UNL     1       3.221   6.312  18.242  0.00  0.00    +0.000 A 
ATOM     12  C   UNL     1       2.970   4.927  18.294  0.00  0.00    +0.000 A 
ATOM     13  C   UNL     1       3.705   4.019  17.520  0.00  0.00    +0.000 A 
BRANCH   8  14
ATOM     14  O   UNL     1       5.486   3.684  15.870  0.00  0.00    +0.000 OA
BRANCH  14  15
ATOM     15  C   UNL     1       6.360   4.372  14.969  0.00  0.00    +0.000 C 
BRANCH  15  17
ATOM     16  C   UNL     1       5.986   3.371  12.355  0.00  0.00    +0.000 C 
ATOM     17  C   UNL     1       6.159   3.833  13.562  0.00  0.00    +0.000 C 
ENDBRANCH  15  17
ENDBRANCH  14  15
ENDBRANCH   8  14
ENDBRANCH   1  11
BRANCH   5  18
ATOM     18  C   UNL     1       0.268  10.801  18.465  0.00  0.00    +0.000 C 
ATOM     19  C   UNL     1      -0.877  10.115  17.712  0.00  0.00    +0.000 C 
ATOM     20  C   UNL     1      -2.253  10.233  18.358  0.00  0.00    +0.000 C 
ATOM     21  C   UNL     1      -2.594  11.632  18.878  0.00  0.00    +0.000 C 
ATOM     22  C   UNL     1      -1.445  12.477  19.435  0.00  0.00    +0.000 C 
ATOM     23  C   UNL     1      -0.113  12.274  18.723  0.00  0.00    +0.000 C 
ENDBRANCH   5  18
TORSDOF 5
ENDMDL
MODEL 5
REMARK VINA RESULT:      -7.0      3.304      9.546
REMARK  Name = 
REMARK  5 active torsions:
REMARK  status: ('A' for Active; 'I' for Inactive)
REMARK    1  A    between atoms: C_2  and  C_3
REMARK    2  A    between atoms: C_3  and  O_4
REMARK    3  A    between atoms: O_4  and  C_5
REMARK    4  A    between atoms: C_8  and  C_9
REMARK    5  A    between atoms: N_13  and  C_14
REMARK                            x       y       z     vdW  Elec       q    Type
REMARK                         _______ _______ _______ _____ _____    ______ ____
ROOT
ATOM      1  C   UNL     1       1.674   8.104  19.902  0.00  0.00    +0.000 A 
ATOM      2  N   UNL     1       2.205   8.486  18.717  0.00  0.00    +0.000 NA
ATOM      3  O   UNL     1       2.772   7.289  18.235  0.00  0.00    +0.000 OA
ATOM      4  C   UNL     1       2.500   6.322  19.167  0.00  0.00    +0.000 A 
ATOM      5  N   UNL     1       2.863   5.042  18.875  0.00  0.00    +0.000 N 
ATOM      6  N   UNL     1       1.864   6.781  20.198  0.00  0.00    +0.000 NA
ATOM      7  H   UNL     1       3.498   4.880  18.108  0.00  0.00    +0.000 HD
ENDROOT
BRANCH   1  11
ATOM      8  C   UNL     1      -0.591  10.728  22.446  0.00  0.00    +0.000 A 
ATOM      9  C   UNL     1       0.180   9.702  23.004  0.00  0.00    +0.000 A 
ATOM     10  C   UNL     1       0.926   8.832  22.192  0.00  0.00    +0.000 A 
ATOM     11  C   UNL     1       0.899   8.962  20.801  0.00  0.00    +0.000 A 
ATOM     12  C   UNL     1       0.131  10.006  20.252  0.00  0.00    +0.000 A 
ATOM     13  C   UNL     1      -0.607  10.879  21.063  0.00  0.00    +0.000 A 
BRANCH   8  14
ATOM     14  O   UNL     1      -1.278  11.514  23.333  0.00  0.00    +0.000 OA
BRANCH  14  15
ATOM     15  C   UNL     1      -2.350  12.287  22.784  0.00  0.00    +0.000 C 
BRANCH  15  17
ATOM     16  C   UNL     1      -4.455  12.433  24.662  0.00  0.00    +0.000 C 
ATOM     17  C   UNL     1      -3.483  12.365  23.794  0.00  0.00    +0.000 C 
ENDBRANCH  15  17
ENDBRANCH  14  15
ENDBRANCH   8  14
ENDBRANCH   1  11
BRANCH   5  18
ATOM     18  C   UNL     1       2.165   3.906  19.474  0.00  0.00    +0.000 C 
ATOM     19  C   UNL     1       1.563   2.954  18.434  0.00  0.00    +0.000 C 
ATOM     20  C   UNL     1       2.565   2.086  17.681  0.00  0.00    +0.000 C 
ATOM     21  C   UNL     1       3.646   1.453  18.560  0.00  0.00    +0.000 C 
ATOM     22  C   UNL     1       4.133   2.255  19.769  0.00  0.00    +0.000 C 
ATOM     23  C   UNL     1       3.052   3.095  20.441  0.00  0.00    +0.000 C 
ENDBRANCH   5  18
TORSDOF 5
ENDMDL
MODEL 6
REMARK VINA RESULT:      -6.9      4.032      5.212
REMARK  Name = 
REMARK  5 active torsions:
REMARK  status: ('A' for Active; 'I' for Inactive)
REMARK    1  A    between atoms: C_2  and  C_3
REMARK    2  A    between atoms: C_3  and  O_4
REMARK    3  A    between atoms: O_4  and  C_5
REMARK    4  A    between atoms: C_8  and  C_9
REMARK    5  A    between atoms: N_13  and  C_14
REMARK                            x       y       z     vdW  Elec       q    Type
REMARK                         _______ _______ _______ _____ _____    ______ ____
ROOT
ATOM      1  C   UNL     1       5.867   4.784  17.264  0.00  0.00    +0.000 A 
ATOM      2  N   UNL     1       6.715   4.455  18.266  0.00  0.00    +0.000 NA
ATOM      3  O   UNL     1       5.968   4.776  19.418  0.00  0.00    +0.000 OA
ATOM      4  C   UNL     1       4.754   5.238  18.983  0.00  0.00    +0.000 A 
ATOM      5  N   UNL     1       3.811   5.519  19.925  0.00  0.00    +0.000 N 
ATOM      6  N   UNL     1       4.666   5.283  17.691  0.00  0.00    +0.000 NA
ATOM      7  H   UNL     1       4.094   5.590  20.891  0.00  0.00    +0.000 HD
ENDROOT
BRANCH   1  11
ATOM      8  C   UNL     1       6.532   4.101  13.072  0.00  0.00    +0.000 A 
ATOM      9  C   UNL     1       7.526   4.707  13.851  0.00  0.00    +0.000 A 
ATOM     10  C   UNL     1       7.328   4.941  15.222  0.00  0.00    +0.000 A 
ATOM     11  C   UNL     1       6.123   4.590  15.836  0.00  0.00    +0.000 A 
ATOM     12  C   UNL     1       5.138   3.969  15.045  0.00  0.00    +0.000 A 
ATOM     13  C   UNL     1       5.337   3.728  13.679  0.00  0.00    +0.000 A 
BRANCH   8  14
ATOM     14  O   UNL     1       6.833   3.923  11.747  0.00  0.00    +0.000 OA
BRANCH  14  15
ATOM     15  C   UNL     1       7.665   2.800  11.440  0.00  0.00    +0.000 C 
BRANCH  15  17
ATOM     16  C   UNL     1       6.049   0.518  11.047  0.00  0.00    +0.000 C 
ATOM     17  C   UNL     1       6.796   1.572  11.228  0.00  0.00    +0.000 C 
ENDBRANCH  15  17
ENDBRANCH  14  15
ENDBRANCH   8  14
ENDBRANCH   1  11
BRANCH   5  18
ATOM     18  C   UNL     1       2.386   5.467  19.602  0.00  0.00    +0.000 C 
ATOM     19  C   UNL     1       2.065   4.511  18.448  0.00  0.00    +0.000 C 
ATOM     20  C   UNL     1       2.160   3.026  18.779  0.00  0.00    +0.000 C 
ATOM     21  C   UNL     1       1.527   2.630  20.115  0.00  0.00    +0.000 C 
ATOM     22  C   UNL     1       1.601   3.645  21.259  0.00  0.00    +0.000 C 
ATOM     23  C   UNL     1       1.507   5.100  20.816  0.00  0.00    +0.000 C 
ENDBRANCH   5  18
TORSDOF 5
ENDMDL
MODEL 7
REMARK VINA RESULT:      -6.8      2.415      8.987
REMARK  Name = 
REMARK  5 active torsions:
REMARK  status: ('A' for Active; 'I' for Inactive)
REMARK    1  A    between atoms: C_2  and  C_3
REMARK    2  A    between atoms: C_3  and  O_4
REMARK    3  A    between atoms: O_4  and  C_5
REMARK    4  A    between atoms: C_8  and  C_9
REMARK    5  A    between atoms: N_13  and  C_14
REMARK                            x       y       z     vdW  Elec       q    Type
REMARK                         _______ _______ _______ _____ _____    ______ ____
ROOT
ATOM      1  C   UNL     1       2.104   7.007  19.927  0.00  0.00    +0.000 A 
ATOM      2  N   UNL     1       2.082   5.816  20.570  0.00  0.00    +0.000 NA
ATOM      3  O   UNL     1       3.004   5.050  19.828  0.00  0.00    +0.000 OA
ATOM      4  C   UNL     1       3.491   5.868  18.843  0.00  0.00    +0.000 A 
ATOM      5  N   UNL     1       4.484   5.379  18.049  0.00  0.00    +0.000 N 
ATOM      6  N   UNL     1       2.952   7.046  18.853  0.00  0.00    +0.000 NA
ATOM      7  H   UNL     1       4.674   4.388  18.062  0.00  0.00    +0.000 HD
ENDROOT
BRANCH   1  11
ATOM      8  C   UNL     1       0.000  10.595  21.014  0.00  0.00    +0.000 A 
ATOM      9  C   UNL     1       0.173   9.572  21.953  0.00  0.00    +0.000 A 
ATOM     10  C   UNL     1       0.855   8.390  21.618  0.00  0.00    +0.000 A 
ATOM     11  C   UNL     1       1.362   8.204  20.330  0.00  0.00    +0.000 A 
ATOM     12  C   UNL     1       1.194   9.247  19.399  0.00  0.00    +0.000 A 
ATOM     13  C   UNL     1       0.521  10.429  19.735  0.00  0.00    +0.000 A 
BRANCH   8  14
ATOM     14  O   UNL     1      -0.681  11.701  21.451  0.00  0.00    +0.000 OA
BRANCH  14  15
ATOM     15  C   UNL     1      -0.961  11.751  22.853  0.00  0.00    +0.000 C 
BRANCH  15  17
ATOM     16  C   UNL     1      -3.632  12.580  23.247  0.00  0.00    +0.000 C 
ATOM     17  C   UNL     1      -2.398  12.196  23.064  0.00  0.00    +0.000 C 
ENDBRANCH  15  17
ENDBRANCH  14  15
ENDBRANCH   8  14
ENDBRANCH   1  11
BRANCH   5  18
ATOM     18  C   UNL     1       5.430   6.276  17.387  0.00  0.00    +0.000 C 
ATOM     19  C   UNL     1       6.894   5.911  17.657  0.00  0.00    +0.000 C 
ATOM     20  C   UNL     1       7.403   4.663  16.944  0.00  0.00    +0.000 C 
ATOM     21  C   UNL     1       6.993   4.559  15.473  0.00  0.00    +0.000 C 
ATOM     22  C   UNL     1       5.625   5.124  15.080  0.00  0.00    +0.000 C 
ATOM     23  C   UNL     1       5.210   6.365  15.863  0.00  0.00    +0.000 C 
ENDBRANCH   5  18
TORSDOF 5
ENDMDL
MODEL 8
REMARK VINA RESULT:      -6.8      1.810      2.210
REMARK  Name = 
REMARK  5 active torsions:
REMARK  status: ('A' for Active; 'I' for Inactive)
REMARK    1  A    between atoms: C_2  and  C_3
REMARK    2  A    between atoms: C_3  and  O_4
REMARK    3  A    between atoms: O_4  and  C_5
REMARK    4  A    between atoms: C_8  and  C_9
REMARK    5  A    between atoms: N_13  and  C_14
REMARK                            x       y       z     vdW  Elec       q    Type
REMARK                         _______ _______ _______ _____ _____    ______ ____
ROOT
ATOM      1  C   UNL     1       2.905   5.440  18.644  0.00  0.00    +0.000 A 
ATOM      2  N   UNL     1       1.906   4.577  18.944  0.00  0.00    +0.000 NA
ATOM      3  O   UNL     1       1.282   5.201  20.043  0.00  0.00    +0.000 OA
ATOM      4  C   UNL     1       1.956   6.374  20.264  0.00  0.00    +0.000 A 
ATOM      5  N   UNL     1       1.469   7.211  21.222  0.00  0.00    +0.000 N 
ATOM      6  N   UNL     1       2.956   6.539  19.458  0.00  0.00    +0.000 NA
ATOM      7  H   UNL     1       0.782   6.860  21.872  0.00  0.00    +0.000 HD
ENDROOT
BRANCH   1  11
ATOM      8  C   UNL     1       5.596   5.160  15.303  0.00  0.00    +0.000 A 
ATOM      9  C   UNL     1       5.126   3.997  15.924  0.00  0.00    +0.000 A 
ATOM     10  C   UNL     1       4.248   4.066  17.019  0.00  0.00    +0.000 A 
ATOM     11  C   UNL     1       3.838   5.302  17.524  0.00  0.00    +0.000 A 
ATOM     12  C   UNL     1       4.306   6.464  16.881  0.00  0.00    +0.000 A 
ATOM     13  C   UNL     1       5.176   6.396  15.784  0.00  0.00    +0.000 A 
BRANCH   8  14
ATOM     14  O   UNL     1       6.448   4.974  14.246  0.00  0.00    +0.000 OA
BRANCH  14  15
ATOM     15  C   UNL     1       6.478   3.655  13.691  0.00  0.00    +0.000 C 
BRANCH  15  17
ATOM     16  C   UNL     1       4.548   3.457  11.640  0.00  0.00    +0.000 C 
ATOM     17  C   UNL     1       5.439   3.549  12.588  0.00  0.00    +0.000 C 
ENDBRANCH  15  17
ENDBRANCH  14  15
ENDBRANCH   8  14
ENDBRANCH   1  11
BRANCH   5  18
ATOM     18  C   UNL     1       1.726   8.649  21.166  0.00  0.00    +0.000 C 
ATOM     19  C   UNL     1       0.791   9.390  20.204  0.00  0.00    +0.000 C 
ATOM     20  C   UNL     1      -0.649   9.551  20.681  0.00  0.00    +0.000 C 
ATOM     21  C   UNL     1      -0.790   9.976  22.145  0.00  0.00    +0.000 C 
ATOM     22  C   UNL     1       0.259   9.460  23.134  0.00  0.00    +0.000 C 
ATOM     23  C   UNL     1       1.660   9.327  22.550  0.00  0.00    +0.000 C 
ENDBRANCH   5  18
TORSDOF 5
ENDMDL
MODEL 9
REMARK VINA RESULT:      -6.7      3.999      5.077
REMARK  Name = 
REMARK  5 active torsions:
REMARK  status: ('A' for Active; 'I' for Inactive)
REMARK    1  A    between atoms: C_2  and  C_3
REMARK    2  A    between atoms: C_3  and  O_4
REMARK    3  A    between atoms: O_4  and  C_5
REMARK    4  A    between atoms: C_8  and  C_9
REMARK    5  A    between atoms: N_13  and  C_14
REMARK                            x       y       z     vdW  Elec       q    Type
REMARK                         _______ _______ _______ _____ _____    ______ ____
ROOT
ATOM      1  C   UNL     1       5.814   4.795  17.499  0.00  0.00    +0.000 A 
ATOM      2  N   UNL     1       6.680   4.594  18.519  0.00  0.00    +0.000 NA
ATOM      3  O   UNL     1       5.914   4.950  19.647  0.00  0.00    +0.000 OA
ATOM      4  C   UNL     1       4.673   5.301  19.184  0.00  0.00    +0.000 A 
ATOM      5  N   UNL     1       3.713   5.590  20.107  0.00  0.00    +0.000 N 
ATOM      6  N   UNL     1       4.583   5.247  17.893  0.00  0.00    +0.000 NA
ATOM      7  H   UNL     1       3.990   5.749  21.064  0.00  0.00    +0.000 HD
ENDROOT
BRANCH   1  11
ATOM      8  C   UNL     1       6.650   4.104  13.339  0.00  0.00    +0.000 A 
ATOM      9  C   UNL     1       5.650   3.369  13.985  0.00  0.00    +0.000 A 
ATOM     10  C   UNL     1       5.362   3.577  15.345  0.00  0.00    +0.000 A 
ATOM     11  C   UNL     1       6.083   4.514  16.088  0.00  0.00    +0.000 A 
ATOM     12  C   UNL     1       7.078   5.257  15.423  0.00  0.00    +0.000 A 
ATOM     13  C   UNL     1       7.360   5.055  14.065  0.00  0.00    +0.000 A 
BRANCH   8  14
ATOM     14  O   UNL     1       6.845   3.817  12.014  0.00  0.00    +0.000 OA
BRANCH  14  15
ATOM     15  C   UNL     1       6.189   2.643  11.525  0.00  0.00    +0.000 C 
BRANCH  15  17
ATOM     16  C   UNL     1       3.534   3.287  10.809  0.00  0.00    +0.000 C 
ATOM     17  C   UNL     1       4.760   2.989  11.139  0.00  0.00    +0.000 C 
ENDBRANCH  15  17
ENDBRANCH  14  15
ENDBRANCH   8  14
ENDBRANCH   1  11
BRANCH   5  18
ATOM     18  C   UNL     1       2.294   5.425  19.794  0.00  0.00    +0.000 C 
ATOM     19  C   UNL     1       2.044   4.467  18.624  0.00  0.00    +0.000 C 
ATOM     20  C   UNL     1       2.266   2.989  18.926  0.00  0.00    +0.000 C 
ATOM     21  C   UNL     1       1.680   2.517  20.259  0.00  0.00    +0.000 C 
ATOM     22  C   UNL     1       1.680   3.513  21.422  0.00  0.00    +0.000 C 
ATOM     23  C   UNL     1       1.460   4.963  21.007  0.00  0.00    +0.000 C 
ENDBRANCH   5  18
TORSDOF 5
ENDMDL
