MODEL 1
REMARK VINA RESULT:      -8.6      0.000      0.000
REMARK  Name = 
REMARK  11 active torsions:
REMARK  status: ('A' for Active; 'I' for Inactive)
REMARK    1  A    between atoms: C_1  and  C_2
REMARK    2  A    between atoms: N_6  and  C_7
REMARK    3  A    between atoms: C_10  and  N_11
REMARK    4  A    between atoms: C_14  and  N_15
REMARK    5  A    between atoms: N_15  and  C_16
REMARK    6  A    between atoms: N_15  and  C_17
REMARK    7  A    between atoms: C_17  and  C_18
REMARK    8  A    between atoms: C_27  and  C_28
REMARK    9  A    between atoms: N_31  and  C_32
REMARK   10  A    between atoms: C_32  and  C_33
REMARK   11  A    between atoms: C_32  and  C_34
REMARK                            x       y       z     vdW  Elec       q    Type
REMARK                         _______ _______ _______ _____ _____    ______ ____
ROOT
ATOM      1  C   UNL     1       0.775  10.172  18.705  0.00  0.00    +0.000 A 
ATOM      2  C   UNL     1       1.530   9.668  17.647  0.00  0.00    +0.000 A 
ATOM      3  C   UNL     1       2.269   8.497  17.801  0.00  0.00    +0.000 A 
ATOM      4  C   UNL     1       2.275   7.776  19.006  0.00  0.00    +0.000 A 
ATOM      5  C   UNL     1       1.577   8.329  20.080  0.00  0.00    +0.000 A 
ATOM      6  F   UNL     1       1.550   7.711  21.272  0.00  0.00    +0.000 F 
ATOM      7  C   UNL     1       0.843   9.506  19.936  0.00  0.00    +0.000 A 
ENDROOT
BRANCH   1  13
ATOM      8  C   UNL     1       1.497  16.740  19.084  0.00  0.00    +0.000 C 
ATOM      9  C   UNL     1       1.150  15.289  18.992  0.00  0.00    +0.000 A 
ATOM     10  C   UNL     1      -0.150  14.880  18.817  0.00  0.00    +0.000 A 
ATOM     11  N   UNL     1      -0.534  13.598  18.668  0.00  0.00    +0.000 NA
ATOM     12  C   UNL     1       0.430  12.676  18.728  0.00  0.00    +0.000 A 
ATOM     13  N   UNL     1       0.057  11.356  18.515  0.00  0.00    +0.000 N 
ATOM     14  N   UNL     1       1.720  12.972  18.903  0.00  0.00    +0.000 NA
ATOM     15  C   UNL     1       2.075  14.263  19.025  0.00  0.00    +0.000 A 
ATOM     16  H   UNL     1      -0.893  11.291  18.181  0.00  0.00    +0.000 HD
BRANCH  15  17
ATOM     17  C   UNL     1       3.510  14.466  19.133  0.00  0.00    +0.000 A 
ATOM     18  C   UNL     1       4.367  14.641  20.240  0.00  0.00    +0.000 A 
ATOM     19  N   UNL     1       5.635  14.852  19.887  0.00  0.00    +0.000 NA
ATOM     20  N   UNL     1       5.608  14.768  18.542  0.00  0.00    +0.000 N 
ATOM     21  C   UNL     1       4.363  14.518  18.045  0.00  0.00    +0.000 A 
BRANCH  20  22
ATOM     22  C   UNL     1       6.831  14.974  17.776  0.00  0.00    +0.000 C 
ATOM     23  C   UNL     1       7.602  16.191  18.292  0.00  0.00    +0.000 C 
ATOM     24  C   UNL     1       7.708  13.725  17.782  0.00  0.00    +0.000 C 
ENDBRANCH  20  22
ENDBRANCH  15  17
ENDBRANCH   1  13
BRANCH   4  25
ATOM     25  N   UNL     1       2.962   6.571  19.028  0.00  0.00    +0.000 N 
ATOM     26  C   UNL     1       2.273   5.294  19.214  0.00  0.00    +0.000 C 
ATOM     27  C   UNL     1       3.288   4.342  19.858  0.00  0.00    +0.000 C 
ATOM     28  C   UNL     1       4.597   4.202  19.028  0.00  0.00    +0.000 C 
ATOM     29  C   UNL     1       5.140   5.623  18.753  0.00  0.00    +0.000 C 
ATOM     30  C   UNL     1       4.086   6.492  18.090  0.00  0.00    +0.000 C 
BRANCH  28  31
ATOM     31  N   UNL     1       4.445   3.376  17.798  0.00  0.00    +0.000 NA
ATOM     32  C   UNL     1       3.173   2.645  17.750  0.00  0.00    +0.000 C 
BRANCH  31  33
ATOM     33  C   UNL     1       4.621   4.133  16.544  0.00  0.00    +0.000 C 
BRANCH  33  34
ATOM     34  C   UNL     1       5.823   3.713  15.740  0.00  0.00    +0.000 C 
ATOM     35  C   UNL     1       5.951   4.133  14.301  0.00  0.00    +0.000 C 
ATOM     36  C   UNL     1       6.874   4.714  15.336  0.00  0.00    +0.000 C 
ENDBRANCH  33  34
ENDBRANCH  31  33
ENDBRANCH  28  31
ENDBRANCH   4  25
TORSDOF 7
ENDMDL
MODEL 2
REMARK VINA RESULT:      -8.5      2.232      4.052
REMARK  Name = 
REMARK  11 active torsions:
REMARK  status: ('A' for Active; 'I' for Inactive)
REMARK    1  A    between atoms: C_1  and  C_2
REMARK    2  A    between atoms: N_6  and  C_7
REMARK    3  A    between atoms: C_10  and  N_11
REMARK    4  A    between atoms: C_14  and  N_15
REMARK    5  A    between atoms: N_15  and  C_16
REMARK    6  A    between atoms: N_15  and  C_17
REMARK    7  A    between atoms: C_17  and  C_18
REMARK    8  A    between atoms: C_27  and  C_28
REMARK    9  A    between atoms: N_31  and  C_32
REMARK   10  A    between atoms: C_32  and  C_33
REMARK   11  A    between atoms: C_32  and  C_34
REMARK                            x       y       z     vdW  Elec       q    Type
REMARK                         _______ _______ _______ _____ _____    ______ ____
ROOT
ATOM      1  C   UNL     1       1.756   6.965  20.183  0.00  0.00    +0.000 A 
ATOM      2  C   UNL     1       2.181   7.660  19.052  0.00  0.00    +0.000 A 
ATOM      3  C   UNL     1       3.188   7.141  18.241  0.00  0.00    +0.000 A 
ATOM      4  C   UNL     1       3.801   5.907  18.516  0.00  0.00    +0.000 A 
ATOM      5  C   UNL     1       3.421   5.258  19.692  0.00  0.00    +0.000 A 
ATOM      6  F   UNL     1       3.975   4.083  20.036  0.00  0.00    +0.000 F 
ATOM      7  C   UNL     1       2.421   5.777  20.513  0.00  0.00    +0.000 A 
ENDROOT
BRANCH   1  13
ATOM      8  C   UNL     1      -0.575  12.841  22.145  0.00  0.00    +0.000 C 
ATOM      9  C   UNL     1      -0.151  11.440  21.839  0.00  0.00    +0.000 A 
ATOM     10  C   UNL     1      -0.693  10.373  22.513  0.00  0.00    +0.000 A 
ATOM     11  N   UNL     1      -0.406   9.082  22.256  0.00  0.00    +0.000 NA
ATOM     12  C   UNL     1       0.492   8.851  21.296  0.00  0.00    +0.000 A 
ATOM     13  N   UNL     1       0.752   7.524  20.979  0.00  0.00    +0.000 N 
ATOM     14  N   UNL     1       1.081   9.820  20.591  0.00  0.00    +0.000 NA
ATOM     15  C   UNL     1       0.755  11.098  20.855  0.00  0.00    +0.000 A 
ATOM     16  H   UNL     1       0.092   6.904  21.423  0.00  0.00    +0.000 HD
BRANCH  15  17
ATOM     17  C   UNL     1       1.399  12.057  19.973  0.00  0.00    +0.000 A 
ATOM     18  C   UNL     1       1.353  12.248  18.575  0.00  0.00    +0.000 A 
ATOM     19  N   UNL     1       2.152  13.230  18.159  0.00  0.00    +0.000 NA
ATOM     20  N   UNL     1       2.687  13.709  19.299  0.00  0.00    +0.000 N 
ATOM     21  C   UNL     1       2.252  13.054  20.412  0.00  0.00    +0.000 A 
BRANCH  20  22
ATOM     22  C   UNL     1       3.654  14.799  19.246  0.00  0.00    +0.000 C 
ATOM     23  C   UNL     1       4.652  14.591  18.106  0.00  0.00    +0.000 C 
ATOM     24  C   UNL     1       2.960  16.153  19.128  0.00  0.00    +0.000 C 
ENDBRANCH  20  22
ENDBRANCH  15  17
ENDBRANCH   1  13
BRANCH   4  25
ATOM     25  N   UNL     1       4.722   5.430  17.595  0.00  0.00    +0.000 N 
ATOM     26  C   UNL     1       4.497   4.190  16.852  0.00  0.00    +0.000 C 
ATOM     27  C   UNL     1       5.884   3.631  16.509  0.00  0.00    +0.000 C 
ATOM     28  C   UNL     1       6.770   4.646  15.730  0.00  0.00    +0.000 C 
ATOM     29  C   UNL     1       6.795   5.968  16.530  0.00  0.00    +0.000 C 
ATOM     30  C   UNL     1       5.387   6.469  16.802  0.00  0.00    +0.000 C 
BRANCH  28  31
ATOM     31  N   UNL     1       6.374   4.822  14.305  0.00  0.00    +0.000 NA
ATOM     32  C   UNL     1       7.504   5.161  13.432  0.00  0.00    +0.000 C 
BRANCH  31  33
ATOM     33  C   UNL     1       5.648   3.669  13.739  0.00  0.00    +0.000 C 
BRANCH  33  34
ATOM     34  C   UNL     1       5.677   3.609  12.235  0.00  0.00    +0.000 C 
ATOM     35  C   UNL     1       5.583   2.282  11.533  0.00  0.00    +0.000 C 
ATOM     36  C   UNL     1       4.440   3.255  11.450  0.00  0.00    +0.000 C 
ENDBRANCH  33  34
ENDBRANCH  31  33
ENDBRANCH  28  31
ENDBRANCH   4  25
TORSDOF 7
ENDMDL
MODEL 3
REMARK VINA RESULT:      -8.5      3.918      5.723
REMARK  Name = 
REMARK  11 active torsions:
REMARK  status: ('A' for Active; 'I' for Inactive)
REMARK    1  A    between atoms: C_1  and  C_2
REMARK    2  A    between atoms: N_6  and  C_7
REMARK    3  A    between atoms: C_10  and  N_11
REMARK    4  A    between atoms: C_14  and  N_15
REMARK    5  A    between atoms: N_15  and  C_16
REMARK    6  A    between atoms: N_15  and  C_17
REMARK    7  A    between atoms: C_17  and  C_18
REMARK    8  A    between atoms: C_27  and  C_28
REMARK    9  A    between atoms: N_31  and  C_32
REMARK   10  A    between atoms: C_32  and  C_33
REMARK   11  A    between atoms: C_32  and  C_34
REMARK                            x       y       z     vdW  Elec       q    Type
REMARK                         _______ _______ _______ _____ _____    ______ ____
ROOT
ATOM      1  C   UNL     1       1.905   7.253  20.681  0.00  0.00    +0.000 A 
ATOM      2  C   UNL     1       2.445   5.977  20.843  0.00  0.00    +0.000 A 
ATOM      3  C   UNL     1       3.182   5.387  19.818  0.00  0.00    +0.000 A 
ATOM      4  C   UNL     1       3.421   6.046  18.601  0.00  0.00    +0.000 A 
ATOM      5  C   UNL     1       2.812   7.290  18.422  0.00  0.00    +0.000 A 
ATOM      6  F   UNL     1       2.976   7.975  17.279  0.00  0.00    +0.000 F 
ATOM      7  C   UNL     1       2.065   7.882  19.440  0.00  0.00    +0.000 A 
ENDROOT
BRANCH   1  13
ATOM      8  C   UNL     1      -2.130  12.332  21.999  0.00  0.00    +0.000 C 
ATOM      9  C   UNL     1      -1.206  11.162  21.886  0.00  0.00    +0.000 A 
ATOM     10  C   UNL     1      -0.807  10.463  23.000  0.00  0.00    +0.000 A 
ATOM     11  N   UNL     1      -0.026   9.367  22.974  0.00  0.00    +0.000 NA
ATOM     12  C   UNL     1       0.405   8.969  21.774  0.00  0.00    +0.000 A 
ATOM     13  N   UNL     1       1.161   7.806  21.727  0.00  0.00    +0.000 N 
ATOM     14  N   UNL     1       0.080   9.586  20.636  0.00  0.00    +0.000 NA
ATOM     15  C   UNL     1      -0.722  10.664  20.692  0.00  0.00    +0.000 A 
ATOM     16  H   UNL     1       1.149   7.323  22.613  0.00  0.00    +0.000 HD
BRANCH  15  17
ATOM     17  C   UNL     1      -1.067  11.202  19.387  0.00  0.00    +0.000 A 
ATOM     18  C   UNL     1      -0.538  12.265  18.624  0.00  0.00    +0.000 A 
ATOM     19  N   UNL     1      -1.195  12.460  17.481  0.00  0.00    +0.000 NA
ATOM     20  N   UNL     1      -2.128  11.488  17.481  0.00  0.00    +0.000 N 
ATOM     21  C   UNL     1      -2.079  10.697  18.589  0.00  0.00    +0.000 A 
BRANCH  20  22
ATOM     22  C   UNL     1      -3.078  11.392  16.378  0.00  0.00    +0.000 C 
ATOM     23  C   UNL     1      -2.612  10.368  15.342  0.00  0.00    +0.000 C 
ATOM     24  C   UNL     1      -4.481  11.067  16.880  0.00  0.00    +0.000 C 
ENDBRANCH  20  22
ENDBRANCH  15  17
ENDBRANCH   1  13
BRANCH   4  25
ATOM     25  N   UNL     1       4.248   5.416  17.683  0.00  0.00    +0.000 N 
ATOM     26  C   UNL     1       3.772   4.317  16.843  0.00  0.00    +0.000 C 
ATOM     27  C   UNL     1       5.000   3.459  16.513  0.00  0.00    +0.000 C 
ATOM     28  C   UNL     1       6.144   4.273  15.843  0.00  0.00    +0.000 C 
ATOM     29  C   UNL     1       6.444   5.497  16.738  0.00  0.00    +0.000 C 
ATOM     30  C   UNL     1       5.186   6.309  16.993  0.00  0.00    +0.000 C 
BRANCH  28  31
ATOM     31  N   UNL     1       5.879   4.627  14.422  0.00  0.00    +0.000 NA
ATOM     32  C   UNL     1       7.101   4.941  13.670  0.00  0.00    +0.000 C 
BRANCH  31  33
ATOM     33  C   UNL     1       5.101   3.612  13.687  0.00  0.00    +0.000 C 
BRANCH  33  34
ATOM     34  C   UNL     1       5.390   3.574  12.209  0.00  0.00    +0.000 C 
ATOM     35  C   UNL     1       5.534   2.252  11.504  0.00  0.00    +0.000 C 
ATOM     36  C   UNL     1       4.341   3.123  11.226  0.00  0.00    +0.000 C 
ENDBRANCH  33  34
ENDBRANCH  31  33
ENDBRANCH  28  31
ENDBRANCH   4  25
TORSDOF 7
ENDMDL
MODEL 4
REMARK VINA RESULT:      -8.4      2.299      4.154
REMARK  Name = 
REMARK  11 active torsions:
REMARK  status: ('A' for Active; 'I' for Inactive)
REMARK    1  A    between atoms: C_1  and  C_2
REMARK    2  A    between atoms: N_6  and  C_7
REMARK    3  A    between atoms: C_10  and  N_11
REMARK    4  A    between atoms: C_14  and  N_15
REMARK    5  A    between atoms: N_15  and  C_16
REMARK    6  A    between atoms: N_15  and  C_17
REMARK    7  A    between atoms: C_17  and  C_18
REMARK    8  A    between atoms: C_27  and  C_28
REMARK    9  A    between atoms: N_31  and  C_32
REMARK   10  A    between atoms: C_32  and  C_33
REMARK   11  A    between atoms: C_32  and  C_34
REMARK                            x       y       z     vdW  Elec       q    Type
REMARK                         _______ _______ _______ _____ _____    ______ ____
ROOT
ATOM      1  C   UNL     1       1.491   7.338  20.535  0.00  0.00    +0.000 A 
ATOM      2  C   UNL     1       1.982   6.042  20.687  0.00  0.00    +0.000 A 
ATOM      3  C   UNL     1       2.850   5.501  19.741  0.00  0.00    +0.000 A 
ATOM      4  C   UNL     1       3.274   6.230  18.619  0.00  0.00    +0.000 A 
ATOM      5  C   UNL     1       2.718   7.498  18.438  0.00  0.00    +0.000 A 
ATOM      6  F   UNL     1       3.057   8.251  17.379  0.00  0.00    +0.000 F 
ATOM      7  C   UNL     1       1.840   8.042  19.376  0.00  0.00    +0.000 A 
ENDROOT
BRANCH   1  13
ATOM      8  C   UNL     1      -1.190  13.036  22.575  0.00  0.00    +0.000 C 
ATOM      9  C   UNL     1      -0.643  11.677  22.276  0.00  0.00    +0.000 A 
ATOM     10  C   UNL     1      -0.866  10.620  23.125  0.00  0.00    +0.000 A 
ATOM     11  N   UNL     1      -0.458   9.358  22.897  0.00  0.00    +0.000 NA
ATOM     12  C   UNL     1       0.237   9.149  21.776  0.00  0.00    +0.000 A 
ATOM     13  N   UNL     1       0.612   7.841  21.498  0.00  0.00    +0.000 N 
ATOM     14  N   UNL     1       0.512  10.111  20.892  0.00  0.00    +0.000 NA
ATOM     15  C   UNL     1       0.070  11.357  21.137  0.00  0.00    +0.000 A 
ATOM     16  H   UNL     1       0.160   7.189  22.122  0.00  0.00    +0.000 HD
BRANCH  15  17
ATOM     17  C   UNL     1       0.362  12.299  20.070  0.00  0.00    +0.000 A 
ATOM     18  C   UNL     1      -0.348  12.677  18.910  0.00  0.00    +0.000 A 
ATOM     19  N   UNL     1       0.316  13.553  18.157  0.00  0.00    +0.000 NA
ATOM     20  N   UNL     1       1.445  13.781  18.856  0.00  0.00    +0.000 N 
ATOM     21  C   UNL     1       1.510  13.070  20.017  0.00  0.00    +0.000 A 
BRANCH  20  22
ATOM     22  C   UNL     1       2.458  14.687  18.326  0.00  0.00    +0.000 C 
ATOM     23  C   UNL     1       2.250  16.108  18.852  0.00  0.00    +0.000 C 
ATOM     24  C   UNL     1       3.866  14.187  18.634  0.00  0.00    +0.000 C 
ENDBRANCH  20  22
ENDBRANCH  15  17
ENDBRANCH   1  13
BRANCH   4  25
ATOM     25  N   UNL     1       4.216   5.640  17.789  0.00  0.00    +0.000 N 
ATOM     26  C   UNL     1       3.920   4.426  17.028  0.00  0.00    +0.000 C 
ATOM     27  C   UNL     1       5.259   3.708  16.818  0.00  0.00    +0.000 C 
ATOM     28  C   UNL     1       6.326   4.605  16.126  0.00  0.00    +0.000 C 
ATOM     29  C   UNL     1       6.428   5.924  16.925  0.00  0.00    +0.000 C 
ATOM     30  C   UNL     1       5.068   6.587  17.062  0.00  0.00    +0.000 C 
BRANCH  28  31
ATOM     31  N   UNL     1       6.088   4.809  14.670  0.00  0.00    +0.000 NA
ATOM     32  C   UNL     1       7.283   5.267  13.951  0.00  0.00    +0.000 C 
BRANCH  31  33
ATOM     33  C   UNL     1       5.526   3.630  13.984  0.00  0.00    +0.000 C 
BRANCH  33  34
ATOM     34  C   UNL     1       5.696   3.656  12.488  0.00  0.00    +0.000 C 
ATOM     35  C   UNL     1       5.706   2.369  11.709  0.00  0.00    +0.000 C 
ATOM     36  C   UNL     1       4.549   3.319  11.572  0.00  0.00    +0.000 C 
ENDBRANCH  33  34
ENDBRANCH  31  33
ENDBRANCH  28  31
ENDBRANCH   4  25
TORSDOF 7
ENDMDL
MODEL 5
REMARK VINA RESULT:      -8.3      1.942      2.557
REMARK  Name = 
REMARK  11 active torsions:
REMARK  status: ('A' for Active; 'I' for Inactive)
REMARK    1  A    between atoms: C_1  and  C_2
REMARK    2  A    between atoms: N_6  and  C_7
REMARK    3  A    between atoms: C_10  and  N_11
REMARK    4  A    between atoms: C_14  and  N_15
REMARK    5  A    between atoms: N_15  and  C_16
REMARK    6  A    between atoms: N_15  and  C_17
REMARK    7  A    between atoms: C_17  and  C_18
REMARK    8  A    between atoms: C_27  and  C_28
REMARK    9  A    between atoms: N_31  and  C_32
REMARK   10  A    between atoms: C_32  and  C_33
REMARK   11  A    between atoms: C_32  and  C_34
REMARK                            x       y       z     vdW  Elec       q    Type
REMARK                         _______ _______ _______ _____ _____    ______ ____
ROOT
ATOM      1  C   UNL     1       0.820   8.971  20.573  0.00  0.00    +0.000 A 
ATOM      2  C   UNL     1       1.094   7.764  21.215  0.00  0.00    +0.000 A 
ATOM      3  C   UNL     1       1.887   6.799  20.596  0.00  0.00    +0.000 A 
ATOM      4  C   UNL     1       2.446   7.002  19.324  0.00  0.00    +0.000 A 
ATOM      5  C   UNL     1       2.102   8.180  18.660  0.00  0.00    +0.000 A 
ATOM      6  F   UNL     1       2.580   8.440  17.432  0.00  0.00    +0.000 F 
ATOM      7  C   UNL     1       1.302   9.146  19.269  0.00  0.00    +0.000 A 
ENDROOT
BRANCH   1  13
ATOM      8  C   UNL     1       0.437  15.465  21.791  0.00  0.00    +0.000 C 
ATOM      9  C   UNL     1       0.394  13.978  21.649  0.00  0.00    +0.000 A 
ATOM     10  C   UNL     1      -0.506  13.223  22.361  0.00  0.00    +0.000 A 
ATOM     11  N   UNL     1      -0.645  11.889  22.245  0.00  0.00    +0.000 NA
ATOM     12  C   UNL     1       0.183  11.275  21.395  0.00  0.00    +0.000 A 
ATOM     13  N   UNL     1       0.011   9.908  21.221  0.00  0.00    +0.000 N 
ATOM     14  N   UNL     1       1.097  11.918  20.665  0.00  0.00    +0.000 NA
ATOM     15  C   UNL     1       1.194  13.254  20.786  0.00  0.00    +0.000 A 
ATOM     16  H   UNL     1      -0.841   9.586  21.655  0.00  0.00    +0.000 HD
BRANCH  15  17
ATOM     17  C   UNL     1       2.168  13.851  19.887  0.00  0.00    +0.000 A 
ATOM     18  C   UNL     1       2.157  14.095  18.497  0.00  0.00    +0.000 A 
ATOM     19  N   UNL     1       3.298  14.624  18.054  0.00  0.00    +0.000 NA
ATOM     20  N   UNL     1       4.037  14.765  19.172  0.00  0.00    +0.000 N 
ATOM     21  C   UNL     1       3.397  14.336  20.296  0.00  0.00    +0.000 A 
BRANCH  20  22
ATOM     22  C   UNL     1       5.391  15.299  19.085  0.00  0.00    +0.000 C 
ATOM     23  C   UNL     1       6.156  15.067  20.388  0.00  0.00    +0.000 C 
ATOM     24  C   UNL     1       6.144  14.714  17.893  0.00  0.00    +0.000 C 
ENDBRANCH  20  22
ENDBRANCH  15  17
ENDBRANCH   1  13
BRANCH   4  25
ATOM     25  N   UNL     1       3.300   6.024  18.836  0.00  0.00    +0.000 N 
ATOM     26  C   UNL     1       2.993   5.267  17.623  0.00  0.00    +0.000 C 
ATOM     27  C   UNL     1       3.701   3.913  17.764  0.00  0.00    +0.000 C 
ATOM     28  C   UNL     1       5.231   4.053  18.012  0.00  0.00    +0.000 C 
ATOM     29  C   UNL     1       5.432   5.007  19.211  0.00  0.00    +0.000 C 
ATOM     30  C   UNL     1       4.727   6.332  18.981  0.00  0.00    +0.000 C 
BRANCH  28  31
ATOM     31  N   UNL     1       6.003   4.449  16.802  0.00  0.00    +0.000 NA
ATOM     32  C   UNL     1       7.448   4.542  17.047  0.00  0.00    +0.000 C 
BRANCH  31  33
ATOM     33  C   UNL     1       5.761   3.588  15.629  0.00  0.00    +0.000 C 
BRANCH  33  34
ATOM     34  C   UNL     1       5.696   4.338  14.325  0.00  0.00    +0.000 C 
ATOM     35  C   UNL     1       6.722   4.078  13.255  0.00  0.00    +0.000 C 
ATOM     36  C   UNL     1       5.298   3.641  13.050  0.00  0.00    +0.000 C 
ENDBRANCH  33  34
ENDBRANCH  31  33
ENDBRANCH  28  31
ENDBRANCH   4  25
TORSDOF 7
ENDMDL
MODEL 6
REMARK VINA RESULT:      -8.3      1.992      2.573
REMARK  Name = 
REMARK  11 active torsions:
REMARK  status: ('A' for Active; 'I' for Inactive)
REMARK    1  A    between atoms: C_1  and  C_2
REMARK    2  A    between atoms: N_6  and  C_7
REMARK    3  A    between atoms: C_10  and  N_11
REMARK    4  A    between atoms: C_14  and  N_15
REMARK    5  A    between atoms: N_15  and  C_16
REMARK    6  A    between atoms: N_15  and  C_17
REMARK    7  A    between atoms: C_17  and  C_18
REMARK    8  A    between atoms: C_27  and  C_28
REMARK    9  A    between atoms: N_31  and  C_32
REMARK   10  A    between atoms: C_32  and  C_33
REMARK   11  A    between atoms: C_32  and  C_34
REMARK                            x       y       z     vdW  Elec       q    Type
REMARK                         _______ _______ _______ _____ _____    ______ ____
ROOT
ATOM      1  C   UNL     1       0.663   9.021  20.455  0.00  0.00    +0.000 A 
ATOM      2  C   UNL     1       0.949   7.841  21.141  0.00  0.00    +0.000 A 
ATOM      3  C   UNL     1       1.787   6.881  20.577  0.00  0.00    +0.000 A 
ATOM      4  C   UNL     1       2.383   7.064  19.318  0.00  0.00    +0.000 A 
ATOM      5  C   UNL     1       2.030   8.213  18.609  0.00  0.00    +0.000 A 
ATOM      6  F   UNL     1       2.541   8.451  17.390  0.00  0.00    +0.000 F 
ATOM      7  C   UNL     1       1.183   9.173  19.164  0.00  0.00    +0.000 A 
ENDROOT
BRANCH   1  13
ATOM      8  C   UNL     1       0.487  15.359  22.356  0.00  0.00    +0.000 C 
ATOM      9  C   UNL     1       0.373  13.904  22.030  0.00  0.00    +0.000 A 
ATOM     10  C   UNL     1      -0.698  13.162  22.464  0.00  0.00    +0.000 A 
ATOM     11  N   UNL     1      -0.901  11.865  22.164  0.00  0.00    +0.000 NA
ATOM     12  C   UNL     1       0.034  11.273  21.416  0.00  0.00    +0.000 A 
ATOM     13  N   UNL     1      -0.192   9.953  21.049  0.00  0.00    +0.000 N 
ATOM     14  N   UNL     1       1.114  11.906  20.953  0.00  0.00    +0.000 NA
ATOM     15  C   UNL     1       1.276  13.207  21.250  0.00  0.00    +0.000 A 
ATOM     16  H   UNL     1      -1.132   9.665  21.274  0.00  0.00    +0.000 HD
BRANCH  15  17
ATOM     17  C   UNL     1       2.445  13.806  20.628  0.00  0.00    +0.000 A 
ATOM     18  C   UNL     1       3.657  14.302  21.155  0.00  0.00    +0.000 A 
ATOM     19  N   UNL     1       4.453  14.825  20.223  0.00  0.00    +0.000 NA
ATOM     20  N   UNL     1       3.772  14.626  19.077  0.00  0.00    +0.000 N 
ATOM     21  C   UNL     1       2.575  14.002  19.264  0.00  0.00    +0.000 A 
BRANCH  20  22
ATOM     22  C   UNL     1       4.325  15.098  17.812  0.00  0.00    +0.000 C 
ATOM     23  C   UNL     1       3.859  16.523  17.510  0.00  0.00    +0.000 C 
ATOM     24  C   UNL     1       5.848  15.003  17.802  0.00  0.00    +0.000 C 
ENDBRANCH  20  22
ENDBRANCH  15  17
ENDBRANCH   1  13
BRANCH   4  25
ATOM     25  N   UNL     1       3.279   6.097  18.887  0.00  0.00    +0.000 N 
ATOM     26  C   UNL     1       3.016   5.274  17.707  0.00  0.00    +0.000 C 
ATOM     27  C   UNL     1       3.772   3.955  17.920  0.00  0.00    +0.000 C 
ATOM     28  C   UNL     1       5.292   4.164  18.179  0.00  0.00    +0.000 C 
ATOM     29  C   UNL     1       5.442   5.179  19.335  0.00  0.00    +0.000 C 
ATOM     30  C   UNL     1       4.692   6.465  19.034  0.00  0.00    +0.000 C 
BRANCH  28  31
ATOM     31  N   UNL     1       6.066   4.532  16.962  0.00  0.00    +0.000 NA
ATOM     32  C   UNL     1       7.515   4.580  17.194  0.00  0.00    +0.000 C 
BRANCH  31  33
ATOM     33  C   UNL     1       5.787   3.675  15.794  0.00  0.00    +0.000 C 
BRANCH  33  34
ATOM     34  C   UNL     1       5.713   4.426  14.490  0.00  0.00    +0.000 C 
ATOM     35  C   UNL     1       6.788   4.240  13.453  0.00  0.00    +0.000 C 
ATOM     36  C   UNL     1       5.403   3.712  13.201  0.00  0.00    +0.000 C 
ENDBRANCH  33  34
ENDBRANCH  31  33
ENDBRANCH  28  31
ENDBRANCH   4  25
TORSDOF 7
ENDMDL
MODEL 7
REMARK VINA RESULT:      -8.3      1.975      2.878
REMARK  Name = 
REMARK  11 active torsions:
REMARK  status: ('A' for Active; 'I' for Inactive)
REMARK    1  A    between atoms: C_1  and  C_2
REMARK    2  A    between atoms: N_6  and  C_7
REMARK    3  A    between atoms: C_10  and  N_11
REMARK    4  A    between atoms: C_14  and  N_15
REMARK    5  A    between atoms: N_15  and  C_16
REMARK    6  A    between atoms: N_15  and  C_17
REMARK    7  A    between atoms: C_17  and  C_18
REMARK    8  A    between atoms: C_27  and  C_28
REMARK    9  A    between atoms: N_31  and  C_32
REMARK   10  A    between atoms: C_32  and  C_33
REMARK   11  A    between atoms: C_32  and  C_34
REMARK                            x       y       z     vdW  Elec       q    Type
REMARK                         _______ _______ _______ _____ _____    ______ ____
ROOT
ATOM      1  C   UNL     1       1.180   8.610  19.529  0.00  0.00    +0.000 A 
ATOM      2  C   UNL     1       1.730   8.964  18.297  0.00  0.00    +0.000 A 
ATOM      3  C   UNL     1       2.755   8.205  17.737  0.00  0.00    +0.000 A 
ATOM      4  C   UNL     1       3.264   7.060  18.372  0.00  0.00    +0.000 A 
ATOM      5  C   UNL     1       2.759   6.759  19.638  0.00  0.00    +0.000 A 
ATOM      6  F   UNL     1       3.207   5.692  20.319  0.00  0.00    +0.000 F 
ATOM      7  C   UNL     1       1.739   7.520  20.209  0.00  0.00    +0.000 A 
ENDROOT
BRANCH   1  13
ATOM      8  C   UNL     1       0.146  14.646  22.040  0.00  0.00    +0.000 C 
ATOM      9  C   UNL     1       0.214  13.237  21.545  0.00  0.00    +0.000 A 
ATOM     10  C   UNL     1      -0.845  12.376  21.708  0.00  0.00    +0.000 A 
ATOM     11  N   UNL     1      -0.882  11.114  21.240  0.00  0.00    +0.000 NA
ATOM     12  C   UNL     1       0.209  10.682  20.604  0.00  0.00    +0.000 A 
ATOM     13  N   UNL     1       0.162   9.403  20.064  0.00  0.00    +0.000 N 
ATOM     14  N   UNL     1       1.291  11.438  20.403  0.00  0.00    +0.000 NA
ATOM     15  C   UNL     1       1.288  12.702  20.861  0.00  0.00    +0.000 A 
ATOM     16  H   UNL     1      -0.773   9.026  20.093  0.00  0.00    +0.000 HD
BRANCH  15  17
ATOM     17  C   UNL     1       2.485  13.450  20.515  0.00  0.00    +0.000 A 
ATOM     18  C   UNL     1       3.617  13.838  21.264  0.00  0.00    +0.000 A 
ATOM     19  N   UNL     1       4.477  14.574  20.562  0.00  0.00    +0.000 NA
ATOM     20  N   UNL     1       3.923  14.627  19.335  0.00  0.00    +0.000 N 
ATOM     21  C   UNL     1       2.741  13.952  19.251  0.00  0.00    +0.000 A 
BRANCH  20  22
ATOM     22  C   UNL     1       4.576  15.384  18.274  0.00  0.00    +0.000 C 
ATOM     23  C   UNL     1       5.788  14.629  17.729  0.00  0.00    +0.000 C 
ATOM     24  C   UNL     1       3.597  15.732  17.157  0.00  0.00    +0.000 C 
ENDBRANCH  20  22
ENDBRANCH  15  17
ENDBRANCH   1  13
BRANCH   4  25
ATOM     25  N   UNL     1       4.214   6.316  17.688  0.00  0.00    +0.000 N 
ATOM     26  C   UNL     1       3.882   5.045  17.046  0.00  0.00    +0.000 C 
ATOM     27  C   UNL     1       5.175   4.220  17.020  0.00  0.00    +0.000 C 
ATOM     28  C   UNL     1       6.350   4.959  16.317  0.00  0.00    +0.000 C 
ATOM     29  C   UNL     1       6.495   6.352  16.970  0.00  0.00    +0.000 C 
ATOM     30  C   UNL     1       5.182   7.114  16.929  0.00  0.00    +0.000 C 
BRANCH  28  31
ATOM     31  N   UNL     1       6.229   5.008  14.833  0.00  0.00    +0.000 NA
ATOM     32  C   UNL     1       7.454   5.474  14.172  0.00  0.00    +0.000 C 
BRANCH  31  33
ATOM     33  C   UNL     1       5.800   3.735  14.225  0.00  0.00    +0.000 C 
BRANCH  33  34
ATOM     34  C   UNL     1       5.911   3.708  12.724  0.00  0.00    +0.000 C 
ATOM     35  C   UNL     1       5.747   2.410  11.980  0.00  0.00    +0.000 C 
ATOM     36  C   UNL     1       4.697   3.479  11.861  0.00  0.00    +0.000 C 
ENDBRANCH  33  34
ENDBRANCH  31  33
ENDBRANCH  28  31
ENDBRANCH   4  25
TORSDOF 7
ENDMDL
MODEL 8
REMARK VINA RESULT:      -8.3      2.583     10.035
REMARK  Name = 
REMARK  11 active torsions:
REMARK  status: ('A' for Active; 'I' for Inactive)
REMARK    1  A    between atoms: C_1  and  C_2
REMARK    2  A    between atoms: N_6  and  C_7
REMARK    3  A    between atoms: C_10  and  N_11
REMARK    4  A    between atoms: C_14  and  N_15
REMARK    5  A    between atoms: N_15  and  C_16
REMARK    6  A    between atoms: N_15  and  C_17
REMARK    7  A    between atoms: C_17  and  C_18
REMARK    8  A    between atoms: C_27  and  C_28
REMARK    9  A    between atoms: N_31  and  C_32
REMARK   10  A    between atoms: C_32  and  C_33
REMARK   11  A    between atoms: C_32  and  C_34
REMARK                            x       y       z     vdW  Elec       q    Type
REMARK                         _______ _______ _______ _____ _____    ______ ____
ROOT
ATOM      1  C   UNL     1       1.466   7.490  20.636  0.00  0.00    +0.000 A 
ATOM      2  C   UNL     1       0.962   8.505  21.448  0.00  0.00    +0.000 A 
ATOM      3  C   UNL     1       0.833   9.803  20.958  0.00  0.00    +0.000 A 
ATOM      4  C   UNL     1       1.186  10.138  19.640  0.00  0.00    +0.000 A 
ATOM      5  C   UNL     1       1.760   9.131  18.862  0.00  0.00    +0.000 A 
ATOM      6  F   UNL     1       2.142   9.376  17.598  0.00  0.00    +0.000 F 
ATOM      7  C   UNL     1       1.901   7.832  19.349  0.00  0.00    +0.000 A 
ENDROOT
BRANCH   1  13
ATOM      8  C   UNL     1       4.451   1.703  19.447  0.00  0.00    +0.000 C 
ATOM      9  C   UNL     1       3.671   2.917  19.838  0.00  0.00    +0.000 A 
ATOM     10  C   UNL     1       2.734   2.865  20.842  0.00  0.00    +0.000 A 
ATOM     11  N   UNL     1       2.035   3.925  21.289  0.00  0.00    +0.000 NA
ATOM     12  C   UNL     1       2.262   5.091  20.677  0.00  0.00    +0.000 A 
ATOM     13  N   UNL     1       1.592   6.204  21.168  0.00  0.00    +0.000 N 
ATOM     14  N   UNL     1       3.144   5.241  19.687  0.00  0.00    +0.000 NA
ATOM     15  C   UNL     1       3.845   4.169  19.279  0.00  0.00    +0.000 A 
ATOM     16  H   UNL     1       1.132   6.000  22.043  0.00  0.00    +0.000 HD
BRANCH  15  17
ATOM     17  C   UNL     1       4.828   4.471  18.252  0.00  0.00    +0.000 A 
ATOM     18  C   UNL     1       6.196   4.811  18.312  0.00  0.00    +0.000 A 
ATOM     19  N   UNL     1       6.722   5.064  17.114  0.00  0.00    +0.000 NA
ATOM     20  N   UNL     1       5.699   4.843  16.266  0.00  0.00    +0.000 N 
ATOM     21  C   UNL     1       4.551   4.467  16.896  0.00  0.00    +0.000 A 
BRANCH  20  22
ATOM     22  C   UNL     1       5.885   5.048  14.834  0.00  0.00    +0.000 C 
ATOM     23  C   UNL     1       7.359   5.279  14.501  0.00  0.00    +0.000 C 
ATOM     24  C   UNL     1       5.314   3.884  14.028  0.00  0.00    +0.000 C 
ENDBRANCH  20  22
ENDBRANCH  15  17
ENDBRANCH   1  13
BRANCH   4  25
ATOM     25  N   UNL     1       0.928  11.433  19.217  0.00  0.00    +0.000 N 
ATOM     26  C   UNL     1      -0.384  12.055  19.397  0.00  0.00    +0.000 C 
ATOM     27  C   UNL     1      -0.527  13.098  18.280  0.00  0.00    +0.000 C 
ATOM     28  C   UNL     1       0.633  14.135  18.269  0.00  0.00    +0.000 C 
ATOM     29  C   UNL     1       1.967  13.356  18.247  0.00  0.00    +0.000 C 
ATOM     30  C   UNL     1       2.043  12.369  19.398  0.00  0.00    +0.000 C 
BRANCH  28  31
ATOM     31  N   UNL     1       0.551  15.142  19.363  0.00  0.00    +0.000 NA
ATOM     32  C   UNL     1       1.772  15.946  19.497  0.00  0.00    +0.000 C 
BRANCH  31  33
ATOM     33  C   UNL     1      -0.616  16.039  19.264  0.00  0.00    +0.000 C 
BRANCH  33  34
ATOM     34  C   UNL     1      -0.282  17.423  18.772  0.00  0.00    +0.000 C 
ATOM     35  C   UNL     1      -0.518  17.787  17.331  0.00  0.00    +0.000 C 
ATOM     36  C   UNL     1      -1.369  18.400  18.409  0.00  0.00    +0.000 C 
ENDBRANCH  33  34
ENDBRANCH  31  33
ENDBRANCH  28  31
ENDBRANCH   4  25
TORSDOF 7
ENDMDL
MODEL 9
REMARK VINA RESULT:      -8.2      3.796      6.745
REMARK  Name = 
REMARK  11 active torsions:
REMARK  status: ('A' for Active; 'I' for Inactive)
REMARK    1  A    between atoms: C_1  and  C_2
REMARK    2  A    between atoms: N_6  and  C_7
REMARK    3  A    between atoms: C_10  and  N_11
REMARK    4  A    between atoms: C_14  and  N_15
REMARK    5  A    between atoms: N_15  and  C_16
REMARK    6  A    between atoms: N_15  and  C_17
REMARK    7  A    between atoms: C_17  and  C_18
REMARK    8  A    between atoms: C_27  and  C_28
REMARK    9  A    between atoms: N_31  and  C_32
REMARK   10  A    between atoms: C_32  and  C_33
REMARK   11  A    between atoms: C_32  and  C_34
REMARK                            x       y       z     vdW  Elec       q    Type
REMARK                         _______ _______ _______ _____ _____    ______ ____
ROOT
ATOM      1  C   UNL     1       0.749  11.059  20.823  0.00  0.00    +0.000 A 
ATOM      2  C   UNL     1       0.887   9.994  21.712  0.00  0.00    +0.000 A 
ATOM      3  C   UNL     1       1.210   8.722  21.245  0.00  0.00    +0.000 A 
ATOM      4  C   UNL     1       1.423   8.463  19.881  0.00  0.00    +0.000 A 
ATOM      5  C   UNL     1       1.208   9.519  18.994  0.00  0.00    +0.000 A 
ATOM      6  F   UNL     1       1.371   9.348  17.672  0.00  0.00    +0.000 F 
ATOM      7  C   UNL     1       0.874  10.793  19.454  0.00  0.00    +0.000 A 
ENDROOT
BRANCH   1  13
ATOM      8  C   UNL     1      -4.240  15.409  20.878  0.00  0.00    +0.000 C 
ATOM      9  C   UNL     1      -3.006  14.566  20.929  0.00  0.00    +0.000 A 
ATOM     10  C   UNL     1      -1.830  15.060  21.440  0.00  0.00    +0.000 A 
ATOM     11  N   UNL     1      -0.696  14.346  21.573  0.00  0.00    +0.000 NA
ATOM     12  C   UNL     1      -0.732  13.083  21.143  0.00  0.00    +0.000 A 
ATOM     13  N   UNL     1       0.411  12.318  21.328  0.00  0.00    +0.000 N 
ATOM     14  N   UNL     1      -1.823  12.514  20.623  0.00  0.00    +0.000 NA
ATOM     15  C   UNL     1      -2.947  13.246  20.526  0.00  0.00    +0.000 A 
ATOM     16  H   UNL     1       1.077  12.790  21.921  0.00  0.00    +0.000 HD
BRANCH  15  17
ATOM     17  C   UNL     1      -4.087  12.499  20.020  0.00  0.00    +0.000 A 
ATOM     18  C   UNL     1      -4.359  11.911  18.766  0.00  0.00    +0.000 A 
ATOM     19  N   UNL     1      -5.569  11.355  18.705  0.00  0.00    +0.000 NA
ATOM     20  N   UNL     1      -6.067  11.545  19.943  0.00  0.00    +0.000 N 
ATOM     21  C   UNL     1      -5.211  12.206  20.771  0.00  0.00    +0.000 A 
BRANCH  20  22
ATOM     22  C   UNL     1      -7.414  11.085  20.262  0.00  0.00    +0.000 C 
ATOM     23  C   UNL     1      -7.475   9.558  20.308  0.00  0.00    +0.000 C 
ATOM     24  C   UNL     1      -7.914  11.696  21.568  0.00  0.00    +0.000 C 
ENDBRANCH  20  22
ENDBRANCH  15  17
ENDBRANCH   1  13
BRANCH   4  25
ATOM     25  N   UNL     1       1.837   7.188  19.527  0.00  0.00    +0.000 N 
ATOM     26  C   UNL     1       2.813   6.963  18.461  0.00  0.00    +0.000 C 
ATOM     27  C   UNL     1       2.523   5.567  17.893  0.00  0.00    +0.000 C 
ATOM     28  C   UNL     1       2.553   4.454  18.980  0.00  0.00    +0.000 C 
ATOM     29  C   UNL     1       1.613   4.884  20.128  0.00  0.00    +0.000 C 
ATOM     30  C   UNL     1       1.984   6.260  20.653  0.00  0.00    +0.000 C 
BRANCH  28  31
ATOM     31  N   UNL     1       3.924   4.096  19.438  0.00  0.00    +0.000 NA
ATOM     32  C   UNL     1       4.010   2.739  19.991  0.00  0.00    +0.000 C 
BRANCH  31  33
ATOM     33  C   UNL     1       4.964   4.270  18.406  0.00  0.00    +0.000 C 
BRANCH  33  34
ATOM     34  C   UNL     1       6.091   5.178  18.822  0.00  0.00    +0.000 C 
ATOM     35  C   UNL     1       7.458   5.009  18.215  0.00  0.00    +0.000 C 
ATOM     36  C   UNL     1       6.634   6.221  17.880  0.00  0.00    +0.000 C 
ENDBRANCH  33  34
ENDBRANCH  31  33
ENDBRANCH  28  31
ENDBRANCH   4  25
TORSDOF 7
ENDMDL
