MODEL 1
REMARK VINA RESULT:      -8.4      0.000      0.000
REMARK  Name = 
REMARK  7 active torsions:
REMARK  status: ('A' for Active; 'I' for Inactive)
REMARK    1  A    between atoms: C_1  and  C_2
REMARK    2  A    between atoms: C_2  and  O_3
REMARK    3  A    between atoms: O_3  and  C_4
REMARK    4  A    between atoms: C_7  and  C_8
REMARK    5  A    between atoms: C_8  and  C_9
REMARK    6  A    between atoms: C_14  and  N_15
REMARK    7  A    between atoms: C_17  and  C_18
REMARK                            x       y       z     vdW  Elec       q    Type
REMARK                         _______ _______ _______ _____ _____    ______ ____
ROOT
ATOM      1  C   UNL     1       7.031   4.912  17.412  0.00  0.00    +0.000 C 
ATOM      2  O   UNL     1       7.920   4.331  18.036  0.00  0.00    +0.000 OA
ATOM      3  N   UNL     1       5.712   4.916  17.869  0.00  0.00    +0.000 N 
ATOM      4  C   UNL     1       5.443   4.419  19.219  0.00  0.00    +0.000 C 
ATOM      5  C   UNL     1       4.217   3.517  19.247  0.00  0.00    +0.000 C 
ATOM      6  C   UNL     1       2.998   4.194  18.615  0.00  0.00    +0.000 C 
ATOM      7  C   UNL     1       3.341   4.728  17.221  0.00  0.00    +0.000 C 
ATOM      8  C   UNL     1       4.596   5.596  17.211  0.00  0.00    +0.000 C 
ENDROOT
BRANCH   6   9
ATOM      9  N   UNL     1       2.389   5.185  19.493  0.00  0.00    +0.000 N 
ATOM     10  N   UNL     1       2.226   6.508  19.172  0.00  0.00    +0.000 NA
ATOM     11  C   UNL     1       1.704   6.997  20.258  0.00  0.00    +0.000 A 
ATOM     12  O   UNL     1       1.540   6.127  21.281  0.00  0.00    +0.000 OA
ATOM     13  C   UNL     1       2.019   4.949  20.798  0.00  0.00    +0.000 A 
ATOM     14  O   UNL     1       2.091   3.915  21.436  0.00  0.00    +0.000 OA
BRANCH  11  15
ATOM     15  C   UNL     1       1.319   8.376  20.557  0.00  0.00    +0.000 A 
ATOM     16  C   UNL     1       1.168   9.306  19.519  0.00  0.00    +0.000 A 
ATOM     17  C   UNL     1       0.731  10.601  19.801  0.00  0.00    +0.000 A 
ATOM     18  C   UNL     1       0.444  10.970  21.114  0.00  0.00    +0.000 A 
ATOM     19  C   UNL     1       0.617  10.053  22.154  0.00  0.00    +0.000 A 
ATOM     20  C   UNL     1       1.064   8.757  21.879  0.00  0.00    +0.000 A 
ENDBRANCH  11  15
ENDBRANCH   6   9
BRANCH   1  21
ATOM     21  C   UNL     1       7.312   5.665  16.112  0.00  0.00    +0.000 C 
BRANCH  21  25
ATOM     22  C   UNL     1       6.060   3.627  12.508  0.00  0.00    +0.000 A 
ATOM     23  C   UNL     1       5.431   3.361  13.724  0.00  0.00    +0.000 A 
ATOM     24  C   UNL     1       5.830   4.024  14.886  0.00  0.00    +0.000 A 
ATOM     25  C   UNL     1       6.886   4.943  14.852  0.00  0.00    +0.000 A 
ATOM     26  C   UNL     1       7.524   5.194  13.630  0.00  0.00    +0.000 A 
ATOM     27  C   UNL     1       7.119   4.532  12.467  0.00  0.00    +0.000 A 
BRANCH  22  28
ATOM     28  O   UNL     1       5.563   2.935  11.437  0.00  0.00    +0.000 OA
BRANCH  28  30
ATOM     29  C   UNL     1       3.627   3.790  10.351  0.00  0.00    +0.000 C 
ATOM     30  C   UNL     1       4.143   2.804  11.381  0.00  0.00    +0.000 C 
ENDBRANCH  28  30
ENDBRANCH  22  28
ENDBRANCH  21  25
ENDBRANCH   1  21
TORSDOF 6
ENDMDL
MODEL 2
REMARK VINA RESULT:      -8.3      0.689      1.230
REMARK  Name = 
REMARK  7 active torsions:
REMARK  status: ('A' for Active; 'I' for Inactive)
REMARK    1  A    between atoms: C_1  and  C_2
REMARK    2  A    between atoms: C_2  and  O_3
REMARK    3  A    between atoms: O_3  and  C_4
REMARK    4  A    between atoms: C_7  and  C_8
REMARK    5  A    between atoms: C_8  and  C_9
REMARK    6  A    between atoms: C_14  and  N_15
REMARK    7  A    between atoms: C_17  and  C_18
REMARK                            x       y       z     vdW  Elec       q    Type
REMARK                         _______ _______ _______ _____ _____    ______ ____
ROOT
ATOM      1  C   UNL     1       7.013   5.087  17.551  0.00  0.00    +0.000 C 
ATOM      2  O   UNL     1       7.904   4.518  18.184  0.00  0.00    +0.000 OA
ATOM      3  N   UNL     1       5.687   5.057  17.984  0.00  0.00    +0.000 N 
ATOM      4  C   UNL     1       5.404   4.538  19.324  0.00  0.00    +0.000 C 
ATOM      5  C   UNL     1       4.199   3.610  19.319  0.00  0.00    +0.000 C 
ATOM      6  C   UNL     1       2.976   4.268  18.673  0.00  0.00    +0.000 C 
ATOM      7  C   UNL     1       3.333   4.827  17.292  0.00  0.00    +0.000 C 
ATOM      8  C   UNL     1       4.569   5.721  17.315  0.00  0.00    +0.000 C 
ENDROOT
BRANCH   6   9
ATOM      9  N   UNL     1       2.330   5.236  19.551  0.00  0.00    +0.000 N 
ATOM     10  N   UNL     1       2.199   6.571  19.270  0.00  0.00    +0.000 NA
ATOM     11  C   UNL     1       1.624   7.027  20.343  0.00  0.00    +0.000 A 
ATOM     12  O   UNL     1       1.395   6.125  21.324  0.00  0.00    +0.000 OA
ATOM     13  C   UNL     1       1.887   4.958  20.825  0.00  0.00    +0.000 A 
ATOM     14  O   UNL     1       1.913   3.901  21.428  0.00  0.00    +0.000 OA
BRANCH  11  15
ATOM     15  C   UNL     1       1.238   8.400  20.670  0.00  0.00    +0.000 A 
ATOM     16  C   UNL     1       1.145   9.366  19.659  0.00  0.00    +0.000 A 
ATOM     17  C   UNL     1       0.708  10.655  19.964  0.00  0.00    +0.000 A 
ATOM     18  C   UNL     1       0.361  10.982  21.273  0.00  0.00    +0.000 A 
ATOM     19  C   UNL     1       0.474  10.029  22.288  0.00  0.00    +0.000 A 
ATOM     20  C   UNL     1       0.922   8.738  21.991  0.00  0.00    +0.000 A 
ENDBRANCH  11  15
ENDBRANCH   6   9
BRANCH   1  21
ATOM     21  C   UNL     1       7.301   5.862  16.265  0.00  0.00    +0.000 C 
BRANCH  21  25
ATOM     22  C   UNL     1       6.588   3.654  12.615  0.00  0.00    +0.000 A 
ATOM     23  C   UNL     1       7.468   4.734  12.625  0.00  0.00    +0.000 A 
ATOM     24  C   UNL     1       7.705   5.443  13.804  0.00  0.00    +0.000 A 
ATOM     25  C   UNL     1       7.038   5.096  14.987  0.00  0.00    +0.000 A 
ATOM     26  C   UNL     1       6.142   4.019  14.966  0.00  0.00    +0.000 A 
ATOM     27  C   UNL     1       5.912   3.308  13.784  0.00  0.00    +0.000 A 
BRANCH  22  28
ATOM     28  O   UNL     1       6.461   3.023  11.408  0.00  0.00    +0.000 OA
BRANCH  28  30
ATOM     29  C   UNL     1       6.281   0.674  11.071  0.00  0.00    +0.000 C 
ATOM     30  C   UNL     1       5.517   1.953  11.357  0.00  0.00    +0.000 C 
ENDBRANCH  28  30
ENDBRANCH  22  28
ENDBRANCH  21  25
ENDBRANCH   1  21
TORSDOF 6
ENDMDL
MODEL 3
REMARK VINA RESULT:      -8.1      4.205      6.731
REMARK  Name = 
REMARK  7 active torsions:
REMARK  status: ('A' for Active; 'I' for Inactive)
REMARK    1  A    between atoms: C_1  and  C_2
REMARK    2  A    between atoms: C_2  and  O_3
REMARK    3  A    between atoms: O_3  and  C_4
REMARK    4  A    between atoms: C_7  and  C_8
REMARK    5  A    between atoms: C_8  and  C_9
REMARK    6  A    between atoms: C_14  and  N_15
REMARK    7  A    between atoms: C_17  and  C_18
REMARK                            x       y       z     vdW  Elec       q    Type
REMARK                         _______ _______ _______ _____ _____    ______ ____
ROOT
ATOM      1  C   UNL     1       2.066   8.473  18.378  0.00  0.00    +0.000 C 
ATOM      2  O   UNL     1       2.536   8.764  17.277  0.00  0.00    +0.000 OA
ATOM      3  N   UNL     1       1.349   9.406  19.126  0.00  0.00    +0.000 N 
ATOM      4  C   UNL     1       0.963  10.664  18.485  0.00  0.00    +0.000 C 
ATOM      5  C   UNL     1       1.204  11.855  19.401  0.00  0.00    +0.000 C 
ATOM      6  C   UNL     1       0.542  11.664  20.768  0.00  0.00    +0.000 C 
ATOM      7  C   UNL     1       0.948  10.320  21.381  0.00  0.00    +0.000 C 
ATOM      8  C   UNL     1       0.735   9.147  20.429  0.00  0.00    +0.000 C 
ENDROOT
BRANCH   6   9
ATOM      9  N   UNL     1      -0.899  11.883  20.729  0.00  0.00    +0.000 N 
ATOM     10  N   UNL     1      -1.674  11.739  19.608  0.00  0.00    +0.000 NA
ATOM     11  C   UNL     1      -2.851  12.086  20.036  0.00  0.00    +0.000 A 
ATOM     12  O   UNL     1      -2.921  12.481  21.328  0.00  0.00    +0.000 OA
ATOM     13  C   UNL     1      -1.640  12.384  21.777  0.00  0.00    +0.000 A 
ATOM     14  O   UNL     1      -1.269  12.696  22.893  0.00  0.00    +0.000 OA
BRANCH  11  15
ATOM     15  C   UNL     1      -4.114  12.168  19.301  0.00  0.00    +0.000 A 
ATOM     16  C   UNL     1      -4.182  11.737  17.970  0.00  0.00    +0.000 A 
ATOM     17  C   UNL     1      -5.403  11.749  17.294  0.00  0.00    +0.000 A 
ATOM     18  C   UNL     1      -6.555  12.189  17.945  0.00  0.00    +0.000 A 
ATOM     19  C   UNL     1      -6.486  12.641  19.264  0.00  0.00    +0.000 A 
ATOM     20  C   UNL     1      -5.264  12.641  19.943  0.00  0.00    +0.000 A 
ENDBRANCH  11  15
ENDBRANCH   6   9
BRANCH   1  21
ATOM     21  C   UNL     1       2.231   7.081  18.987  0.00  0.00    +0.000 C 
BRANCH  21  25
ATOM     22  C   UNL     1       4.711   4.356  16.720  0.00  0.00    +0.000 A 
ATOM     23  C   UNL     1       5.150   5.651  16.989  0.00  0.00    +0.000 A 
ATOM     24  C   UNL     1       4.353   6.529  17.727  0.00  0.00    +0.000 A 
ATOM     25  C   UNL     1       3.090   6.130  18.182  0.00  0.00    +0.000 A 
ATOM     26  C   UNL     1       2.648   4.831  17.895  0.00  0.00    +0.000 A 
ATOM     27  C   UNL     1       3.450   3.953  17.160  0.00  0.00    +0.000 A 
BRANCH  22  28
ATOM     28  O   UNL     1       5.590   3.583  16.013  0.00  0.00    +0.000 OA
BRANCH  28  30
ATOM     29  C   UNL     1       6.136   3.897  13.719  0.00  0.00    +0.000 C 
ATOM     30  C   UNL     1       6.480   4.283  15.145  0.00  0.00    +0.000 C 
ENDBRANCH  28  30
ENDBRANCH  22  28
ENDBRANCH  21  25
ENDBRANCH   1  21
TORSDOF 6
ENDMDL
MODEL 4
REMARK VINA RESULT:      -7.9      6.557     10.098
REMARK  Name = 
REMARK  7 active torsions:
REMARK  status: ('A' for Active; 'I' for Inactive)
REMARK    1  A    between atoms: C_1  and  C_2
REMARK    2  A    between atoms: C_2  and  O_3
REMARK    3  A    between atoms: O_3  and  C_4
REMARK    4  A    between atoms: C_7  and  C_8
REMARK    5  A    between atoms: C_8  and  C_9
REMARK    6  A    between atoms: C_14  and  N_15
REMARK    7  A    between atoms: C_17  and  C_18
REMARK                            x       y       z     vdW  Elec       q    Type
REMARK                         _______ _______ _______ _____ _____    ______ ____
ROOT
ATOM      1  C   UNL     1       1.608  12.583  19.991  0.00  0.00    +0.000 C 
ATOM      2  O   UNL     1       1.336  12.465  21.187  0.00  0.00    +0.000 OA
ATOM      3  N   UNL     1       2.498  13.561  19.545  0.00  0.00    +0.000 N 
ATOM      4  C   UNL     1       3.283  14.293  20.541  0.00  0.00    +0.000 C 
ATOM      5  C   UNL     1       3.318  15.784  20.237  0.00  0.00    +0.000 C 
ATOM      6  C   UNL     1       3.780  16.061  18.804  0.00  0.00    +0.000 C 
ATOM      7  C   UNL     1       2.954  15.245  17.804  0.00  0.00    +0.000 C 
ATOM      8  C   UNL     1       2.899  13.761  18.153  0.00  0.00    +0.000 C 
ENDROOT
BRANCH   6   9
ATOM      9  N   UNL     1       5.221  15.911  18.639  0.00  0.00    +0.000 N 
ATOM     10  N   UNL     1       5.838  14.754  18.238  0.00  0.00    +0.000 NA
ATOM     11  C   UNL     1       7.096  15.076  18.292  0.00  0.00    +0.000 A 
ATOM     12  O   UNL     1       7.371  16.327  18.725  0.00  0.00    +0.000 OA
ATOM     13  C   UNL     1       6.150  16.866  18.988  0.00  0.00    +0.000 A 
ATOM     14  O   UNL     1       5.964  17.978  19.447  0.00  0.00    +0.000 OA
BRANCH  11  15
ATOM     15  C   UNL     1       8.272  14.254  18.003  0.00  0.00    +0.000 A 
ATOM     16  C   UNL     1       9.533  14.850  17.873  0.00  0.00    +0.000 A 
ATOM     17  C   UNL     1      10.663  14.057  17.668  0.00  0.00    +0.000 A 
ATOM     18  C   UNL     1      10.536  12.670  17.595  0.00  0.00    +0.000 A 
ATOM     19  C   UNL     1       9.277  12.075  17.701  0.00  0.00    +0.000 A 
ATOM     20  C   UNL     1       8.141  12.865  17.895  0.00  0.00    +0.000 A 
ENDBRANCH  11  15
ENDBRANCH   6   9
BRANCH   1  21
ATOM     21  C   UNL     1       0.998  11.670  18.927  0.00  0.00    +0.000 C 
BRANCH  21  25
ATOM     22  C   UNL     1       2.126   7.508  19.271  0.00  0.00    +0.000 A 
ATOM     23  C   UNL     1       2.359   8.207  18.087  0.00  0.00    +0.000 A 
ATOM     24  C   UNL     1       2.002   9.552  17.978  0.00  0.00    +0.000 A 
ATOM     25  C   UNL     1       1.378  10.210  19.046  0.00  0.00    +0.000 A 
ATOM     26  C   UNL     1       1.132   9.498  20.227  0.00  0.00    +0.000 A 
ATOM     27  C   UNL     1       1.496   8.152  20.335  0.00  0.00    +0.000 A 
BRANCH  22  28
ATOM     28  O   UNL     1       2.544   6.206  19.265  0.00  0.00    +0.000 OA
BRANCH  28  30
ATOM     29  C   UNL     1       2.374   4.409  17.714  0.00  0.00    +0.000 C 
ATOM     30  C   UNL     1       3.066   5.722  18.028  0.00  0.00    +0.000 C 
ENDBRANCH  28  30
ENDBRANCH  22  28
ENDBRANCH  21  25
ENDBRANCH   1  21
TORSDOF 6
ENDMDL
MODEL 5
REMARK VINA RESULT:      -7.8      5.255      8.108
REMARK  Name = 
REMARK  7 active torsions:
REMARK  status: ('A' for Active; 'I' for Inactive)
REMARK    1  A    between atoms: C_1  and  C_2
REMARK    2  A    between atoms: C_2  and  O_3
REMARK    3  A    between atoms: O_3  and  C_4
REMARK    4  A    between atoms: C_7  and  C_8
REMARK    5  A    between atoms: C_8  and  C_9
REMARK    6  A    between atoms: C_14  and  N_15
REMARK    7  A    between atoms: C_17  and  C_18
REMARK                            x       y       z     vdW  Elec       q    Type
REMARK                         _______ _______ _______ _____ _____    ______ ____
ROOT
ATOM      1  C   UNL     1       8.413   8.680  18.388  0.00  0.00    +0.000 C 
ATOM      2  O   UNL     1       9.050   8.772  19.438  0.00  0.00    +0.000 OA
ATOM      3  N   UNL     1       7.784   7.488  18.026  0.00  0.00    +0.000 N 
ATOM      4  C   UNL     1       7.695   6.418  19.022  0.00  0.00    +0.000 C 
ATOM      5  C   UNL     1       8.029   5.063  18.415  0.00  0.00    +0.000 C 
ATOM      6  C   UNL     1       7.190   4.776  17.167  0.00  0.00    +0.000 C 
ATOM      7  C   UNL     1       7.286   5.939  16.174  0.00  0.00    +0.000 C 
ATOM      8  C   UNL     1       6.988   7.291  16.815  0.00  0.00    +0.000 C 
ENDROOT
BRANCH   6   9
ATOM      9  N   UNL     1       5.822   4.387  17.488  0.00  0.00    +0.000 N 
ATOM     10  N   UNL     1       5.329   4.265  18.761  0.00  0.00    +0.000 NA
ATOM     11  C   UNL     1       4.114   3.853  18.553  0.00  0.00    +0.000 A 
ATOM     12  O   UNL     1       3.768   3.656  17.260  0.00  0.00    +0.000 OA
ATOM     13  C   UNL     1       4.892   3.970  16.561  0.00  0.00    +0.000 A 
ATOM     14  O   UNL     1       5.008   3.878  15.353  0.00  0.00    +0.000 OA
BRANCH  11  15
ATOM     15  C   UNL     1       3.075   3.512  19.525  0.00  0.00    +0.000 A 
ATOM     16  C   UNL     1       1.723   3.653  19.189  0.00  0.00    +0.000 A 
ATOM     17  C   UNL     1       0.735   3.260  20.093  0.00  0.00    +0.000 A 
ATOM     18  C   UNL     1       1.094   2.726  21.330  0.00  0.00    +0.000 A 
ATOM     19  C   UNL     1       2.441   2.606  21.677  0.00  0.00    +0.000 A 
ATOM     20  C   UNL     1       3.436   3.008  20.780  0.00  0.00    +0.000 A 
ENDBRANCH  11  15
ENDBRANCH   6   9
BRANCH   1  21
ATOM     21  C   UNL     1       8.265   9.857  17.424  0.00  0.00    +0.000 C 
BRANCH  21  25
ATOM     22  C   UNL     1      10.207  13.501  18.713  0.00  0.00    +0.000 A 
ATOM     23  C   UNL     1       8.951  13.546  18.110  0.00  0.00    +0.000 A 
ATOM     24  C   UNL     1       8.320  12.370  17.701  0.00  0.00    +0.000 A 
ATOM     25  C   UNL     1       8.954  11.131  17.863  0.00  0.00    +0.000 A 
ATOM     26  C   UNL     1      10.223  11.094  18.454  0.00  0.00    +0.000 A 
ATOM     27  C   UNL     1      10.850  12.274  18.868  0.00  0.00    +0.000 A 
BRANCH  22  28
ATOM     28  O   UNL     1      10.709  14.715  19.094  0.00  0.00    +0.000 OA
BRANCH  28  30
ATOM     29  C   UNL     1      10.326  14.976  21.428  0.00  0.00    +0.000 C 
ATOM     30  C   UNL     1      11.375  14.748  20.357  0.00  0.00    +0.000 C 
ENDBRANCH  28  30
ENDBRANCH  22  28
ENDBRANCH  21  25
ENDBRANCH   1  21
TORSDOF 6
ENDMDL
MODEL 6
REMARK VINA RESULT:      -7.8      4.480      7.089
REMARK  Name = 
REMARK  7 active torsions:
REMARK  status: ('A' for Active; 'I' for Inactive)
REMARK    1  A    between atoms: C_1  and  C_2
REMARK    2  A    between atoms: C_2  and  O_3
REMARK    3  A    between atoms: O_3  and  C_4
REMARK    4  A    between atoms: C_7  and  C_8
REMARK    5  A    between atoms: C_8  and  C_9
REMARK    6  A    between atoms: C_14  and  N_15
REMARK    7  A    between atoms: C_17  and  C_18
REMARK                            x       y       z     vdW  Elec       q    Type
REMARK                         _______ _______ _______ _____ _____    ______ ____
ROOT
ATOM      1  C   UNL     1       1.626   8.876  18.480  0.00  0.00    +0.000 C 
ATOM      2  O   UNL     1       1.764   9.004  17.262  0.00  0.00    +0.000 OA
ATOM      3  N   UNL     1       0.949   9.835  19.234  0.00  0.00    +0.000 N 
ATOM      4  C   UNL     1       0.203  10.877  18.526  0.00  0.00    +0.000 C 
ATOM      5  C   UNL     1       0.434  12.247  19.147  0.00  0.00    +0.000 C 
ATOM      6  C   UNL     1       0.157  12.244  20.652  0.00  0.00    +0.000 C 
ATOM      7  C   UNL     1       0.930  11.115  21.341  0.00  0.00    +0.000 C 
ATOM      8  C   UNL     1       0.714   9.759  20.676  0.00  0.00    +0.000 C 
ENDROOT
BRANCH   6   9
ATOM      9  N   UNL     1      -1.268  12.255  20.960  0.00  0.00    +0.000 N 
ATOM     10  N   UNL     1      -2.263  12.339  20.021  0.00  0.00    +0.000 NA
ATOM     11  C   UNL     1      -3.337  12.372  20.753  0.00  0.00    +0.000 A 
ATOM     12  O   UNL     1      -3.143  12.354  22.092  0.00  0.00    +0.000 OA
ATOM     13  C   UNL     1      -1.791  12.314  22.233  0.00  0.00    +0.000 A 
ATOM     14  O   UNL     1      -1.202  12.333  23.299  0.00  0.00    +0.000 OA
BRANCH  11  15
ATOM     15  C   UNL     1      -4.735  12.484  20.337  0.00  0.00    +0.000 A 
ATOM     16  C   UNL     1      -5.077  12.375  18.983  0.00  0.00    +0.000 A 
ATOM     17  C   UNL     1      -6.418  12.411  18.597  0.00  0.00    +0.000 A 
ATOM     18  C   UNL     1      -7.417  12.555  19.559  0.00  0.00    +0.000 A 
ATOM     19  C   UNL     1      -7.077  12.687  20.907  0.00  0.00    +0.000 A 
ATOM     20  C   UNL     1      -5.735  12.662  21.299  0.00  0.00    +0.000 A 
ENDBRANCH  11  15
ENDBRANCH   6   9
BRANCH   1  21
ATOM     21  C   UNL     1       2.177   7.667  19.236  0.00  0.00    +0.000 C 
BRANCH  21  25
ATOM     22  C   UNL     1       4.498   4.939  16.811  0.00  0.00    +0.000 A 
ATOM     23  C   UNL     1       3.345   4.500  17.460  0.00  0.00    +0.000 A 
ATOM     24  C   UNL     1       2.591   5.382  18.237  0.00  0.00    +0.000 A 
ATOM     25  C   UNL     1       2.999   6.712  18.399  0.00  0.00    +0.000 A 
ATOM     26  C   UNL     1       4.168   7.143  17.757  0.00  0.00    +0.000 A 
ATOM     27  C   UNL     1       4.918   6.258  16.976  0.00  0.00    +0.000 A 
BRANCH  22  28
ATOM     28  O   UNL     1       5.135   3.990  16.059  0.00  0.00    +0.000 OA
BRANCH  28  30
ATOM     29  C   UNL     1       6.135   3.767  13.912  0.00  0.00    +0.000 C 
ATOM     30  C   UNL     1       6.225   4.452  15.262  0.00  0.00    +0.000 C 
ENDBRANCH  28  30
ENDBRANCH  22  28
ENDBRANCH  21  25
ENDBRANCH   1  21
TORSDOF 6
ENDMDL
MODEL 7
REMARK VINA RESULT:      -7.8      4.647      7.544
REMARK  Name = 
REMARK  7 active torsions:
REMARK  status: ('A' for Active; 'I' for Inactive)
REMARK    1  A    between atoms: C_1  and  C_2
REMARK    2  A    between atoms: C_2  and  O_3
REMARK    3  A    between atoms: O_3  and  C_4
REMARK    4  A    between atoms: C_7  and  C_8
REMARK    5  A    between atoms: C_8  and  C_9
REMARK    6  A    between atoms: C_14  and  N_15
REMARK    7  A    between atoms: C_17  and  C_18
REMARK                            x       y       z     vdW  Elec       q    Type
REMARK                         _______ _______ _______ _____ _____    ______ ____
ROOT
ATOM      1  C   UNL     1       1.480   8.816  19.413  0.00  0.00    +0.000 C 
ATOM      2  O   UNL     1       2.064   8.317  20.376  0.00  0.00    +0.000 OA
ATOM      3  N   UNL     1       0.645   9.923  19.570  0.00  0.00    +0.000 N 
ATOM      4  C   UNL     1       0.654  10.626  20.854  0.00  0.00    +0.000 C 
ATOM      5  C   UNL     1      -0.756  10.964  21.315  0.00  0.00    +0.000 C 
ATOM      6  C   UNL     1      -1.541  11.717  20.238  0.00  0.00    +0.000 C 
ATOM      7  C   UNL     1      -1.491  10.962  18.907  0.00  0.00    +0.000 C 
ATOM      8  C   UNL     1      -0.070  10.597  18.486  0.00  0.00    +0.000 C 
ENDROOT
BRANCH   6   9
ATOM      9  N   UNL     1      -1.151  13.118  20.136  0.00  0.00    +0.000 N 
ATOM     10  N   UNL     1      -0.580  13.685  19.026  0.00  0.00    +0.000 NA
ATOM     11  C   UNL     1      -0.363  14.905  19.415  0.00  0.00    +0.000 A 
ATOM     12  O   UNL     1      -0.704  15.191  20.693  0.00  0.00    +0.000 OA
ATOM     13  C   UNL     1      -1.187  14.016  21.180  0.00  0.00    +0.000 A 
ATOM     14  O   UNL     1      -1.561  13.840  22.325  0.00  0.00    +0.000 OA
BRANCH  11  15
ATOM     15  C   UNL     1       0.256  16.011  18.684  0.00  0.00    +0.000 A 
ATOM     16  C   UNL     1       1.647  16.057  18.521  0.00  0.00    +0.000 A 
ATOM     17  C   UNL     1       2.228  17.074  17.763  0.00  0.00    +0.000 A 
ATOM     18  C   UNL     1       1.424  18.043  17.164  0.00  0.00    +0.000 A 
ATOM     19  C   UNL     1       0.039  18.014  17.344  0.00  0.00    +0.000 A 
ATOM     20  C   UNL     1      -0.548  17.003  18.112  0.00  0.00    +0.000 A 
ENDBRANCH  11  15
ENDBRANCH   6   9
BRANCH   1  21
ATOM     21  C   UNL     1       1.635   8.266  17.995  0.00  0.00    +0.000 C 
BRANCH  21  25
ATOM     22  C   UNL     1       4.689   5.243  17.497  0.00  0.00    +0.000 A 
ATOM     23  C   UNL     1       3.394   4.883  17.867  0.00  0.00    +0.000 A 
ATOM     24  C   UNL     1       2.406   5.858  18.021  0.00  0.00    +0.000 A 
ATOM     25  C   UNL     1       2.710   7.212  17.834  0.00  0.00    +0.000 A 
ATOM     26  C   UNL     1       4.017   7.569  17.478  0.00  0.00    +0.000 A 
ATOM     27  C   UNL     1       5.003   6.590  17.320  0.00  0.00    +0.000 A 
BRANCH  22  28
ATOM     28  O   UNL     1       5.560   4.199  17.352  0.00  0.00    +0.000 OA
BRANCH  28  30
ATOM     29  C   UNL     1       5.984   3.917  15.027  0.00  0.00    +0.000 C 
ATOM     30  C   UNL     1       6.569   4.359  16.355  0.00  0.00    +0.000 C 
ENDBRANCH  28  30
ENDBRANCH  22  28
ENDBRANCH  21  25
ENDBRANCH   1  21
TORSDOF 6
ENDMDL
MODEL 8
REMARK VINA RESULT:      -7.8      5.318      8.190
REMARK  Name = 
REMARK  7 active torsions:
REMARK  status: ('A' for Active; 'I' for Inactive)
REMARK    1  A    between atoms: C_1  and  C_2
REMARK    2  A    between atoms: C_2  and  O_3
REMARK    3  A    between atoms: O_3  and  C_4
REMARK    4  A    between atoms: C_7  and  C_8
REMARK    5  A    between atoms: C_8  and  C_9
REMARK    6  A    between atoms: C_14  and  N_15
REMARK    7  A    between atoms: C_17  and  C_18
REMARK                            x       y       z     vdW  Elec       q    Type
REMARK                         _______ _______ _______ _____ _____    ______ ____
ROOT
ATOM      1  C   UNL     1       8.500   8.401  18.595  0.00  0.00    +0.000 C 
ATOM      2  O   UNL     1       9.214   8.313  19.596  0.00  0.00    +0.000 OA
ATOM      3  N   UNL     1       7.795   7.297  18.113  0.00  0.00    +0.000 N 
ATOM      4  C   UNL     1       7.731   6.095  18.945  0.00  0.00    +0.000 C 
ATOM      5  C   UNL     1       7.960   4.835  18.123  0.00  0.00    +0.000 C 
ATOM      6  C   UNL     1       7.023   4.765  16.914  0.00  0.00    +0.000 C 
ATOM      7  C   UNL     1       7.100   6.059  16.098  0.00  0.00    +0.000 C 
ATOM      8  C   UNL     1       6.908   7.310  16.950  0.00  0.00    +0.000 C 
ENDROOT
BRANCH   6   9
ATOM      9  N   UNL     1       5.665   4.378  17.278  0.00  0.00    +0.000 N 
ATOM     10  N   UNL     1       5.229   4.203  18.566  0.00  0.00    +0.000 NA
ATOM     11  C   UNL     1       4.000   3.815  18.394  0.00  0.00    +0.000 A 
ATOM     12  O   UNL     1       3.593   3.683  17.111  0.00  0.00    +0.000 OA
ATOM     13  C   UNL     1       4.689   4.016  16.377  0.00  0.00    +0.000 A 
ATOM     14  O   UNL     1       4.750   3.979  15.162  0.00  0.00    +0.000 OA
BRANCH  11  15
ATOM     15  C   UNL     1       3.001   3.442  19.396  0.00  0.00    +0.000 A 
ATOM     16  C   UNL     1       3.389   2.763  20.558  0.00  0.00    +0.000 A 
ATOM     17  C   UNL     1       2.446   2.472  21.544  0.00  0.00    +0.000 A 
ATOM     18  C   UNL     1       1.117   2.859  21.374  0.00  0.00    +0.000 A 
ATOM     19  C   UNL     1       0.723   3.515  20.206  0.00  0.00    +0.000 A 
ATOM     20  C   UNL     1       1.661   3.800  19.210  0.00  0.00    +0.000 A 
ENDBRANCH  11  15
ENDBRANCH   6   9
BRANCH   1  21
ATOM     21  C   UNL     1       8.337   9.712  17.828  0.00  0.00    +0.000 C 
BRANCH  21  25
ATOM     22  C   UNL     1      10.853  12.933  19.246  0.00  0.00    +0.000 A 
ATOM     23  C   UNL     1       9.732  12.539  19.976  0.00  0.00    +0.000 A 
ATOM     24  C   UNL     1       8.924  11.495  19.522  0.00  0.00    +0.000 A 
ATOM     25  C   UNL     1       9.211  10.848  18.313  0.00  0.00    +0.000 A 
ATOM     26  C   UNL     1      10.330  11.259  17.577  0.00  0.00    +0.000 A 
ATOM     27  C   UNL     1      11.140  12.302  18.036  0.00  0.00    +0.000 A 
BRANCH  22  28
ATOM     28  O   UNL     1      11.580  13.948  19.805  0.00  0.00    +0.000 OA
BRANCH  28  30
ATOM     29  C   UNL     1      11.729  16.190  20.586  0.00  0.00    +0.000 C 
ATOM     30  C   UNL     1      10.827  14.980  20.441  0.00  0.00    +0.000 C 
ENDBRANCH  28  30
ENDBRANCH  22  28
ENDBRANCH  21  25
ENDBRANCH   1  21
TORSDOF 6
ENDMDL
MODEL 9
REMARK VINA RESULT:      -7.8      4.506      7.153
REMARK  Name = 
REMARK  7 active torsions:
REMARK  status: ('A' for Active; 'I' for Inactive)
REMARK    1  A    between atoms: C_1  and  C_2
REMARK    2  A    between atoms: C_2  and  O_3
REMARK    3  A    between atoms: O_3  and  C_4
REMARK    4  A    between atoms: C_7  and  C_8
REMARK    5  A    between atoms: C_8  and  C_9
REMARK    6  A    between atoms: C_14  and  N_15
REMARK    7  A    between atoms: C_17  and  C_18
REMARK                            x       y       z     vdW  Elec       q    Type
REMARK                         _______ _______ _______ _____ _____    ______ ____
ROOT
ATOM      1  C   UNL     1       1.847   8.880  18.371  0.00  0.00    +0.000 C 
ATOM      2  O   UNL     1       2.245   9.052  17.218  0.00  0.00    +0.000 OA
ATOM      3  N   UNL     1       1.142   9.877  19.047  0.00  0.00    +0.000 N 
ATOM      4  C   UNL     1       0.679  11.039  18.287  0.00  0.00    +0.000 C 
ATOM      5  C   UNL     1       0.932  12.336  19.042  0.00  0.00    +0.000 C 
ATOM      6  C   UNL     1       0.353  12.291  20.459  0.00  0.00    +0.000 C 
ATOM      7  C   UNL     1       0.836  11.040  21.199  0.00  0.00    +0.000 C 
ATOM      8  C   UNL     1       0.610   9.757  20.404  0.00  0.00    +0.000 C 
ENDROOT
BRANCH   6   9
ATOM      9  N   UNL     1      -1.094  12.466  20.479  0.00  0.00    +0.000 N 
ATOM     10  N   UNL     1      -1.959  11.879  19.592  0.00  0.00    +0.000 NA
ATOM     11  C   UNL     1      -3.108  12.360  19.961  0.00  0.00    +0.000 A 
ATOM     12  O   UNL     1      -3.081  13.239  20.988  0.00  0.00    +0.000 OA
ATOM     13  C   UNL     1      -1.763  13.339  21.308  0.00  0.00    +0.000 A 
ATOM     14  O   UNL     1      -1.309  14.076  22.165  0.00  0.00    +0.000 OA
BRANCH  11  15
ATOM     15  C   UNL     1      -4.433  12.131  19.384  0.00  0.00    +0.000 A 
ATOM     16  C   UNL     1      -5.581  12.295  20.169  0.00  0.00    +0.000 A 
ATOM     17  C   UNL     1      -6.845  12.145  19.597  0.00  0.00    +0.000 A 
ATOM     18  C   UNL     1      -6.965  11.834  18.243  0.00  0.00    +0.000 A 
ATOM     19  C   UNL     1      -5.822  11.646  17.463  0.00  0.00    +0.000 A 
ATOM     20  C   UNL     1      -4.553  11.784  18.033  0.00  0.00    +0.000 A 
ENDBRANCH  11  15
ENDBRANCH   6   9
BRANCH   1  21
ATOM     21  C   UNL     1       2.091   7.575  19.128  0.00  0.00    +0.000 C 
BRANCH  21  25
ATOM     22  C   UNL     1       4.413   4.645  16.952  0.00  0.00    +0.000 A 
ATOM     23  C   UNL     1       3.144   4.325  17.431  0.00  0.00    +0.000 A 
ATOM     24  C   UNL     1       2.391   5.272  18.127  0.00  0.00    +0.000 A 
ATOM     25  C   UNL     1       2.912   6.548  18.379  0.00  0.00    +0.000 A 
ATOM     26  C   UNL     1       4.195   6.858  17.908  0.00  0.00    +0.000 A 
ATOM     27  C   UNL     1       4.945   5.908  17.207  0.00  0.00    +0.000 A 
BRANCH  22  28
ATOM     28  O   UNL     1       5.041   3.643  16.263  0.00  0.00    +0.000 OA
BRANCH  28  30
ATOM     29  C   UNL     1       5.918   4.083  14.096  0.00  0.00    +0.000 C 
ATOM     30  C   UNL     1       6.237   4.010  15.577  0.00  0.00    +0.000 C 
ENDBRANCH  28  30
ENDBRANCH  22  28
ENDBRANCH  21  25
ENDBRANCH   1  21
TORSDOF 6
ENDMDL
