MODEL 1
REMARK VINA RESULT:      -7.8      0.000      0.000
REMARK  Name = 
REMARK  5 active torsions:
REMARK  status: ('A' for Active; 'I' for Inactive)
REMARK    1  A    between atoms: C_1  and  O_2
REMARK    2  A    between atoms: O_2  and  C_3
REMARK    3  A    between atoms: N_12  and  C_13
REMARK    4  A    between atoms: C_17  and  C_18
REMARK    5  A    between atoms: C_19  and  C_20
REMARK                            x       y       z     vdW  Elec       q    Type
REMARK                         _______ _______ _______ _____ _____    ______ ____
ROOT
ATOM      1  C   UNL     1       6.033   4.194  14.531  0.00  0.00    +0.000 A 
ATOM      2  C   UNL     1       7.186   4.751  15.074  0.00  0.00    +0.000 A 
ATOM      3  C   UNL     1       7.175   5.247  16.387  0.00  0.00    +0.000 A 
ATOM      4  C   UNL     1       6.011   5.184  17.166  0.00  0.00    +0.000 A 
ATOM      5  C   UNL     1       4.834   4.758  16.571  0.00  0.00    +0.000 A 
ATOM      6  C   UNL     1       4.851   4.236  15.268  0.00  0.00    +0.000 A 
ATOM      7  C   UNL     1       3.627   4.683  17.431  0.00  0.00    +0.000 C 
ATOM      8  C   UNL     1       2.385   5.223  17.003  0.00  0.00    +0.000 C 
ATOM      9  C   UNL     1       2.128   4.616  18.367  0.00  0.00    +0.000 C 
ATOM     10  N   UNL     1       3.770   4.035  19.330  0.00  0.00    +0.000 NA
ATOM     11  C   UNL     1       4.205   2.940  20.256  0.00  0.00    +0.000 C 
ATOM     12  C   UNL     1       4.828   5.101  19.533  0.00  0.00    +0.000 C 
ATOM     13  C   UNL     1       6.012   5.550  18.627  0.00  0.00    +0.000 C 
ATOM     14  C   UNL     1       3.625   5.717  19.117  0.00  0.00    +0.000 C 
ATOM     15  C   UNL     1       2.464   5.158  20.587  0.00  0.00    +0.000 C 
ATOM     16  C   UNL     1       1.624   6.287  21.166  0.00  0.00    +0.000 C 
ATOM     17  C   UNL     1       1.554   3.571  20.286  0.00  0.00    +0.000 C 
ATOM     18  C   UNL     1       1.175   2.805  21.553  0.00  0.00    +0.000 C 
ATOM     19  C   UNL     1       2.063   2.355  18.978  0.00  0.00    +0.000 C 
ATOM     20  O   UNL     1       1.596   1.210  18.998  0.00  0.00    +0.000 OA
ATOM     21  C   UNL     1       3.171   2.843  17.599  0.00  0.00    +0.000 C 
ENDROOT
BRANCH   1  23
ATOM     22  C   UNL     1       6.889   4.001  12.331  0.00  0.00    +0.000 C 
ATOM     23  O   UNL     1       5.927   3.603  13.303  0.00  0.00    +0.000 OA
ENDBRANCH   1  23
TORSDOF 1
ENDMDL
MODEL 2
REMARK VINA RESULT:      -6.2      8.718     12.394
REMARK  Name = 
REMARK  5 active torsions:
REMARK  status: ('A' for Active; 'I' for Inactive)
REMARK    1  A    between atoms: C_1  and  O_2
REMARK    2  A    between atoms: O_2  and  C_3
REMARK    3  A    between atoms: N_12  and  C_13
REMARK    4  A    between atoms: C_17  and  C_18
REMARK    5  A    between atoms: C_19  and  C_20
REMARK                            x       y       z     vdW  Elec       q    Type
REMARK                         _______ _______ _______ _____ _____    ______ ____
ROOT
ATOM      1  C   UNL     1      -4.879  13.703  22.794  0.00  0.00    +0.000 A 
ATOM      2  C   UNL     1      -4.550  13.028  23.966  0.00  0.00    +0.000 A 
ATOM      3  C   UNL     1      -3.410  12.211  24.008  0.00  0.00    +0.000 A 
ATOM      4  C   UNL     1      -2.590  12.068  22.880  0.00  0.00    +0.000 A 
ATOM      5  C   UNL     1      -3.000  12.630  21.682  0.00  0.00    +0.000 A 
ATOM      6  C   UNL     1      -4.125  13.470  21.646  0.00  0.00    +0.000 A 
ATOM      7  C   UNL     1      -2.097  12.478  20.516  0.00  0.00    +0.000 C 
ATOM      8  C   UNL     1      -2.593  12.063  19.251  0.00  0.00    +0.000 C 
ATOM      9  C   UNL     1      -1.109  12.298  19.060  0.00  0.00    +0.000 C 
ATOM     10  N   UNL     1      -0.104  12.615  20.749  0.00  0.00    +0.000 NA
ATOM     11  C   UNL     1       1.052  13.436  21.234  0.00  0.00    +0.000 C 
ATOM     12  C   UNL     1      -0.230  11.536  21.805  0.00  0.00    +0.000 C 
ATOM     13  C   UNL     1      -1.274  11.338  22.942  0.00  0.00    +0.000 C 
ATOM     14  C   UNL     1      -0.736  11.045  20.579  0.00  0.00    +0.000 C 
ATOM     15  C   UNL     1       0.880  11.203  19.490  0.00  0.00    +0.000 C 
ATOM     16  C   UNL     1       1.186   9.961  18.665  0.00  0.00    +0.000 C 
ATOM     17  C   UNL     1       1.039  12.811  18.581  0.00  0.00    +0.000 C 
ATOM     18  C   UNL     1       2.476  13.225  18.267  0.00  0.00    +0.000 C 
ATOM     19  C   UNL     1       0.066  14.324  19.042  0.00  0.00    +0.000 C 
ATOM     20  O   UNL     1       0.402  15.425  18.588  0.00  0.00    +0.000 OA
ATOM     21  C   UNL     1      -1.440  14.211  20.084  0.00  0.00    +0.000 C 
ENDROOT
BRANCH   1  23
ATOM     22  C   UNL     1      -6.997  14.452  23.546  0.00  0.00    +0.000 C 
ATOM     23  O   UNL     1      -5.908  14.591  22.640  0.00  0.00    +0.000 OA
ENDBRANCH   1  23
TORSDOF 1
ENDMDL
MODEL 3
REMARK VINA RESULT:      -6.1      2.022      3.206
REMARK  Name = 
REMARK  5 active torsions:
REMARK  status: ('A' for Active; 'I' for Inactive)
REMARK    1  A    between atoms: C_1  and  O_2
REMARK    2  A    between atoms: O_2  and  C_3
REMARK    3  A    between atoms: N_12  and  C_13
REMARK    4  A    between atoms: C_17  and  C_18
REMARK    5  A    between atoms: C_19  and  C_20
REMARK                            x       y       z     vdW  Elec       q    Type
REMARK                         _______ _______ _______ _____ _____    ______ ____
ROOT
ATOM      1  C   UNL     1       6.852   4.984  14.865  0.00  0.00    +0.000 A 
ATOM      2  C   UNL     1       6.415   3.785  14.310  0.00  0.00    +0.000 A 
ATOM      3  C   UNL     1       5.439   3.023  14.969  0.00  0.00    +0.000 A 
ATOM      4  C   UNL     1       4.890   3.457  16.183  0.00  0.00    +0.000 A 
ATOM      5  C   UNL     1       5.429   4.576  16.795  0.00  0.00    +0.000 A 
ATOM      6  C   UNL     1       6.386   5.355  16.125  0.00  0.00    +0.000 A 
ATOM      7  C   UNL     1       4.809   5.020  18.068  0.00  0.00    +0.000 C 
ATOM      8  C   UNL     1       5.605   5.345  19.200  0.00  0.00    +0.000 C 
ATOM      9  C   UNL     1       4.169   5.586  19.616  0.00  0.00    +0.000 C 
ATOM     10  N   UNL     1       2.814   4.938  18.310  0.00  0.00    +0.000 NA
ATOM     11  C   UNL     1       1.467   5.339  17.791  0.00  0.00    +0.000 C 
ATOM     12  C   UNL     1       2.907   3.472  17.937  0.00  0.00    +0.000 C 
ATOM     13  C   UNL     1       3.725   2.751  16.826  0.00  0.00    +0.000 C 
ATOM     14  C   UNL     1       3.716   3.712  19.071  0.00  0.00    +0.000 C 
ATOM     15  C   UNL     1       2.342   4.351  20.305  0.00  0.00    +0.000 C 
ATOM     16  C   UNL     1       2.411   3.710  21.684  0.00  0.00    +0.000 C 
ATOM     17  C   UNL     1       2.102   6.190  20.301  0.00  0.00    +0.000 C 
ATOM     18  C   UNL     1       0.706   6.651  20.720  0.00  0.00    +0.000 C 
ATOM     19  C   UNL     1       2.704   7.277  18.921  0.00  0.00    +0.000 C 
ATOM     20  O   UNL     1       2.288   8.439  18.838  0.00  0.00    +0.000 OA
ATOM     21  C   UNL     1       3.975   6.697  17.732  0.00  0.00    +0.000 C 
ENDROOT
BRANCH   1  23
ATOM     22  C   UNL     1       8.164   5.545  12.973  0.00  0.00    +0.000 C 
ATOM     23  O   UNL     1       7.731   5.862  14.293  0.00  0.00    +0.000 OA
ENDBRANCH   1  23
TORSDOF 1
ENDMDL
MODEL 4
REMARK VINA RESULT:      -6.0     10.297     12.838
REMARK  Name = 
REMARK  5 active torsions:
REMARK  status: ('A' for Active; 'I' for Inactive)
REMARK    1  A    between atoms: C_1  and  O_2
REMARK    2  A    between atoms: O_2  and  C_3
REMARK    3  A    between atoms: N_12  and  C_13
REMARK    4  A    between atoms: C_17  and  C_18
REMARK    5  A    between atoms: C_19  and  C_20
REMARK                            x       y       z     vdW  Elec       q    Type
REMARK                         _______ _______ _______ _____ _____    ______ ____
ROOT
ATOM      1  C   UNL     1       7.452  13.176  23.843  0.00  0.00    +0.000 A 
ATOM      2  C   UNL     1       6.197  13.541  23.365  0.00  0.00    +0.000 A 
ATOM      3  C   UNL     1       6.072  14.123  22.095  0.00  0.00    +0.000 A 
ATOM      4  C   UNL     1       7.201  14.339  21.292  0.00  0.00    +0.000 A 
ATOM      5  C   UNL     1       8.456  14.103  21.830  0.00  0.00    +0.000 A 
ATOM      6  C   UNL     1       8.580  13.495  23.090  0.00  0.00    +0.000 A 
ATOM      7  C   UNL     1       9.626  14.321  20.945  0.00  0.00    +0.000 C 
ATOM      8  C   UNL     1      10.758  15.056  21.391  0.00  0.00    +0.000 C 
ATOM      9  C   UNL     1      11.080  14.609  19.980  0.00  0.00    +0.000 C 
ATOM     10  N   UNL     1       9.546  13.797  19.005  0.00  0.00    +0.000 NA
ATOM     11  C   UNL     1       9.295  12.710  18.006  0.00  0.00    +0.000 C 
ATOM     12  C   UNL     1       8.301  14.654  18.905  0.00  0.00    +0.000 C 
ATOM     13  C   UNL     1       7.084  14.803  19.864  0.00  0.00    +0.000 C 
ATOM     14  C   UNL     1       9.379  15.456  19.345  0.00  0.00    +0.000 C 
ATOM     15  C   UNL     1      10.575  15.237  17.815  0.00  0.00    +0.000 C 
ATOM     16  C   UNL     1      11.169  16.544  17.310  0.00  0.00    +0.000 C 
ATOM     17  C   UNL     1      11.778  13.834  17.976  0.00  0.00    +0.000 C 
ATOM     18  C   UNL     1      12.252  13.247  16.647  0.00  0.00    +0.000 C 
ATOM     19  C   UNL     1      11.550  12.453  19.195  0.00  0.00    +0.000 C 
ATOM     20  O   UNL     1      12.223  11.421  19.078  0.00  0.00    +0.000 OA
ATOM     21  C   UNL     1      10.416  12.619  20.628  0.00  0.00    +0.000 C 
ENDROOT
BRANCH   1  23
ATOM     22  C   UNL     1       6.580  11.959  25.679  0.00  0.00    +0.000 C 
ATOM     23  O   UNL     1       7.707  12.528  25.020  0.00  0.00    +0.000 OA
ENDBRANCH   1  23
TORSDOF 1
ENDMDL
MODEL 5
REMARK VINA RESULT:      -6.0      8.238     10.975
REMARK  Name = 
REMARK  5 active torsions:
REMARK  status: ('A' for Active; 'I' for Inactive)
REMARK    1  A    between atoms: C_1  and  O_2
REMARK    2  A    between atoms: O_2  and  C_3
REMARK    3  A    between atoms: N_12  and  C_13
REMARK    4  A    between atoms: C_17  and  C_18
REMARK    5  A    between atoms: C_19  and  C_20
REMARK                            x       y       z     vdW  Elec       q    Type
REMARK                         _______ _______ _______ _____ _____    ______ ____
ROOT
ATOM      1  C   UNL     1       0.091  10.081  18.256  0.00  0.00    +0.000 A 
ATOM      2  C   UNL     1      -1.059  10.126  17.474  0.00  0.00    +0.000 A 
ATOM      3  C   UNL     1      -2.200  10.796  17.941  0.00  0.00    +0.000 A 
ATOM      4  C   UNL     1      -2.196  11.429  19.192  0.00  0.00    +0.000 A 
ATOM      5  C   UNL     1      -1.098  11.260  20.021  0.00  0.00    +0.000 A 
ATOM      6  C   UNL     1       0.053  10.614  19.543  0.00  0.00    +0.000 A 
ATOM      7  C   UNL     1      -1.119  11.962  21.327  0.00  0.00    +0.000 C 
ATOM      8  C   UNL     1      -0.777  11.287  22.530  0.00  0.00    +0.000 C 
ATOM      9  C   UNL     1      -1.084  12.716  22.926  0.00  0.00    +0.000 C 
ATOM     10  N   UNL     1      -1.870  13.822  21.471  0.00  0.00    +0.000 NA
ATOM     11  C   UNL     1      -1.825  15.238  20.981  0.00  0.00    +0.000 C 
ATOM     12  C   UNL     1      -3.135  13.277  20.838  0.00  0.00    +0.000 C 
ATOM     13  C   UNL     1      -3.340  12.296  19.648  0.00  0.00    +0.000 C 
ATOM     14  C   UNL     1      -2.868  12.562  22.028  0.00  0.00    +0.000 C 
ATOM     15  C   UNL     1      -2.937  14.042  23.304  0.00  0.00    +0.000 C 
ATOM     16  C   UNL     1      -3.769  13.744  24.543  0.00  0.00    +0.000 C 
ATOM     17  C   UNL     1      -1.302  14.853  23.628  0.00  0.00    +0.000 C 
ATOM     18  C   UNL     1      -1.392  16.314  24.069  0.00  0.00    +0.000 C 
ATOM     19  C   UNL     1       0.158  14.656  22.497  0.00  0.00    +0.000 C 
ATOM     20  O   UNL     1       1.123  15.421  22.612  0.00  0.00    +0.000 OA
ATOM     21  C   UNL     1       0.241  13.292  21.273  0.00  0.00    +0.000 C 
ENDROOT
BRANCH   1  23
ATOM     22  C   UNL     1       1.801   8.515  18.741  0.00  0.00    +0.000 C 
ATOM     23  O   UNL     1       1.291   9.538  17.890  0.00  0.00    +0.000 OA
ENDBRANCH   1  23
TORSDOF 1
ENDMDL
MODEL 6
REMARK VINA RESULT:      -5.9      9.983     13.189
REMARK  Name = 
REMARK  5 active torsions:
REMARK  status: ('A' for Active; 'I' for Inactive)
REMARK    1  A    between atoms: C_1  and  O_2
REMARK    2  A    between atoms: O_2  and  C_3
REMARK    3  A    between atoms: N_12  and  C_13
REMARK    4  A    between atoms: C_17  and  C_18
REMARK    5  A    between atoms: C_19  and  C_20
REMARK                            x       y       z     vdW  Elec       q    Type
REMARK                         _______ _______ _______ _____ _____    ______ ____
ROOT
ATOM      1  C   UNL     1      -0.217  10.873  21.906  0.00  0.00    +0.000 A 
ATOM      2  C   UNL     1      -0.449  10.965  20.537  0.00  0.00    +0.000 A 
ATOM      3  C   UNL     1      -1.498  11.764  20.055  0.00  0.00    +0.000 A 
ATOM      4  C   UNL     1      -2.316  12.480  20.939  0.00  0.00    +0.000 A 
ATOM      5  C   UNL     1      -2.167  12.273  22.301  0.00  0.00    +0.000 A 
ATOM      6  C   UNL     1      -1.102  11.495  22.784  0.00  0.00    +0.000 A 
ATOM      7  C   UNL     1      -3.036  13.063  23.208  0.00  0.00    +0.000 C 
ATOM      8  C   UNL     1      -3.732  12.446  24.282  0.00  0.00    +0.000 C 
ATOM      9  C   UNL     1      -4.067  13.921  24.359  0.00  0.00    +0.000 C 
ATOM     10  N   UNL     1      -3.449  14.988  22.797  0.00  0.00    +0.000 NA
ATOM     11  C   UNL     1      -2.911  16.356  22.509  0.00  0.00    +0.000 C 
ATOM     12  C   UNL     1      -3.934  14.514  21.442  0.00  0.00    +0.000 C 
ATOM     13  C   UNL     1      -3.336  13.474  20.450  0.00  0.00    +0.000 C 
ATOM     14  C   UNL     1      -4.679  13.863  22.452  0.00  0.00    +0.000 C 
ATOM     15  C   UNL     1      -5.471  15.429  23.314  0.00  0.00    +0.000 C 
ATOM     16  C   UNL     1      -6.963  15.293  23.577  0.00  0.00    +0.000 C 
ATOM     17  C   UNL     1      -4.480  16.113  24.724  0.00  0.00    +0.000 C 
ATOM     18  C   UNL     1      -4.694  17.603  24.988  0.00  0.00    +0.000 C 
ATOM     19  C   UNL     1      -2.685  15.709  24.978  0.00  0.00    +0.000 C 
ATOM     20  O   UNL     1      -2.014  16.392  25.761  0.00  0.00    +0.000 OA
ATOM     21  C   UNL     1      -1.907  14.261  24.164  0.00  0.00    +0.000 C 
ENDROOT
BRANCH   1  23
ATOM     22  C   UNL     1       1.145   8.935  21.942  0.00  0.00    +0.000 C 
ATOM     23  O   UNL     1       0.813  10.202  22.503  0.00  0.00    +0.000 OA
ENDBRANCH   1  23
TORSDOF 1
ENDMDL
MODEL 7
REMARK VINA RESULT:      -5.9      9.886     12.513
REMARK  Name = 
REMARK  5 active torsions:
REMARK  status: ('A' for Active; 'I' for Inactive)
REMARK    1  A    between atoms: C_1  and  O_2
REMARK    2  A    between atoms: O_2  and  C_3
REMARK    3  A    between atoms: N_12  and  C_13
REMARK    4  A    between atoms: C_17  and  C_18
REMARK    5  A    between atoms: C_19  and  C_20
REMARK                            x       y       z     vdW  Elec       q    Type
REMARK                         _______ _______ _______ _____ _____    ______ ____
ROOT
ATOM      1  C   UNL     1       5.715  13.729  22.782  0.00  0.00    +0.000 A 
ATOM      2  C   UNL     1       4.696  14.318  22.039  0.00  0.00    +0.000 A 
ATOM      3  C   UNL     1       4.987  14.924  20.807  0.00  0.00    +0.000 A 
ATOM      4  C   UNL     1       6.297  14.941  20.309  0.00  0.00    +0.000 A 
ATOM      5  C   UNL     1       7.323  14.479  21.118  0.00  0.00    +0.000 A 
ATOM      6  C   UNL     1       7.030  13.847  22.337  0.00  0.00    +0.000 A 
ATOM      7  C   UNL     1       8.694  14.492  20.550  0.00  0.00    +0.000 C 
ATOM      8  C   UNL     1       9.791  15.007  21.290  0.00  0.00    +0.000 C 
ATOM      9  C   UNL     1      10.366  14.522  19.975  0.00  0.00    +0.000 C 
ATOM     10  N   UNL     1       9.000  14.008  18.622  0.00  0.00    +0.000 NA
ATOM     11  C   UNL     1       8.817  12.992  17.536  0.00  0.00    +0.000 C 
ATOM     12  C   UNL     1       7.983  15.075  18.272  0.00  0.00    +0.000 C 
ATOM     13  C   UNL     1       6.613  15.432  18.921  0.00  0.00    +0.000 C 
ATOM     14  C   UNL     1       9.042  15.667  18.998  0.00  0.00    +0.000 C 
ATOM     15  C   UNL     1      10.520  15.250  17.788  0.00  0.00    +0.000 C 
ATOM     16  C   UNL     1      11.434  16.433  17.508  0.00  0.00    +0.000 C 
ATOM     17  C   UNL     1      11.387  13.653  18.157  0.00  0.00    +0.000 C 
ATOM     18  C   UNL     1      12.063  13.002  16.950  0.00  0.00    +0.000 C 
ATOM     19  C   UNL     1      10.635  12.324  19.213  0.00  0.00    +0.000 C 
ATOM     20  O   UNL     1      11.129  11.189  19.205  0.00  0.00    +0.000 OA
ATOM     21  C   UNL     1       9.232  12.678  20.341  0.00  0.00    +0.000 C 
ENDROOT
BRANCH   1  23
ATOM     22  C   UNL     1       6.337  11.848  24.082  0.00  0.00    +0.000 C 
ATOM     23  O   UNL     1       5.560  13.035  23.950  0.00  0.00    +0.000 OA
ENDBRANCH   1  23
TORSDOF 1
ENDMDL
MODEL 8
REMARK VINA RESULT:      -5.9     13.106     15.076
REMARK  Name = 
REMARK  5 active torsions:
REMARK  status: ('A' for Active; 'I' for Inactive)
REMARK    1  A    between atoms: C_1  and  O_2
REMARK    2  A    between atoms: O_2  and  C_3
REMARK    3  A    between atoms: N_12  and  C_13
REMARK    4  A    between atoms: C_17  and  C_18
REMARK    5  A    between atoms: C_19  and  C_20
REMARK                            x       y       z     vdW  Elec       q    Type
REMARK                         _______ _______ _______ _____ _____    ______ ____
ROOT
ATOM      1  C   UNL     1      -6.960  10.415  19.502  0.00  0.00    +0.000 A 
ATOM      2  C   UNL     1      -6.960  11.036  18.256  0.00  0.00    +0.000 A 
ATOM      3  C   UNL     1      -6.924  12.436  18.171  0.00  0.00    +0.000 A 
ATOM      4  C   UNL     1      -6.884  13.223  19.330  0.00  0.00    +0.000 A 
ATOM      5  C   UNL     1      -7.025  12.604  20.561  0.00  0.00    +0.000 A 
ATOM      6  C   UNL     1      -7.033  11.202  20.649  0.00  0.00    +0.000 A 
ATOM      7  C   UNL     1      -6.955  13.465  21.767  0.00  0.00    +0.000 C 
ATOM      8  C   UNL     1      -7.916  13.353  22.807  0.00  0.00    +0.000 C 
ATOM      9  C   UNL     1      -6.940  14.421  23.254  0.00  0.00    +0.000 C 
ATOM     10  N   UNL     1      -5.643  14.987  21.855  0.00  0.00    +0.000 NA
ATOM     11  C   UNL     1      -4.212  15.421  21.754  0.00  0.00    +0.000 C 
ATOM     12  C   UNL     1      -6.247  15.481  20.556  0.00  0.00    +0.000 C 
ATOM     13  C   UNL     1      -6.674  14.714  19.272  0.00  0.00    +0.000 C 
ATOM     14  C   UNL     1      -7.261  15.405  21.538  0.00  0.00    +0.000 C 
ATOM     15  C   UNL     1      -6.523  16.657  22.846  0.00  0.00    +0.000 C 
ATOM     16  C   UNL     1      -7.537  17.664  23.370  0.00  0.00    +0.000 C 
ATOM     17  C   UNL     1      -5.451  15.872  24.140  0.00  0.00    +0.000 C 
ATOM     18  C   UNL     1      -4.399  16.802  24.744  0.00  0.00    +0.000 C 
ATOM     19  C   UNL     1      -4.713  14.180  23.940  0.00  0.00    +0.000 C 
ATOM     20  O   UNL     1      -3.803  13.820  24.696  0.00  0.00    +0.000 OA
ATOM     21  C   UNL     1      -5.368  12.992  22.704  0.00  0.00    +0.000 C 
ENDROOT
BRANCH   1  23
ATOM     22  C   UNL     1      -7.809   8.563  20.711  0.00  0.00    +0.000 C 
ATOM     23  O   UNL     1      -6.910   9.067  19.728  0.00  0.00    +0.000 OA
ENDBRANCH   1  23
TORSDOF 1
ENDMDL
MODEL 9
REMARK VINA RESULT:      -5.7      2.934      6.490
REMARK  Name = 
REMARK  5 active torsions:
REMARK  status: ('A' for Active; 'I' for Inactive)
REMARK    1  A    between atoms: C_1  and  O_2
REMARK    2  A    between atoms: O_2  and  C_3
REMARK    3  A    between atoms: N_12  and  C_13
REMARK    4  A    between atoms: C_17  and  C_18
REMARK    5  A    between atoms: C_19  and  C_20
REMARK                            x       y       z     vdW  Elec       q    Type
REMARK                         _______ _______ _______ _____ _____    ______ ____
ROOT
ATOM      1  C   UNL     1      -0.017   9.049  21.481  0.00  0.00    +0.000 A 
ATOM      2  C   UNL     1       0.249  10.005  20.505  0.00  0.00    +0.000 A 
ATOM      3  C   UNL     1       1.108   9.697  19.439  0.00  0.00    +0.000 A 
ATOM      4  C   UNL     1       1.701   8.431  19.340  0.00  0.00    +0.000 A 
ATOM      5  C   UNL     1       1.542   7.537  20.386  0.00  0.00    +0.000 A 
ATOM      6  C   UNL     1       0.662   7.833  21.440  0.00  0.00    +0.000 A 
ATOM      7  C   UNL     1       2.165   6.199  20.237  0.00  0.00    +0.000 C 
ATOM      8  C   UNL     1       2.936   5.626  21.285  0.00  0.00    +0.000 C 
ATOM      9  C   UNL     1       2.921   4.602  20.169  0.00  0.00    +0.000 C 
ATOM     10  N   UNL     1       2.147   5.261  18.458  0.00  0.00    +0.000 NA
ATOM     11  C   UNL     1       1.324   4.740  17.320  0.00  0.00    +0.000 C 
ATOM     12  C   UNL     1       2.787   6.507  17.881  0.00  0.00    +0.000 C 
ATOM     13  C   UNL     1       2.488   8.015  18.125  0.00  0.00    +0.000 C 
ATOM     14  C   UNL     1       3.614   5.996  18.907  0.00  0.00    +0.000 C 
ATOM     15  C   UNL     1       3.989   4.231  18.155  0.00  0.00    +0.000 C 
ATOM     16  C   UNL     1       5.460   3.844  18.204  0.00  0.00    +0.000 C 
ATOM     17  C   UNL     1       2.806   2.904  18.683  0.00  0.00    +0.000 C 
ATOM     18  C   UNL     1       2.662   1.749  17.693  0.00  0.00    +0.000 C 
ATOM     19  C   UNL     1       1.141   3.278  19.416  0.00  0.00    +0.000 C 
ATOM     20  O   UNL     1       0.297   2.377  19.498  0.00  0.00    +0.000 OA
ATOM     21  C   UNL     1       0.751   4.932  20.108  0.00  0.00    +0.000 C 
ENDROOT
BRANCH   1  23
ATOM     22  C   UNL     1      -0.969  10.481  23.112  0.00  0.00    +0.000 C 
ATOM     23  O   UNL     1      -0.893   9.186  22.523  0.00  0.00    +0.000 OA
ENDBRANCH   1  23
TORSDOF 1
ENDMDL
