MODEL 1
REMARK VINA RESULT:      -7.4      0.000      0.000
REMARK  Name = 
REMARK  6 active torsions:
REMARK  status: ('A' for Active; 'I' for Inactive)
REMARK    1  A    between atoms: C_1  and  C_2
REMARK    2  A    between atoms: C_2  and  C_4
REMARK    3  A    between atoms: C_5  and  C_6
REMARK    4  A    between atoms: C_11  and  O_12
REMARK    5  A    between atoms: C_13  and  C_14
REMARK    6  A    between atoms: C_14  and  N_15
REMARK                            x       y       z     vdW  Elec       q    Type
REMARK                         _______ _______ _______ _____ _____    ______ ____
ROOT
ATOM      1  C   UNL     1       2.803   3.946  19.596  0.00  0.00    +0.000 A 
ATOM      2  C   UNL     1       2.108   3.941  20.835  0.00  0.00    +0.000 A 
ATOM      3  C   UNL     1       1.841   2.840  21.815  0.00  0.00    +0.000 C 
ATOM      4  O   UNL     1       1.689   5.146  21.127  0.00  0.00    +0.000 OA
ATOM      5  C   UNL     1       2.060   5.963  20.187  0.00  0.00    +0.000 A 
ATOM      6  C   UNL     1       1.750   7.309  20.156  0.00  0.00    +0.000 A 
ATOM      7  C   UNL     1       2.177   8.058  19.067  0.00  0.00    +0.000 A 
ATOM      8  C   UNL     1       2.950   7.471  18.045  0.00  0.00    +0.000 A 
ATOM      9  C   UNL     1       3.320   6.088  18.111  0.00  0.00    +0.000 A 
ATOM     10  C   UNL     1       2.794   5.323  19.208  0.00  0.00    +0.000 A 
ENDROOT
BRANCH   1  12
ATOM     11  C   UNL     1       2.652   2.125  17.663  0.00  0.00    +0.000 C 
ATOM     12  C   UNL     1       3.339   2.737  18.854  0.00  0.00    +0.000 C 
ATOM     13  O   UNL     1       4.431   2.277  19.101  0.00  0.00    +0.000 OA
ENDBRANCH   1  12
BRANCH   8  14
ATOM     14  O   UNL     1       3.309   8.239  16.992  0.00  0.00    +0.000 OA
ATOM     15  H   UNL     1       4.099   8.045  16.465  0.00  0.00    +0.000 HD
ENDBRANCH   8  14
BRANCH   9  16
ATOM     16  C   UNL     1       4.250   5.405  17.123  0.00  0.00    +0.000 C 
BRANCH  16  17
ATOM     17  N   UNL     1       5.320   6.167  16.425  0.00  0.00    +0.000 NA
ATOM     18  C   UNL     1       5.771   5.399  15.228  0.00  0.00    +0.000 C 
ATOM     19  C   UNL     1       6.588   4.138  15.625  0.00  0.00    +0.000 C 
ATOM     20  O   UNL     1       7.718   4.484  16.400  0.00  0.00    +0.000 OA
ATOM     21  C   UNL     1       7.313   5.155  17.578  0.00  0.00    +0.000 C 
ATOM     22  C   UNL     1       6.531   6.438  17.240  0.00  0.00    +0.000 C 
ENDBRANCH  16  17
ENDBRANCH   9  16
TORSDOF 4
ENDMDL
MODEL 2
REMARK VINA RESULT:      -7.2      0.738      1.328
REMARK  Name = 
REMARK  6 active torsions:
REMARK  status: ('A' for Active; 'I' for Inactive)
REMARK    1  A    between atoms: C_1  and  C_2
REMARK    2  A    between atoms: C_2  and  C_4
REMARK    3  A    between atoms: C_5  and  C_6
REMARK    4  A    between atoms: C_11  and  O_12
REMARK    5  A    between atoms: C_13  and  C_14
REMARK    6  A    between atoms: C_14  and  N_15
REMARK                            x       y       z     vdW  Elec       q    Type
REMARK                         _______ _______ _______ _____ _____    ______ ____
ROOT
ATOM      1  C   UNL     1       2.680   3.778  19.631  0.00  0.00    +0.000 A 
ATOM      2  C   UNL     1       1.984   3.782  20.869  0.00  0.00    +0.000 A 
ATOM      3  C   UNL     1       1.678   2.679  21.836  0.00  0.00    +0.000 C 
ATOM      4  O   UNL     1       1.607   4.997  21.176  0.00  0.00    +0.000 OA
ATOM      5  C   UNL     1       2.007   5.812  20.247  0.00  0.00    +0.000 A 
ATOM      6  C   UNL     1       1.744   7.168  20.232  0.00  0.00    +0.000 A 
ATOM      7  C   UNL     1       2.198   7.915  19.153  0.00  0.00    +0.000 A 
ATOM      8  C   UNL     1       2.951   7.315  18.123  0.00  0.00    +0.000 A 
ATOM      9  C   UNL     1       3.271   5.919  18.172  0.00  0.00    +0.000 A 
ATOM     10  C   UNL     1       2.719   5.159  19.260  0.00  0.00    +0.000 A 
ENDROOT
BRANCH   1  12
ATOM     11  C   UNL     1       2.565   2.086  17.581  0.00  0.00    +0.000 C 
ATOM     12  C   UNL     1       3.173   2.560  18.874  0.00  0.00    +0.000 C 
ATOM     13  O   UNL     1       4.181   1.976  19.203  0.00  0.00    +0.000 OA
ENDBRANCH   1  12
BRANCH   8  14
ATOM     14  O   UNL     1       3.337   8.083  17.080  0.00  0.00    +0.000 OA
ATOM     15  H   UNL     1       2.806   8.834  16.775  0.00  0.00    +0.000 HD
ENDBRANCH   8  14
BRANCH   9  16
ATOM     16  C   UNL     1       4.178   5.216  17.176  0.00  0.00    +0.000 C 
BRANCH  16  17
ATOM     17  N   UNL     1       5.508   4.692  17.587  0.00  0.00    +0.000 NA
ATOM     18  C   UNL     1       6.295   5.787  18.224  0.00  0.00    +0.000 C 
ATOM     19  C   UNL     1       6.760   6.845  17.185  0.00  0.00    +0.000 C 
ATOM     20  O   UNL     1       7.541   6.253  16.167  0.00  0.00    +0.000 OA
ATOM     21  C   UNL     1       6.793   5.254  15.499  0.00  0.00    +0.000 C 
ATOM     22  C   UNL     1       6.340   4.157  16.479  0.00  0.00    +0.000 C 
ENDBRANCH  16  17
ENDBRANCH   9  16
TORSDOF 4
ENDMDL
MODEL 3
REMARK VINA RESULT:      -6.6      1.172      3.818
REMARK  Name = 
REMARK  6 active torsions:
REMARK  status: ('A' for Active; 'I' for Inactive)
REMARK    1  A    between atoms: C_1  and  C_2
REMARK    2  A    between atoms: C_2  and  C_4
REMARK    3  A    between atoms: C_5  and  C_6
REMARK    4  A    between atoms: C_11  and  O_12
REMARK    5  A    between atoms: C_13  and  C_14
REMARK    6  A    between atoms: C_14  and  N_15
REMARK                            x       y       z     vdW  Elec       q    Type
REMARK                         _______ _______ _______ _____ _____    ______ ____
ROOT
ATOM      1  C   UNL     1       2.474   6.675  19.297  0.00  0.00    +0.000 A 
ATOM      2  C   UNL     1       1.705   7.044  20.432  0.00  0.00    +0.000 A 
ATOM      3  C   UNL     1       1.047   8.337  20.804  0.00  0.00    +0.000 C 
ATOM      4  O   UNL     1       1.549   6.017  21.229  0.00  0.00    +0.000 OA
ATOM      5  C   UNL     1       2.143   4.985  20.711  0.00  0.00    +0.000 A 
ATOM      6  C   UNL     1       2.211   3.741  21.311  0.00  0.00    +0.000 A 
ATOM      7  C   UNL     1       2.917   2.736  20.663  0.00  0.00    +0.000 A 
ATOM      8  C   UNL     1       3.506   2.963  19.402  0.00  0.00    +0.000 A 
ATOM      9  C   UNL     1       3.382   4.237  18.757  0.00  0.00    +0.000 A 
ATOM     10  C   UNL     1       2.716   5.279  19.490  0.00  0.00    +0.000 A 
ENDROOT
BRANCH   1  12
ATOM     11  C   UNL     1       2.140   8.699  17.603  0.00  0.00    +0.000 C 
ATOM     12  C   UNL     1       2.974   7.599  18.203  0.00  0.00    +0.000 C 
ATOM     13  O   UNL     1       4.131   7.587  17.845  0.00  0.00    +0.000 OA
ENDBRANCH   1  12
BRANCH   8  14
ATOM     14  O   UNL     1       4.210   1.959  18.833  0.00  0.00    +0.000 OA
ATOM     15  H   UNL     1       4.620   2.054  17.960  0.00  0.00    +0.000 HD
ENDBRANCH   8  14
BRANCH   9  16
ATOM     16  C   UNL     1       3.875   4.532  17.351  0.00  0.00    +0.000 C 
BRANCH  16  17
ATOM     17  N   UNL     1       5.105   3.888  16.818  0.00  0.00    +0.000 NA
ATOM     18  C   UNL     1       6.294   4.415  17.549  0.00  0.00    +0.000 C 
ATOM     19  C   UNL     1       6.603   5.888  17.165  0.00  0.00    +0.000 C 
ATOM     20  O   UNL     1       6.826   6.018  15.775  0.00  0.00    +0.000 OA
ATOM     21  C   UNL     1       5.685   5.588  15.057  0.00  0.00    +0.000 C 
ATOM     22  C   UNL     1       5.357   4.118  15.372  0.00  0.00    +0.000 C 
ENDBRANCH  16  17
ENDBRANCH   9  16
TORSDOF 4
ENDMDL
MODEL 4
REMARK VINA RESULT:      -6.4      2.104      4.882
REMARK  Name = 
REMARK  6 active torsions:
REMARK  status: ('A' for Active; 'I' for Inactive)
REMARK    1  A    between atoms: C_1  and  C_2
REMARK    2  A    between atoms: C_2  and  C_4
REMARK    3  A    between atoms: C_5  and  C_6
REMARK    4  A    between atoms: C_11  and  O_12
REMARK    5  A    between atoms: C_13  and  C_14
REMARK    6  A    between atoms: C_14  and  N_15
REMARK                            x       y       z     vdW  Elec       q    Type
REMARK                         _______ _______ _______ _____ _____    ______ ____
ROOT
ATOM      1  C   UNL     1       4.398   5.552  17.890  0.00  0.00    +0.000 A 
ATOM      2  C   UNL     1       4.683   6.206  16.662  0.00  0.00    +0.000 A 
ATOM      3  C   UNL     1       5.544   5.804  15.503  0.00  0.00    +0.000 C 
ATOM      4  O   UNL     1       4.014   7.328  16.577  0.00  0.00    +0.000 OA
ATOM      5  C   UNL     1       3.292   7.472  17.647  0.00  0.00    +0.000 A 
ATOM      6  C   UNL     1       2.491   8.568  17.907  0.00  0.00    +0.000 A 
ATOM      7  C   UNL     1       1.804   8.611  19.113  0.00  0.00    +0.000 A 
ATOM      8  C   UNL     1       1.881   7.541  20.027  0.00  0.00    +0.000 A 
ATOM      9  C   UNL     1       2.666   6.379  19.728  0.00  0.00    +0.000 A 
ATOM     10  C   UNL     1       3.428   6.402  18.509  0.00  0.00    +0.000 A 
ENDROOT
BRANCH   1  12
ATOM     11  C   UNL     1       4.767   2.917  17.879  0.00  0.00    +0.000 C 
ATOM     12  C   UNL     1       5.056   4.292  18.419  0.00  0.00    +0.000 C 
ATOM     13  O   UNL     1       5.959   4.341  19.223  0.00  0.00    +0.000 OA
ENDBRANCH   1  12
BRANCH   8  14
ATOM     14  O   UNL     1       1.220   7.651  21.201  0.00  0.00    +0.000 OA
ATOM     15  H   UNL     1       0.425   8.198  21.289  0.00  0.00    +0.000 HD
ENDBRANCH   8  14
BRANCH   9  16
ATOM     16  C   UNL     1       2.708   5.132  20.593  0.00  0.00    +0.000 C 
BRANCH  16  17
ATOM     17  N   UNL     1       1.467   4.374  20.907  0.00  0.00    +0.000 NA
ATOM     18  C   UNL     1       1.829   3.090  21.576  0.00  0.00    +0.000 C 
ATOM     19  C   UNL     1       2.485   2.088  20.588  0.00  0.00    +0.000 C 
ATOM     20  O   UNL     1       1.629   1.810  19.498  0.00  0.00    +0.000 OA
ATOM     21  C   UNL     1       1.323   3.004  18.802  0.00  0.00    +0.000 C 
ATOM     22  C   UNL     1       0.633   4.021  19.729  0.00  0.00    +0.000 C 
ENDBRANCH  16  17
ENDBRANCH   9  16
TORSDOF 4
ENDMDL
MODEL 5
REMARK VINA RESULT:      -6.4      0.920      1.057
REMARK  Name = 
REMARK  6 active torsions:
REMARK  status: ('A' for Active; 'I' for Inactive)
REMARK    1  A    between atoms: C_1  and  C_2
REMARK    2  A    between atoms: C_2  and  C_4
REMARK    3  A    between atoms: C_5  and  C_6
REMARK    4  A    between atoms: C_11  and  O_12
REMARK    5  A    between atoms: C_13  and  C_14
REMARK    6  A    between atoms: C_14  and  N_15
REMARK                            x       y       z     vdW  Elec       q    Type
REMARK                         _______ _______ _______ _____ _____    ______ ____
ROOT
ATOM      1  C   UNL     1       2.988   3.595  20.094  0.00  0.00    +0.000 A 
ATOM      2  C   UNL     1       2.032   3.450  21.134  0.00  0.00    +0.000 A 
ATOM      3  C   UNL     1       1.683   2.279  22.001  0.00  0.00    +0.000 C 
ATOM      4  O   UNL     1       1.412   4.584  21.344  0.00  0.00    +0.000 OA
ATOM      5  C   UNL     1       1.886   5.482  20.535  0.00  0.00    +0.000 A 
ATOM      6  C   UNL     1       1.429   6.784  20.459  0.00  0.00    +0.000 A 
ATOM      7  C   UNL     1       2.000   7.629  19.517  0.00  0.00    +0.000 A 
ATOM      8  C   UNL     1       3.055   7.185  18.693  0.00  0.00    +0.000 A 
ATOM      9  C   UNL     1       3.566   5.852  18.816  0.00  0.00    +0.000 A 
ATOM     10  C   UNL     1       2.900   4.979  19.743  0.00  0.00    +0.000 A 
ENDROOT
BRANCH   1  12
ATOM     11  C   UNL     1       3.430   1.760  18.220  0.00  0.00    +0.000 C 
ATOM     12  C   UNL     1       3.825   2.493  19.473  0.00  0.00    +0.000 C 
ATOM     13  O   UNL     1       4.934   2.234  19.884  0.00  0.00    +0.000 OA
ENDBRANCH   1  12
BRANCH   8  14
ATOM     14  O   UNL     1       3.551   8.039  17.770  0.00  0.00    +0.000 OA
ATOM     15  H   UNL     1       4.246   7.773  17.150  0.00  0.00    +0.000 HD
ENDBRANCH   8  14
BRANCH   9  16
ATOM     16  C   UNL     1       4.776   5.329  18.061  0.00  0.00    +0.000 C 
BRANCH  16  17
ATOM     17  N   UNL     1       4.760   5.203  16.579  0.00  0.00    +0.000 NA
ATOM     18  C   UNL     1       5.600   4.038  16.173  0.00  0.00    +0.000 C 
ATOM     19  C   UNL     1       7.114   4.319  16.378  0.00  0.00    +0.000 C 
ATOM     20  O   UNL     1       7.526   5.457  15.648  0.00  0.00    +0.000 OA
ATOM     21  C   UNL     1       6.791   6.593  16.062  0.00  0.00    +0.000 C 
ATOM     22  C   UNL     1       5.282   6.382  15.843  0.00  0.00    +0.000 C 
ENDBRANCH  16  17
ENDBRANCH   9  16
TORSDOF 4
ENDMDL
MODEL 6
REMARK VINA RESULT:      -6.4      1.058      1.276
REMARK  Name = 
REMARK  6 active torsions:
REMARK  status: ('A' for Active; 'I' for Inactive)
REMARK    1  A    between atoms: C_1  and  C_2
REMARK    2  A    between atoms: C_2  and  C_4
REMARK    3  A    between atoms: C_5  and  C_6
REMARK    4  A    between atoms: C_11  and  O_12
REMARK    5  A    between atoms: C_13  and  C_14
REMARK    6  A    between atoms: C_14  and  N_15
REMARK                            x       y       z     vdW  Elec       q    Type
REMARK                         _______ _______ _______ _____ _____    ______ ____
ROOT
ATOM      1  C   UNL     1       2.382   3.907  19.478  0.00  0.00    +0.000 A 
ATOM      2  C   UNL     1       1.758   3.759  20.746  0.00  0.00    +0.000 A 
ATOM      3  C   UNL     1       1.489   2.545  21.581  0.00  0.00    +0.000 C 
ATOM      4  O   UNL     1       1.420   4.930  21.226  0.00  0.00    +0.000 OA
ATOM      5  C   UNL     1       1.781   5.852  20.386  0.00  0.00    +0.000 A 
ATOM      6  C   UNL     1       1.541   7.202  20.558  0.00  0.00    +0.000 A 
ATOM      7  C   UNL     1       1.945   8.076  19.558  0.00  0.00    +0.000 A 
ATOM      8  C   UNL     1       2.628   7.604  18.417  0.00  0.00    +0.000 A 
ATOM      9  C   UNL     1       2.926   6.210  18.270  0.00  0.00    +0.000 A 
ATOM     10  C   UNL     1       2.424   5.323  19.284  0.00  0.00    +0.000 A 
ENDROOT
BRANCH   1  12
ATOM     11  C   UNL     1       3.875   1.785  18.890  0.00  0.00    +0.000 C 
ATOM     12  C   UNL     1       2.810   2.791  18.545  0.00  0.00    +0.000 C 
ATOM     13  O   UNL     1       2.216   2.566  17.514  0.00  0.00    +0.000 OA
ENDBRANCH   1  12
BRANCH   8  14
ATOM     14  O   UNL     1       2.967   8.494  17.459  0.00  0.00    +0.000 OA
ATOM     15  H   UNL     1       3.536   9.256  17.648  0.00  0.00    +0.000 HD
ENDBRANCH   8  14
BRANCH   9  16
ATOM     16  C   UNL     1       3.762   5.631  17.142  0.00  0.00    +0.000 C 
BRANCH  16  17
ATOM     17  N   UNL     1       5.244   5.758  17.142  0.00  0.00    +0.000 NA
ATOM     18  C   UNL     1       5.692   6.303  15.827  0.00  0.00    +0.000 C 
ATOM     19  C   UNL     1       5.536   5.260  14.686  0.00  0.00    +0.000 C 
ATOM     20  O   UNL     1       6.266   4.082  14.966  0.00  0.00    +0.000 OA
ATOM     21  C   UNL     1       5.813   3.506  16.177  0.00  0.00    +0.000 C 
ATOM     22  C   UNL     1       5.983   4.487  17.352  0.00  0.00    +0.000 C 
ENDBRANCH  16  17
ENDBRANCH   9  16
TORSDOF 4
ENDMDL
MODEL 7
REMARK VINA RESULT:      -6.0      1.693      5.095
REMARK  Name = 
REMARK  6 active torsions:
REMARK  status: ('A' for Active; 'I' for Inactive)
REMARK    1  A    between atoms: C_1  and  C_2
REMARK    2  A    between atoms: C_2  and  C_4
REMARK    3  A    between atoms: C_5  and  C_6
REMARK    4  A    between atoms: C_11  and  O_12
REMARK    5  A    between atoms: C_13  and  C_14
REMARK    6  A    between atoms: C_14  and  N_15
REMARK                            x       y       z     vdW  Elec       q    Type
REMARK                         _______ _______ _______ _____ _____    ______ ____
ROOT
ATOM      1  C   UNL     1       2.744   7.040  18.619  0.00  0.00    +0.000 A 
ATOM      2  C   UNL     1       2.500   8.209  17.849  0.00  0.00    +0.000 A 
ATOM      3  C   UNL     1       1.575   9.366  18.071  0.00  0.00    +0.000 C 
ATOM      4  O   UNL     1       3.281   8.233  16.798  0.00  0.00    +0.000 OA
ATOM      5  C   UNL     1       4.039   7.178  16.810  0.00  0.00    +0.000 A 
ATOM      6  C   UNL     1       4.956   6.865  15.825  0.00  0.00    +0.000 A 
ATOM      7  C   UNL     1       5.672   5.681  15.943  0.00  0.00    +0.000 A 
ATOM      8  C   UNL     1       5.504   4.844  17.066  0.00  0.00    +0.000 A 
ATOM      9  C   UNL     1       4.595   5.202  18.114  0.00  0.00    +0.000 A 
ATOM     10  C   UNL     1       3.811   6.392  17.922  0.00  0.00    +0.000 A 
ENDROOT
BRANCH   1  12
ATOM     11  C   UNL     1       1.663   7.480  21.010  0.00  0.00    +0.000 C 
ATOM     12  C   UNL     1       1.970   6.584  19.840  0.00  0.00    +0.000 C 
ATOM     13  O   UNL     1       1.435   5.498  19.880  0.00  0.00    +0.000 OA
ENDBRANCH   1  12
BRANCH   8  14
ATOM     14  O   UNL     1       6.201   3.687  17.113  0.00  0.00    +0.000 OA
ATOM     15  H   UNL     1       6.509   3.244  16.308  0.00  0.00    +0.000 HD
ENDBRANCH   8  14
BRANCH   9  16
ATOM     16  C   UNL     1       4.443   4.429  19.412  0.00  0.00    +0.000 C 
BRANCH  16  17
ATOM     17  N   UNL     1       4.425   2.941  19.422  0.00  0.00    +0.000 NA
ATOM     18  C   UNL     1       3.398   2.454  18.456  0.00  0.00    +0.000 C 
ATOM     19  C   UNL     1       1.955   2.718  18.965  0.00  0.00    +0.000 C 
ATOM     20  O   UNL     1       1.733   2.102  20.218  0.00  0.00    +0.000 OA
ATOM     21  C   UNL     1       2.653   2.598  21.173  0.00  0.00    +0.000 C 
ATOM     22  C   UNL     1       4.103   2.326  20.735  0.00  0.00    +0.000 C 
ENDBRANCH  16  17
ENDBRANCH   9  16
TORSDOF 4
ENDMDL
MODEL 8
REMARK VINA RESULT:      -5.8      0.963      3.544
REMARK  Name = 
REMARK  6 active torsions:
REMARK  status: ('A' for Active; 'I' for Inactive)
REMARK    1  A    between atoms: C_1  and  C_2
REMARK    2  A    between atoms: C_2  and  C_4
REMARK    3  A    between atoms: C_5  and  C_6
REMARK    4  A    between atoms: C_11  and  O_12
REMARK    5  A    between atoms: C_13  and  C_14
REMARK    6  A    between atoms: C_14  and  N_15
REMARK                            x       y       z     vdW  Elec       q    Type
REMARK                         _______ _______ _______ _____ _____    ______ ____
ROOT
ATOM      1  C   UNL     1       2.463   6.648  19.283  0.00  0.00    +0.000 A 
ATOM      2  C   UNL     1       1.736   6.842  20.488  0.00  0.00    +0.000 A 
ATOM      3  C   UNL     1       1.021   8.042  21.030  0.00  0.00    +0.000 C 
ATOM      4  O   UNL     1       1.688   5.729  21.176  0.00  0.00    +0.000 OA
ATOM      5  C   UNL     1       2.316   4.800  20.521  0.00  0.00    +0.000 A 
ATOM      6  C   UNL     1       2.494   3.508  20.978  0.00  0.00    +0.000 A 
ATOM      7  C   UNL     1       3.224   2.626  20.192  0.00  0.00    +0.000 A 
ATOM      8  C   UNL     1       3.726   3.023  18.936  0.00  0.00    +0.000 A 
ATOM      9  C   UNL     1       3.488   4.346  18.439  0.00  0.00    +0.000 A 
ATOM     10  C   UNL     1       2.800   5.258  19.312  0.00  0.00    +0.000 A 
ENDROOT
BRANCH   1  12
ATOM     11  C   UNL     1       1.835   8.477  17.456  0.00  0.00    +0.000 C 
ATOM     12  C   UNL     1       2.843   7.713  18.273  0.00  0.00    +0.000 C 
ATOM     13  O   UNL     1       3.983   8.105  18.167  0.00  0.00    +0.000 OA
ENDBRANCH   1  12
BRANCH   8  14
ATOM     14  O   UNL     1       4.458   2.134  18.228  0.00  0.00    +0.000 OA
ATOM     15  H   UNL     1       5.262   2.398  17.753  0.00  0.00    +0.000 HD
ENDBRANCH   8  14
BRANCH   9  16
ATOM     16  C   UNL     1       3.882   4.821  17.051  0.00  0.00    +0.000 C 
BRANCH  16  17
ATOM     17  N   UNL     1       4.950   5.840  16.863  0.00  0.00    +0.000 NA
ATOM     18  C   UNL     1       5.409   5.816  15.444  0.00  0.00    +0.000 C 
ATOM     19  C   UNL     1       6.232   4.539  15.124  0.00  0.00    +0.000 C 
ATOM     20  O   UNL     1       7.359   4.430  15.971  0.00  0.00    +0.000 OA
ATOM     21  C   UNL     1       6.946   4.381  17.324  0.00  0.00    +0.000 C 
ATOM     22  C   UNL     1       6.157   5.646  17.706  0.00  0.00    +0.000 C 
ENDBRANCH  16  17
ENDBRANCH   9  16
TORSDOF 4
ENDMDL
MODEL 9
REMARK VINA RESULT:      -5.7      8.092     10.543
REMARK  Name = 
REMARK  6 active torsions:
REMARK  status: ('A' for Active; 'I' for Inactive)
REMARK    1  A    between atoms: C_1  and  C_2
REMARK    2  A    between atoms: C_2  and  C_4
REMARK    3  A    between atoms: C_5  and  C_6
REMARK    4  A    between atoms: C_11  and  O_12
REMARK    5  A    between atoms: C_13  and  C_14
REMARK    6  A    between atoms: C_14  and  N_15
REMARK                            x       y       z     vdW  Elec       q    Type
REMARK                         _______ _______ _______ _____ _____    ______ ____
ROOT
ATOM      1  C   UNL     1      -4.619  12.144  19.345  0.00  0.00    +0.000 A 
ATOM      2  C   UNL     1      -5.774  11.804  18.590  0.00  0.00    +0.000 A 
ATOM      3  C   UNL     1      -7.213  12.182  18.759  0.00  0.00    +0.000 C 
ATOM      4  O   UNL     1      -5.444  11.063  17.562  0.00  0.00    +0.000 OA
ATOM      5  C   UNL     1      -4.157  10.890  17.560  0.00  0.00    +0.000 A 
ATOM      6  C   UNL     1      -3.473  10.123  16.636  0.00  0.00    +0.000 A 
ATOM      7  C   UNL     1      -2.099   9.990  16.778  0.00  0.00    +0.000 A 
ATOM      8  C   UNL     1      -1.410  10.661  17.809  0.00  0.00    +0.000 A 
ATOM      9  C   UNL     1      -2.115  11.503  18.731  0.00  0.00    +0.000 A 
ATOM     10  C   UNL     1      -3.546  11.555  18.605  0.00  0.00    +0.000 A 
ENDROOT
BRANCH   1  12
ATOM     11  C   UNL     1      -4.439  14.380  20.775  0.00  0.00    +0.000 C 
ATOM     12  C   UNL     1      -4.589  12.886  20.667  0.00  0.00    +0.000 C 
ATOM     13  O   UNL     1      -4.821  12.323  21.713  0.00  0.00    +0.000 OA
ENDBRANCH   1  12
BRANCH   8  14
ATOM     14  O   UNL     1      -0.077  10.468  17.922  0.00  0.00    +0.000 OA
ATOM     15  H   UNL     1       0.326  10.157  18.746  0.00  0.00    +0.000 HD
ENDBRANCH   8  14
BRANCH   9  16
ATOM     16  C   UNL     1      -1.443  12.358  19.790  0.00  0.00    +0.000 C 
BRANCH  16  17
ATOM     17  N   UNL     1      -0.466  11.770  20.746  0.00  0.00    +0.000 NA
ATOM     18  C   UNL     1      -1.072  11.731  22.109  0.00  0.00    +0.000 C 
ATOM     19  C   UNL     1      -1.194  13.150  22.728  0.00  0.00    +0.000 C 
ATOM     20  O   UNL     1       0.067  13.785  22.805  0.00  0.00    +0.000 OA
ATOM     21  C   UNL     1       0.635  13.897  21.514  0.00  0.00    +0.000 C 
ATOM     22  C   UNL     1       0.815  12.511  20.869  0.00  0.00    +0.000 C 
ENDBRANCH  16  17
ENDBRANCH   9  16
TORSDOF 4
ENDMDL
