MODEL 1
REMARK VINA RESULT:      -6.6      0.000      0.000
REMARK  Name = 
REMARK  5 active torsions:
REMARK  status: ('A' for Active; 'I' for Inactive)
REMARK    1  A    between atoms: C_1  and  C_2
REMARK    2  A    between atoms: C_2  and  C_3
REMARK    3  A    between atoms: C_5  and  C_6
REMARK    4  A    between atoms: C_6  and  N_7
REMARK    5  A    between atoms: C_13  and  C_14
REMARK                            x       y       z     vdW  Elec       q    Type
REMARK                         _______ _______ _______ _____ _____    ______ ____
ROOT
ATOM      1  N   UNL     1       4.215   4.670  17.300  0.00  0.00    +0.000 N 
ATOM      2  C   UNL     1       4.135   3.290  17.193  0.00  0.00    +0.000 A 
ATOM      3  N   UNL     1       3.407   2.517  17.935  0.00  0.00    +0.000 NA
ATOM      4  C   UNL     1       2.674   3.182  18.861  0.00  0.00    +0.000 A 
ATOM      5  S   UNL     1       1.613   2.440  19.970  0.00  0.00    +0.000 S 
ATOM      6  N   UNL     1       1.132   3.844  20.719  0.00  0.00    +0.000 NA
ATOM      7  C   UNL     1       1.757   4.877  20.148  0.00  0.00    +0.000 A 
ATOM      8  C   UNL     1       1.489   6.246  20.668  0.00  0.00    +0.000 C 
ATOM      9  C   UNL     1       2.642   4.542  19.075  0.00  0.00    +0.000 A 
ATOM     10  C   UNL     1       3.466   5.381  18.237  0.00  0.00    +0.000 A 
ATOM     11  O   UNL     1       3.497   6.602  18.351  0.00  0.00    +0.000 OA
ENDROOT
BRANCH   1  12
ATOM     12  C   UNL     1       5.076   5.409  16.394  0.00  0.00    +0.000 C 
BRANCH  12  15
ATOM     13  C   UNL     1       7.495   7.772  17.672  0.00  0.00    +0.000 A 
ATOM     14  N   UNL     1       6.498   7.382  16.905  0.00  0.00    +0.000 NA
ATOM     15  C   UNL     1       6.184   6.055  17.168  0.00  0.00    +0.000 A 
ATOM     16  C   UNL     1       6.959   5.463  18.149  0.00  0.00    +0.000 A 
ATOM     17  S   UNL     1       8.120   6.574  18.736  0.00  0.00    +0.000 S 
BRANCH  13  19
ATOM     18  C   UNL     1       8.928   9.394  18.899  0.00  0.00    +0.000 C 
ATOM     19  C   UNL     1       8.068   9.155  17.669  0.00  0.00    +0.000 C 
ENDBRANCH  13  19
ENDBRANCH  12  15
ENDBRANCH   1  12
TORSDOF 3
ENDMDL
MODEL 2
REMARK VINA RESULT:      -6.6      2.984      3.904
REMARK  Name = 
REMARK  5 active torsions:
REMARK  status: ('A' for Active; 'I' for Inactive)
REMARK    1  A    between atoms: C_1  and  C_2
REMARK    2  A    between atoms: C_2  and  C_3
REMARK    3  A    between atoms: C_5  and  C_6
REMARK    4  A    between atoms: C_6  and  N_7
REMARK    5  A    between atoms: C_13  and  C_14
REMARK                            x       y       z     vdW  Elec       q    Type
REMARK                         _______ _______ _______ _____ _____    ______ ____
ROOT
ATOM      1  N   UNL     1       5.506   5.141  18.267  0.00  0.00    +0.000 N 
ATOM      2  C   UNL     1       4.981   6.374  17.916  0.00  0.00    +0.000 A 
ATOM      3  N   UNL     1       3.860   6.866  18.340  0.00  0.00    +0.000 NA
ATOM      4  C   UNL     1       3.206   6.058  19.211  0.00  0.00    +0.000 A 
ATOM      5  S   UNL     1       1.716   6.437  19.949  0.00  0.00    +0.000 S 
ATOM      6  N   UNL     1       1.587   5.025  20.817  0.00  0.00    +0.000 NA
ATOM      7  C   UNL     1       2.654   4.261  20.566  0.00  0.00    +0.000 A 
ATOM      8  C   UNL     1       2.749   2.932  21.230  0.00  0.00    +0.000 C 
ATOM      9  C   UNL     1       3.608   4.819  19.658  0.00  0.00    +0.000 A 
ATOM     10  C   UNL     1       4.861   4.294  19.167  0.00  0.00    +0.000 A 
ATOM     11  O   UNL     1       5.301   3.203  19.515  0.00  0.00    +0.000 OA
ENDROOT
BRANCH   1  12
ATOM     12  C   UNL     1       6.780   4.721  17.711  0.00  0.00    +0.000 C 
BRANCH  12  15
ATOM     13  C   UNL     1       7.220   4.943  14.130  0.00  0.00    +0.000 A 
ATOM     14  N   UNL     1       7.490   5.234  15.386  0.00  0.00    +0.000 NA
ATOM     15  C   UNL     1       6.645   4.528  16.232  0.00  0.00    +0.000 A 
ATOM     16  C   UNL     1       5.744   3.700  15.587  0.00  0.00    +0.000 A 
ATOM     17  S   UNL     1       5.937   3.824  13.892  0.00  0.00    +0.000 S 
BRANCH  13  19
ATOM     18  C   UNL     1       7.542   4.822  11.666  0.00  0.00    +0.000 C 
ATOM     19  C   UNL     1       7.963   5.505  12.958  0.00  0.00    +0.000 C 
ENDBRANCH  13  19
ENDBRANCH  12  15
ENDBRANCH   1  12
TORSDOF 3
ENDMDL
MODEL 3
REMARK VINA RESULT:      -6.5      1.465      2.288
REMARK  Name = 
REMARK  5 active torsions:
REMARK  status: ('A' for Active; 'I' for Inactive)
REMARK    1  A    between atoms: C_1  and  C_2
REMARK    2  A    between atoms: C_2  and  C_3
REMARK    3  A    between atoms: C_5  and  C_6
REMARK    4  A    between atoms: C_6  and  N_7
REMARK    5  A    between atoms: C_13  and  C_14
REMARK                            x       y       z     vdW  Elec       q    Type
REMARK                         _______ _______ _______ _____ _____    ______ ____
ROOT
ATOM      1  N   UNL     1       4.171   5.689  17.262  0.00  0.00    +0.000 N 
ATOM      2  C   UNL     1       3.282   6.526  17.919  0.00  0.00    +0.000 A 
ATOM      3  N   UNL     1       2.350   6.146  18.735  0.00  0.00    +0.000 NA
ATOM      4  C   UNL     1       2.309   4.804  18.928  0.00  0.00    +0.000 A 
ATOM      5  S   UNL     1       1.203   4.009  19.953  0.00  0.00    +0.000 S 
ATOM      6  N   UNL     1       1.762   2.472  19.655  0.00  0.00    +0.000 NA
ATOM      7  C   UNL     1       2.778   2.540  18.790  0.00  0.00    +0.000 A 
ATOM      8  C   UNL     1       3.434   1.273  18.364  0.00  0.00    +0.000 C 
ATOM      9  C   UNL     1       3.128   3.857  18.356  0.00  0.00    +0.000 A 
ATOM     10  C   UNL     1       4.157   4.307  17.448  0.00  0.00    +0.000 A 
ATOM     11  O   UNL     1       4.936   3.536  16.898  0.00  0.00    +0.000 OA
ENDROOT
BRANCH   1  12
ATOM     12  C   UNL     1       5.169   6.260  16.375  0.00  0.00    +0.000 C 
BRANCH  12  15
ATOM     13  C   UNL     1       7.772   8.347  17.766  0.00  0.00    +0.000 A 
ATOM     14  N   UNL     1       6.748   8.079  16.981  0.00  0.00    +0.000 NA
ATOM     15  C   UNL     1       6.323   6.772  17.179  0.00  0.00    +0.000 A 
ATOM     16  C   UNL     1       7.042   6.071  18.130  0.00  0.00    +0.000 A 
ATOM     17  S   UNL     1       8.289   7.051  18.771  0.00  0.00    +0.000 S 
BRANCH  13  19
ATOM     18  C   UNL     1       9.140   9.875  19.174  0.00  0.00    +0.000 C 
ATOM     19  C   UNL     1       8.458   9.676  17.830  0.00  0.00    +0.000 C 
ENDBRANCH  13  19
ENDBRANCH  12  15
ENDBRANCH   1  12
TORSDOF 3
ENDMDL
MODEL 4
REMARK VINA RESULT:      -6.3      3.610      4.513
REMARK  Name = 
REMARK  5 active torsions:
REMARK  status: ('A' for Active; 'I' for Inactive)
REMARK    1  A    between atoms: C_1  and  C_2
REMARK    2  A    between atoms: C_2  and  C_3
REMARK    3  A    between atoms: C_5  and  C_6
REMARK    4  A    between atoms: C_6  and  N_7
REMARK    5  A    between atoms: C_13  and  C_14
REMARK                            x       y       z     vdW  Elec       q    Type
REMARK                         _______ _______ _______ _____ _____    ______ ____
ROOT
ATOM      1  N   UNL     1       2.276   7.319  18.499  0.00  0.00    +0.000 N 
ATOM      2  C   UNL     1       2.365   8.284  17.508  0.00  0.00    +0.000 A 
ATOM      3  N   UNL     1       1.999   9.522  17.624  0.00  0.00    +0.000 NA
ATOM      4  C   UNL     1       1.514   9.834  18.851  0.00  0.00    +0.000 A 
ATOM      5  S   UNL     1       0.968  11.382  19.310  0.00  0.00    +0.000 S 
ATOM      6  N   UNL     1       0.551  10.967  20.866  0.00  0.00    +0.000 NA
ATOM      7  C   UNL     1       0.818   9.672  21.055  0.00  0.00    +0.000 A 
ATOM      8  C   UNL     1       0.512   9.071  22.383  0.00  0.00    +0.000 C 
ATOM      9  C   UNL     1       1.377   8.989  19.930  0.00  0.00    +0.000 A 
ATOM     10  C   UNL     1       1.789   7.613  19.772  0.00  0.00    +0.000 A 
ATOM     11  O   UNL     1       1.710   6.792  20.680  0.00  0.00    +0.000 OA
ENDROOT
BRANCH   1  12
ATOM     12  C   UNL     1       2.728   5.967  18.224  0.00  0.00    +0.000 C 
BRANCH  12  15
ATOM     13  C   UNL     1       6.299   6.364  17.825  0.00  0.00    +0.000 A 
ATOM     14  N   UNL     1       5.034   6.556  17.511  0.00  0.00    +0.000 NA
ATOM     15  C   UNL     1       4.212   5.886  18.407  0.00  0.00    +0.000 A 
ATOM     16  C   UNL     1       4.884   5.195  19.399  0.00  0.00    +0.000 A 
ATOM     17  S   UNL     1       6.574   5.363  19.196  0.00  0.00    +0.000 S 
BRANCH  13  19
ATOM     18  C   UNL     1       7.912   8.256  17.749  0.00  0.00    +0.000 C 
ATOM     19  C   UNL     1       7.451   6.969  17.084  0.00  0.00    +0.000 C 
ENDBRANCH  13  19
ENDBRANCH  12  15
ENDBRANCH   1  12
TORSDOF 3
ENDMDL
MODEL 5
REMARK VINA RESULT:      -6.3      3.821      5.940
REMARK  Name = 
REMARK  5 active torsions:
REMARK  status: ('A' for Active; 'I' for Inactive)
REMARK    1  A    between atoms: C_1  and  C_2
REMARK    2  A    between atoms: C_2  and  C_3
REMARK    3  A    between atoms: C_5  and  C_6
REMARK    4  A    between atoms: C_6  and  N_7
REMARK    5  A    between atoms: C_13  and  C_14
REMARK                            x       y       z     vdW  Elec       q    Type
REMARK                         _______ _______ _______ _____ _____    ______ ____
ROOT
ATOM      1  N   UNL     1       2.350   7.886  18.822  0.00  0.00    +0.000 N 
ATOM      2  C   UNL     1       2.140   7.220  20.018  0.00  0.00    +0.000 A 
ATOM      3  N   UNL     1       1.414   7.647  21.003  0.00  0.00    +0.000 NA
ATOM      4  C   UNL     1       0.828   8.846  20.767  0.00  0.00    +0.000 A 
ATOM      5  S   UNL     1      -0.193   9.656  21.866  0.00  0.00    +0.000 S 
ATOM      6  N   UNL     1      -0.480  10.977  20.898  0.00  0.00    +0.000 NA
ATOM      7  C   UNL     1       0.181  10.824  19.748  0.00  0.00    +0.000 A 
ATOM      8  C   UNL     1       0.081  11.899  18.722  0.00  0.00    +0.000 C 
ATOM      9  C   UNL     1       0.935   9.614  19.629  0.00  0.00    +0.000 A 
ATOM     10  C   UNL     1       1.753   9.116  18.548  0.00  0.00    +0.000 A 
ATOM     11  O   UNL     1       1.901   9.729  17.496  0.00  0.00    +0.000 OA
ENDROOT
BRANCH   1  12
ATOM     12  C   UNL     1       3.190   7.281  17.803  0.00  0.00    +0.000 C 
BRANCH  12  15
ATOM     13  C   UNL     1       2.911   3.699  18.198  0.00  0.00    +0.000 A 
ATOM     14  N   UNL     1       2.513   4.891  17.804  0.00  0.00    +0.000 NA
ATOM     15  C   UNL     1       3.454   5.850  18.154  0.00  0.00    +0.000 A 
ATOM     16  C   UNL     1       4.566   5.352  18.810  0.00  0.00    +0.000 A 
ATOM     17  S   UNL     1       4.422   3.660  19.018  0.00  0.00    +0.000 S 
BRANCH  13  19
ATOM     18  C   UNL     1       0.884   2.388  18.798  0.00  0.00    +0.000 C 
ATOM     19  C   UNL     1       2.148   2.434  17.955  0.00  0.00    +0.000 C 
ENDBRANCH  13  19
ENDBRANCH  12  15
ENDBRANCH   1  12
TORSDOF 3
ENDMDL
MODEL 6
REMARK VINA RESULT:      -6.3      3.525      5.104
REMARK  Name = 
REMARK  5 active torsions:
REMARK  status: ('A' for Active; 'I' for Inactive)
REMARK    1  A    between atoms: C_1  and  C_2
REMARK    2  A    between atoms: C_2  and  C_3
REMARK    3  A    between atoms: C_5  and  C_6
REMARK    4  A    between atoms: C_6  and  N_7
REMARK    5  A    between atoms: C_13  and  C_14
REMARK                            x       y       z     vdW  Elec       q    Type
REMARK                         _______ _______ _______ _____ _____    ______ ____
ROOT
ATOM      1  N   UNL     1       5.887   5.142  16.637  0.00  0.00    +0.000 N 
ATOM      2  C   UNL     1       6.025   6.515  16.766  0.00  0.00    +0.000 A 
ATOM      3  N   UNL     1       5.124   7.324  17.226  0.00  0.00    +0.000 NA
ATOM      4  C   UNL     1       3.981   6.705  17.610  0.00  0.00    +0.000 A 
ATOM      5  S   UNL     1       2.624   7.501  18.266  0.00  0.00    +0.000 S 
ATOM      6  N   UNL     1       1.696   6.135  18.459  0.00  0.00    +0.000 NA
ATOM      7  C   UNL     1       2.391   5.075  18.038  0.00  0.00    +0.000 A 
ATOM      8  C   UNL     1       1.750   3.733  18.105  0.00  0.00    +0.000 C 
ATOM      9  C   UNL     1       3.706   5.357  17.552  0.00  0.00    +0.000 A 
ATOM     10  C   UNL     1       4.727   4.477  17.032  0.00  0.00    +0.000 A 
ATOM     11  O   UNL     1       4.573   3.263  16.950  0.00  0.00    +0.000 OA
ENDROOT
BRANCH   1  12
ATOM     12  C   UNL     1       6.988   4.358  16.104  0.00  0.00    +0.000 C 
BRANCH  12  15
ATOM     13  C   UNL     1       6.183   3.503  12.686  0.00  0.00    +0.000 A 
ATOM     14  N   UNL     1       6.119   3.373  13.995  0.00  0.00    +0.000 NA
ATOM     15  C   UNL     1       6.912   4.335  14.609  0.00  0.00    +0.000 A 
ATOM     16  C   UNL     1       7.562   5.188  13.736  0.00  0.00    +0.000 A 
ATOM     17  S   UNL     1       7.200   4.767  12.118  0.00  0.00    +0.000 S 
BRANCH  13  19
ATOM     18  C   UNL     1       4.124   3.313  11.302  0.00  0.00    +0.000 C 
ATOM     19  C   UNL     1       5.426   2.647  11.718  0.00  0.00    +0.000 C 
ENDBRANCH  13  19
ENDBRANCH  12  15
ENDBRANCH   1  12
TORSDOF 3
ENDMDL
MODEL 7
REMARK VINA RESULT:      -6.3      3.259      4.519
REMARK  Name = 
REMARK  5 active torsions:
REMARK  status: ('A' for Active; 'I' for Inactive)
REMARK    1  A    between atoms: C_1  and  C_2
REMARK    2  A    between atoms: C_2  and  C_3
REMARK    3  A    between atoms: C_5  and  C_6
REMARK    4  A    between atoms: C_6  and  N_7
REMARK    5  A    between atoms: C_13  and  C_14
REMARK                            x       y       z     vdW  Elec       q    Type
REMARK                         _______ _______ _______ _____ _____    ______ ____
ROOT
ATOM      1  N   UNL     1       2.766   6.500  18.687  0.00  0.00    +0.000 N 
ATOM      2  C   UNL     1       3.001   7.309  17.587  0.00  0.00    +0.000 A 
ATOM      3  N   UNL     1       2.605   8.536  17.454  0.00  0.00    +0.000 NA
ATOM      4  C   UNL     1       1.924   9.008  18.527  0.00  0.00    +0.000 A 
ATOM      5  S   UNL     1       1.290  10.585  18.653  0.00  0.00    +0.000 S 
ATOM      6  N   UNL     1       0.634  10.390  20.168  0.00  0.00    +0.000 NA
ATOM      7  C   UNL     1       0.883   9.149  20.592  0.00  0.00    +0.000 A 
ATOM      8  C   UNL     1       0.375   8.740  21.931  0.00  0.00    +0.000 C 
ATOM      9  C   UNL     1       1.625   8.328  19.687  0.00  0.00    +0.000 A 
ATOM     10  C   UNL     1       2.076   6.961  19.808  0.00  0.00    +0.000 A 
ATOM     11  O   UNL     1       1.862   6.281  20.806  0.00  0.00    +0.000 OA
ENDROOT
BRANCH   1  12
ATOM     12  C   UNL     1       3.274   5.139  18.696  0.00  0.00    +0.000 C 
BRANCH  12  15
ATOM     13  C   UNL     1       6.322   4.906  16.768  0.00  0.00    +0.000 A 
ATOM     14  N   UNL     1       5.018   4.874  16.947  0.00  0.00    +0.000 NA
ATOM     15  C   UNL     1       4.711   5.136  18.275  0.00  0.00    +0.000 A 
ATOM     16  C   UNL     1       5.808   5.372  19.084  0.00  0.00    +0.000 A 
ATOM     17  S   UNL     1       7.252   5.237  18.176  0.00  0.00    +0.000 S 
BRANCH  13  19
ATOM     18  C   UNL     1       6.094   3.935  14.489  0.00  0.00    +0.000 C 
ATOM     19  C   UNL     1       6.996   4.695  15.448  0.00  0.00    +0.000 C 
ENDBRANCH  13  19
ENDBRANCH  12  15
ENDBRANCH   1  12
TORSDOF 3
ENDMDL
MODEL 8
REMARK VINA RESULT:      -6.2      2.747      3.777
REMARK  Name = 
REMARK  5 active torsions:
REMARK  status: ('A' for Active; 'I' for Inactive)
REMARK    1  A    between atoms: C_1  and  C_2
REMARK    2  A    between atoms: C_2  and  C_3
REMARK    3  A    between atoms: C_5  and  C_6
REMARK    4  A    between atoms: C_6  and  N_7
REMARK    5  A    between atoms: C_13  and  C_14
REMARK                            x       y       z     vdW  Elec       q    Type
REMARK                         _______ _______ _______ _____ _____    ______ ____
ROOT
ATOM      1  N   UNL     1       4.830   5.644  18.253  0.00  0.00    +0.000 N 
ATOM      2  C   UNL     1       3.674   6.401  18.142  0.00  0.00    +0.000 A 
ATOM      3  N   UNL     1       2.538   6.130  18.703  0.00  0.00    +0.000 NA
ATOM      4  C   UNL     1       2.558   5.006  19.461  0.00  0.00    +0.000 A 
ATOM      5  S   UNL     1       1.222   4.402  20.330  0.00  0.00    +0.000 S 
ATOM      6  N   UNL     1       2.006   3.076  20.956  0.00  0.00    +0.000 NA
ATOM      7  C   UNL     1       3.269   3.074  20.523  0.00  0.00    +0.000 A 
ATOM      8  C   UNL     1       4.165   1.963  20.949  0.00  0.00    +0.000 C 
ATOM      9  C   UNL     1       3.628   4.165  19.671  0.00  0.00    +0.000 A 
ATOM     10  C   UNL     1       4.883   4.489  19.032  0.00  0.00    +0.000 A 
ATOM     11  O   UNL     1       5.889   3.802  19.168  0.00  0.00    +0.000 OA
ENDROOT
BRANCH   1  12
ATOM     12  C   UNL     1       6.035   6.073  17.566  0.00  0.00    +0.000 C 
BRANCH  12  15
ATOM     13  C   UNL     1       7.033   5.112  14.228  0.00  0.00    +0.000 A 
ATOM     14  N   UNL     1       7.140   5.775  15.361  0.00  0.00    +0.000 NA
ATOM     15  C   UNL     1       6.105   5.425  16.219  0.00  0.00    +0.000 A 
ATOM     16  C   UNL     1       5.228   4.485  15.709  0.00  0.00    +0.000 A 
ATOM     17  S   UNL     1       5.686   4.048  14.120  0.00  0.00    +0.000 S 
BRANCH  13  19
ATOM     18  C   UNL     1       7.464   4.540  11.845  0.00  0.00    +0.000 C 
ATOM     19  C   UNL     1       8.000   5.227  13.091  0.00  0.00    +0.000 C 
ENDBRANCH  13  19
ENDBRANCH  12  15
ENDBRANCH   1  12
TORSDOF 3
ENDMDL
MODEL 9
REMARK VINA RESULT:      -6.2      2.821      3.585
REMARK  Name = 
REMARK  5 active torsions:
REMARK  status: ('A' for Active; 'I' for Inactive)
REMARK    1  A    between atoms: C_1  and  C_2
REMARK    2  A    between atoms: C_2  and  C_3
REMARK    3  A    between atoms: C_5  and  C_6
REMARK    4  A    between atoms: C_6  and  N_7
REMARK    5  A    between atoms: C_13  and  C_14
REMARK                            x       y       z     vdW  Elec       q    Type
REMARK                         _______ _______ _______ _____ _____    ______ ____
ROOT
ATOM      1  N   UNL     1       5.720   4.766  18.409  0.00  0.00    +0.000 N 
ATOM      2  C   UNL     1       5.408   3.606  19.100  0.00  0.00    +0.000 A 
ATOM      3  N   UNL     1       4.323   3.399  19.777  0.00  0.00    +0.000 NA
ATOM      4  C   UNL     1       3.457   4.442  19.750  0.00  0.00    +0.000 A 
ATOM      5  S   UNL     1       1.943   4.463  20.534  0.00  0.00    +0.000 S 
ATOM      6  N   UNL     1       1.519   5.998  20.055  0.00  0.00    +0.000 NA
ATOM      7  C   UNL     1       2.502   6.506  19.307  0.00  0.00    +0.000 A 
ATOM      8  C   UNL     1       2.346   7.887  18.773  0.00  0.00    +0.000 C 
ATOM      9  C   UNL     1       3.625   5.645  19.101  0.00  0.00    +0.000 A 
ATOM     10  C   UNL     1       4.845   5.850  18.356  0.00  0.00    +0.000 A 
ATOM     11  O   UNL     1       5.078   6.887  17.742  0.00  0.00    +0.000 OA
ENDROOT
BRANCH   1  12
ATOM     12  C   UNL     1       6.978   4.854  17.690  0.00  0.00    +0.000 C 
BRANCH  12  15
ATOM     13  C   UNL     1       7.209   4.911  14.083  0.00  0.00    +0.000 A 
ATOM     14  N   UNL     1       7.572   5.234  15.307  0.00  0.00    +0.000 NA
ATOM     15  C   UNL     1       6.742   4.612  16.231  0.00  0.00    +0.000 A 
ATOM     16  C   UNL     1       5.759   3.813  15.676  0.00  0.00    +0.000 A 
ATOM     17  S   UNL     1       5.853   3.860  13.968  0.00  0.00    +0.000 S 
BRANCH  13  19
ATOM     18  C   UNL     1       7.417   4.631  11.620  0.00  0.00    +0.000 C 
ATOM     19  C   UNL     1       7.908   5.383  12.846  0.00  0.00    +0.000 C 
ENDBRANCH  13  19
ENDBRANCH  12  15
ENDBRANCH   1  12
TORSDOF 3
ENDMDL
