MODEL 1
REMARK VINA RESULT:      -8.8      0.000      0.000
REMARK  Name = 
REMARK  7 active torsions:
REMARK  status: ('A' for Active; 'I' for Inactive)
REMARK    1  A    between atoms: C_1  and  O_2
REMARK    2  A    between atoms: O_2  and  C_3
REMARK    3  A    between atoms: C_5  and  C_6
REMARK    4  A    between atoms: N_8  and  C_9
REMARK    5  A    between atoms: N_18  and  C_19
REMARK    6  A    between atoms: C_19  and  C_20
REMARK    7  A    between atoms: C_30  and  C_31
REMARK                            x       y       z     vdW  Elec       q    Type
REMARK                         _______ _______ _______ _____ _____    ______ ____
ROOT
ATOM      1  C   UNL     1       0.470   9.977  20.415  0.00  0.00    +0.000 A 
ATOM      2  C   UNL     1       0.321  11.340  20.206  0.00  0.00    +0.000 A 
ATOM      3  N   UNL     1      -0.638  11.738  21.114  0.00  0.00    +0.000 N 
ATOM      4  N   UNL     1      -0.877  10.701  21.970  0.00  0.00    +0.000 NA
ATOM      5  N   UNL     1      -0.293   9.611  21.482  0.00  0.00    +0.000 NA
ENDROOT
BRANCH   3   6
ATOM      6  C   UNL     1      -1.819  12.603  20.819  0.00  0.00    +0.000 C 
ATOM      7  C   UNL     1      -2.194  13.152  22.222  0.00  0.00    +0.000 C 
ATOM      8  C   UNL     1      -3.580  12.771  22.242  0.00  0.00    +0.000 C 
ATOM      9  C   UNL     1      -5.002  12.827  22.163  0.00  0.00    +0.000 A 
ATOM     10  C   UNL     1      -5.738  12.998  23.338  0.00  0.00    +0.000 A 
ATOM     11  C   UNL     1      -7.098  13.077  23.214  0.00  0.00    +0.000 A 
ATOM     12  C   UNL     1      -7.658  12.984  21.937  0.00  0.00    +0.000 A 
ATOM     13  C   UNL     1      -6.846  12.742  20.766  0.00  0.00    +0.000 A 
ATOM     14  C   UNL     1      -5.486  12.621  20.858  0.00  0.00    +0.000 A 
ATOM     15  N   UNL     1      -4.465  12.314  19.755  0.00  0.00    +0.000 N 
ATOM     16  C   UNL     1      -3.008  11.934  19.790  0.00  0.00    +0.000 C 
ATOM     17  O   UNL     1      -2.595  11.225  18.849  0.00  0.00    +0.000 OA
BRANCH  15  18
ATOM     18  C   UNL     1      -4.929  12.576  18.358  0.00  0.00    +0.000 C 
BRANCH  18  19
ATOM     19  C   UNL     1      -5.658  11.351  17.768  0.00  0.00    +0.000 C 
ATOM     20  F   UNL     1      -5.588  10.272  18.588  0.00  0.00    +0.000 F 
ATOM     21  F   UNL     1      -6.966  11.602  17.547  0.00  0.00    +0.000 F 
ATOM     22  F   UNL     1      -5.109  10.979  16.588  0.00  0.00    +0.000 F 
ENDBRANCH  18  19
ENDBRANCH  15  18
ENDBRANCH   3   6
BRANCH   1  25
ATOM     23  C   UNL     1       2.504   6.933  19.555  0.00  0.00    +0.000 A 
ATOM     24  C   UNL     1       1.753   7.900  20.248  0.00  0.00    +0.000 A 
ATOM     25  C   UNL     1       1.328   9.083  19.651  0.00  0.00    +0.000 A 
ATOM     26  C   UNL     1       1.716   9.324  18.329  0.00  0.00    +0.000 A 
ATOM     27  C   UNL     1       2.513   8.380  17.644  0.00  0.00    +0.000 A 
ATOM     28  C   UNL     1       2.926   7.156  18.225  0.00  0.00    +0.000 A 
BRANCH  28  29
ATOM     29  C   UNL     1       3.698   6.159  17.413  0.00  0.00    +0.000 A 
ATOM     30  C   UNL     1       3.405   4.784  17.453  0.00  0.00    +0.000 A 
ATOM     31  C   UNL     1       4.208   3.883  16.753  0.00  0.00    +0.000 A 
ATOM     32  N   UNL     1       5.273   4.236  16.011  0.00  0.00    +0.000 NA
ATOM     33  C   UNL     1       5.541   5.559  15.958  0.00  0.00    +0.000 A 
ATOM     34  C   UNL     1       4.799   6.527  16.629  0.00  0.00    +0.000 A 
ENDBRANCH  28  29
BRANCH  23  36
ATOM     35  C   UNL     1       1.750   5.056  20.764  0.00  0.00    +0.000 C 
ATOM     36  O   UNL     1       2.856   5.775  20.206  0.00  0.00    +0.000 OA
ENDBRANCH  23  36
ENDBRANCH   1  25
TORSDOF 6
ENDMDL
MODEL 2
REMARK VINA RESULT:      -8.6      5.100     10.841
REMARK  Name = 
REMARK  7 active torsions:
REMARK  status: ('A' for Active; 'I' for Inactive)
REMARK    1  A    between atoms: C_1  and  O_2
REMARK    2  A    between atoms: O_2  and  C_3
REMARK    3  A    between atoms: C_5  and  C_6
REMARK    4  A    between atoms: N_8  and  C_9
REMARK    5  A    between atoms: N_18  and  C_19
REMARK    6  A    between atoms: C_19  and  C_20
REMARK    7  A    between atoms: C_30  and  C_31
REMARK                            x       y       z     vdW  Elec       q    Type
REMARK                         _______ _______ _______ _____ _____    ______ ____
ROOT
ATOM      1  C   UNL     1       1.035   9.772  19.821  0.00  0.00    +0.000 A 
ATOM      2  C   UNL     1       1.492   8.937  18.811  0.00  0.00    +0.000 A 
ATOM      3  N   UNL     1       1.733   7.728  19.427  0.00  0.00    +0.000 N 
ATOM      4  N   UNL     1       1.226   7.782  20.695  0.00  0.00    +0.000 NA
ATOM      5  N   UNL     1       0.907   9.044  20.965  0.00  0.00    +0.000 NA
ENDROOT
BRANCH   3   6
ATOM      6  C   UNL     1       2.961   6.893  19.270  0.00  0.00    +0.000 C 
ATOM      7  C   UNL     1       3.824   7.744  18.299  0.00  0.00    +0.000 C 
ATOM      8  C   UNL     1       4.076   6.742  17.298  0.00  0.00    +0.000 C 
ATOM      9  C   UNL     1       4.718   5.735  16.520  0.00  0.00    +0.000 A 
ATOM     10  C   UNL     1       5.363   6.103  15.337  0.00  0.00    +0.000 A 
ATOM     11  C   UNL     1       5.992   5.110  14.637  0.00  0.00    +0.000 A 
ATOM     12  C   UNL     1       5.952   3.807  15.143  0.00  0.00    +0.000 A 
ATOM     13  C   UNL     1       5.211   3.480  16.341  0.00  0.00    +0.000 A 
ATOM     14  C   UNL     1       4.540   4.442  17.046  0.00  0.00    +0.000 A 
ATOM     15  N   UNL     1       3.664   4.291  18.296  0.00  0.00    +0.000 N 
ATOM     16  C   UNL     1       2.711   5.225  18.994  0.00  0.00    +0.000 C 
ATOM     17  O   UNL     1       1.760   4.696  19.605  0.00  0.00    +0.000 OA
BRANCH  15  18
ATOM     18  C   UNL     1       3.881   3.040  19.087  0.00  0.00    +0.000 C 
BRANCH  18  19
ATOM     19  C   UNL     1       3.002   1.885  18.565  0.00  0.00    +0.000 C 
ATOM     20  F   UNL     1       2.359   2.212  17.415  0.00  0.00    +0.000 F 
ATOM     21  F   UNL     1       3.726   0.773  18.317  0.00  0.00    +0.000 F 
ATOM     22  F   UNL     1       2.045   1.556  19.465  0.00  0.00    +0.000 F 
ENDBRANCH  18  19
ENDBRANCH  15  18
ENDBRANCH   3   6
BRANCH   1  25
ATOM     23  C   UNL     1       1.034  13.468  20.508  0.00  0.00    +0.000 A 
ATOM     24  C   UNL     1       1.220  12.078  20.616  0.00  0.00    +0.000 A 
ATOM     25  C   UNL     1       0.706  11.183  19.683  0.00  0.00    +0.000 A 
ATOM     26  C   UNL     1      -0.064  11.699  18.636  0.00  0.00    +0.000 A 
ATOM     27  C   UNL     1      -0.298  13.090  18.551  0.00  0.00    +0.000 A 
ATOM     28  C   UNL     1       0.246  14.019  19.473  0.00  0.00    +0.000 A 
BRANCH  28  29
ATOM     29  C   UNL     1       0.032  15.490  19.274  0.00  0.00    +0.000 A 
ATOM     30  C   UNL     1      -1.149  16.131  19.688  0.00  0.00    +0.000 A 
ATOM     31  C   UNL     1      -1.344  17.481  19.400  0.00  0.00    +0.000 A 
ATOM     32  N   UNL     1      -0.458  18.251  18.741  0.00  0.00    +0.000 NA
ATOM     33  C   UNL     1       0.685  17.638  18.362  0.00  0.00    +0.000 A 
ATOM     34  C   UNL     1       0.960  16.295  18.601  0.00  0.00    +0.000 A 
ENDBRANCH  28  29
BRANCH  23  36
ATOM     35  C   UNL     1       3.023  14.427  21.331  0.00  0.00    +0.000 C 
ATOM     36  O   UNL     1       1.603  14.289  21.453  0.00  0.00    +0.000 OA
ENDBRANCH  23  36
ENDBRANCH   1  25
TORSDOF 6
ENDMDL
MODEL 3
REMARK VINA RESULT:      -8.6      5.132     10.844
REMARK  Name = 
REMARK  7 active torsions:
REMARK  status: ('A' for Active; 'I' for Inactive)
REMARK    1  A    between atoms: C_1  and  O_2
REMARK    2  A    between atoms: O_2  and  C_3
REMARK    3  A    between atoms: C_5  and  C_6
REMARK    4  A    between atoms: N_8  and  C_9
REMARK    5  A    between atoms: N_18  and  C_19
REMARK    6  A    between atoms: C_19  and  C_20
REMARK    7  A    between atoms: C_30  and  C_31
REMARK                            x       y       z     vdW  Elec       q    Type
REMARK                         _______ _______ _______ _____ _____    ______ ____
ROOT
ATOM      1  C   UNL     1       1.047   9.831  19.729  0.00  0.00    +0.000 A 
ATOM      2  C   UNL     1       1.512   8.991  18.728  0.00  0.00    +0.000 A 
ATOM      3  N   UNL     1       1.740   7.783  19.351  0.00  0.00    +0.000 N 
ATOM      4  N   UNL     1       1.219   7.844  20.613  0.00  0.00    +0.000 NA
ATOM      5  N   UNL     1       0.903   9.109  20.875  0.00  0.00    +0.000 NA
ENDROOT
BRANCH   3   6
ATOM      6  C   UNL     1       2.965   6.942  19.211  0.00  0.00    +0.000 C 
ATOM      7  C   UNL     1       3.838   7.777  18.236  0.00  0.00    +0.000 C 
ATOM      8  C   UNL     1       4.093   6.764  17.248  0.00  0.00    +0.000 C 
ATOM      9  C   UNL     1       4.735   5.745  16.486  0.00  0.00    +0.000 A 
ATOM     10  C   UNL     1       5.389   6.097  15.303  0.00  0.00    +0.000 A 
ATOM     11  C   UNL     1       6.019   5.094  14.618  0.00  0.00    +0.000 A 
ATOM     12  C   UNL     1       5.970   3.798  15.139  0.00  0.00    +0.000 A 
ATOM     13  C   UNL     1       5.221   3.487  16.335  0.00  0.00    +0.000 A 
ATOM     14  C   UNL     1       4.549   4.459  17.025  0.00  0.00    +0.000 A 
ATOM     15  N   UNL     1       3.664   4.326  18.271  0.00  0.00    +0.000 N 
ATOM     16  C   UNL     1       2.711   5.271  18.953  0.00  0.00    +0.000 C 
ATOM     17  O   UNL     1       1.754   4.753  19.563  0.00  0.00    +0.000 OA
BRANCH  15  18
ATOM     18  C   UNL     1       3.872   3.083  19.077  0.00  0.00    +0.000 C 
BRANCH  18  19
ATOM     19  C   UNL     1       2.995   1.924  18.560  0.00  0.00    +0.000 C 
ATOM     20  F   UNL     1       2.017   1.592  19.440  0.00  0.00    +0.000 F 
ATOM     21  F   UNL     1       2.394   2.230  17.390  0.00  0.00    +0.000 F 
ATOM     22  F   UNL     1       3.733   0.807  18.360  0.00  0.00    +0.000 F 
ENDBRANCH  18  19
ENDBRANCH  15  18
ENDBRANCH   3   6
BRANCH   1  25
ATOM     23  C   UNL     1       1.195  13.549  20.272  0.00  0.00    +0.000 A 
ATOM     24  C   UNL     1       1.370  12.160  20.407  0.00  0.00    +0.000 A 
ATOM     25  C   UNL     1       0.726  11.243  19.581  0.00  0.00    +0.000 A 
ATOM     26  C   UNL     1      -0.163  11.739  18.622  0.00  0.00    +0.000 A 
ATOM     27  C   UNL     1      -0.382  13.131  18.516  0.00  0.00    +0.000 A 
ATOM     28  C   UNL     1       0.290  14.080  19.325  0.00  0.00    +0.000 A 
BRANCH  28  29
ATOM     29  C   UNL     1       0.077  15.547  19.101  0.00  0.00    +0.000 A 
ATOM     30  C   UNL     1       1.037  16.346  18.454  0.00  0.00    +0.000 A 
ATOM     31  C   UNL     1       0.837  17.722  18.350  0.00  0.00    +0.000 A 
ATOM     32  N   UNL     1      -0.241  18.370  18.829  0.00  0.00    +0.000 NA
ATOM     33  C   UNL     1      -1.170  17.598  19.433  0.00  0.00    +0.000 A 
ATOM     34  C   UNL     1      -1.051  16.221  19.587  0.00  0.00    +0.000 A 
ENDBRANCH  28  29
BRANCH  23  36
ATOM     35  C   UNL     1       3.298  14.118  21.170  0.00  0.00    +0.000 C 
ATOM     36  O   UNL     1       1.893  14.389  21.105  0.00  0.00    +0.000 OA
ENDBRANCH  23  36
ENDBRANCH   1  25
TORSDOF 6
ENDMDL
MODEL 4
REMARK VINA RESULT:      -8.6      4.505     10.596
REMARK  Name = 
REMARK  7 active torsions:
REMARK  status: ('A' for Active; 'I' for Inactive)
REMARK    1  A    between atoms: C_1  and  O_2
REMARK    2  A    between atoms: O_2  and  C_3
REMARK    3  A    between atoms: C_5  and  C_6
REMARK    4  A    between atoms: N_8  and  C_9
REMARK    5  A    between atoms: N_18  and  C_19
REMARK    6  A    between atoms: C_19  and  C_20
REMARK    7  A    between atoms: C_30  and  C_31
REMARK                            x       y       z     vdW  Elec       q    Type
REMARK                         _______ _______ _______ _____ _____    ______ ____
ROOT
ATOM      1  C   UNL     1       0.967   9.747  19.029  0.00  0.00    +0.000 A 
ATOM      2  C   UNL     1       1.992   8.883  19.385  0.00  0.00    +0.000 A 
ATOM      3  N   UNL     1       2.439   8.348  18.196  0.00  0.00    +0.000 N 
ATOM      4  N   UNL     1       1.857   9.036  17.169  0.00  0.00    +0.000 NA
ATOM      5  N   UNL     1       0.891   9.800  17.671  0.00  0.00    +0.000 NA
ENDROOT
BRANCH   3   6
ATOM      6  C   UNL     1       2.696   6.903  17.926  0.00  0.00    +0.000 C 
ATOM      7  C   UNL     1       1.558   6.204  18.720  0.00  0.00    +0.000 C 
ATOM      8  C   UNL     1       2.360   5.300  19.499  0.00  0.00    +0.000 C 
ATOM      9  C   UNL     1       3.009   4.118  19.961  0.00  0.00    +0.000 A 
ATOM     10  C   UNL     1       2.399   3.359  20.962  0.00  0.00    +0.000 A 
ATOM     11  C   UNL     1       3.041   2.216  21.355  0.00  0.00    +0.000 A 
ATOM     12  C   UNL     1       4.249   1.883  20.736  0.00  0.00    +0.000 A 
ATOM     13  C   UNL     1       4.861   2.746  19.751  0.00  0.00    +0.000 A 
ATOM     14  C   UNL     1       4.266   3.915  19.362  0.00  0.00    +0.000 A 
ATOM     15  N   UNL     1       4.773   4.981  18.382  0.00  0.00    +0.000 N 
ATOM     16  C   UNL     1       4.317   6.382  18.071  0.00  0.00    +0.000 C 
ATOM     17  O   UNL     1       5.195   7.179  17.682  0.00  0.00    +0.000 OA
BRANCH  15  18
ATOM     18  C   UNL     1       5.831   4.526  17.428  0.00  0.00    +0.000 C 
BRANCH  18  19
ATOM     19  C   UNL     1       5.231   4.154  16.057  0.00  0.00    +0.000 C 
ATOM     20  F   UNL     1       3.942   3.740  16.160  0.00  0.00    +0.000 F 
ATOM     21  F   UNL     1       5.249   5.196  15.199  0.00  0.00    +0.000 F 
ATOM     22  F   UNL     1       5.920   3.139  15.482  0.00  0.00    +0.000 F 
ENDBRANCH  18  19
ENDBRANCH  15  18
ENDBRANCH   3   6
BRANCH   1  25
ATOM     23  C   UNL     1      -0.547  10.909  22.269  0.00  0.00    +0.000 A 
ATOM     24  C   UNL     1       0.154  10.172  21.297  0.00  0.00    +0.000 A 
ATOM     25  C   UNL     1       0.130  10.506  19.947  0.00  0.00    +0.000 A 
ATOM     26  C   UNL     1      -0.667  11.587  19.555  0.00  0.00    +0.000 A 
ATOM     27  C   UNL     1      -1.413  12.299  20.520  0.00  0.00    +0.000 A 
ATOM     28  C   UNL     1      -1.374  11.993  21.903  0.00  0.00    +0.000 A 
BRANCH  28  29
ATOM     29  C   UNL     1      -2.123  12.845  22.884  0.00  0.00    +0.000 A 
ATOM     30  C   UNL     1      -1.554  14.001  23.448  0.00  0.00    +0.000 A 
ATOM     31  C   UNL     1      -2.251  14.711  24.426  0.00  0.00    +0.000 A 
ATOM     32  N   UNL     1      -3.470  14.372  24.884  0.00  0.00    +0.000 NA
ATOM     33  C   UNL     1      -4.023  13.272  24.327  0.00  0.00    +0.000 A 
ATOM     34  C   UNL     1      -3.397  12.501  23.352  0.00  0.00    +0.000 A 
ENDBRANCH  28  29
BRANCH  23  36
ATOM     35  C   UNL     1       0.277   9.314  23.796  0.00  0.00    +0.000 C 
ATOM     36  O   UNL     1      -0.445  10.534  23.587  0.00  0.00    +0.000 OA
ENDBRANCH  23  36
ENDBRANCH   1  25
TORSDOF 6
ENDMDL
MODEL 5
REMARK VINA RESULT:      -8.5      4.407     10.910
REMARK  Name = 
REMARK  7 active torsions:
REMARK  status: ('A' for Active; 'I' for Inactive)
REMARK    1  A    between atoms: C_1  and  O_2
REMARK    2  A    between atoms: O_2  and  C_3
REMARK    3  A    between atoms: C_5  and  C_6
REMARK    4  A    between atoms: N_8  and  C_9
REMARK    5  A    between atoms: N_18  and  C_19
REMARK    6  A    between atoms: C_19  and  C_20
REMARK    7  A    between atoms: C_30  and  C_31
REMARK                            x       y       z     vdW  Elec       q    Type
REMARK                         _______ _______ _______ _____ _____    ______ ____
ROOT
ATOM      1  C   UNL     1       1.130   9.901  19.532  0.00  0.00    +0.000 A 
ATOM      2  C   UNL     1       1.616   9.056  18.545  0.00  0.00    +0.000 A 
ATOM      3  N   UNL     1       1.803   7.843  19.172  0.00  0.00    +0.000 N 
ATOM      4  N   UNL     1       1.240   7.909  20.415  0.00  0.00    +0.000 NA
ATOM      5  N   UNL     1       0.934   9.178  20.669  0.00  0.00    +0.000 NA
ENDROOT
BRANCH   3   6
ATOM      6  C   UNL     1       3.020   6.983  19.073  0.00  0.00    +0.000 C 
ATOM      7  C   UNL     1       3.923   7.788  18.099  0.00  0.00    +0.000 C 
ATOM      8  C   UNL     1       4.183   6.752  17.136  0.00  0.00    +0.000 C 
ATOM      9  C   UNL     1       4.827   5.711  16.406  0.00  0.00    +0.000 A 
ATOM     10  C   UNL     1       5.508   6.031  15.230  0.00  0.00    +0.000 A 
ATOM     11  C   UNL     1       6.137   5.006  14.577  0.00  0.00    +0.000 A 
ATOM     12  C   UNL     1       6.061   3.721  15.122  0.00  0.00    +0.000 A 
ATOM     13  C   UNL     1       5.284   3.444  16.309  0.00  0.00    +0.000 A 
ATOM     14  C   UNL     1       4.612   4.437  16.967  0.00  0.00    +0.000 A 
ATOM     15  N   UNL     1       3.702   4.340  18.197  0.00  0.00    +0.000 N 
ATOM     16  C   UNL     1       2.748   5.312  18.842  0.00  0.00    +0.000 C 
ATOM     17  O   UNL     1       1.772   4.818  19.442  0.00  0.00    +0.000 OA
BRANCH  15  18
ATOM     18  C   UNL     1       3.876   3.111  19.031  0.00  0.00    +0.000 C 
BRANCH  18  19
ATOM     19  C   UNL     1       2.980   1.960  18.531  0.00  0.00    +0.000 C 
ATOM     20  F   UNL     1       3.685   0.821  18.314  0.00  0.00    +0.000 F 
ATOM     21  F   UNL     1       2.002   1.663  19.413  0.00  0.00    +0.000 F 
ATOM     22  F   UNL     1       2.386   2.280  17.357  0.00  0.00    +0.000 F 
ENDBRANCH  18  19
ENDBRANCH  15  18
ENDBRANCH   3   6
BRANCH   1  25
ATOM     23  C   UNL     1      -0.758  13.146  19.736  0.00  0.00    +0.000 A 
ATOM     24  C   UNL     1      -0.419  11.781  19.761  0.00  0.00    +0.000 A 
ATOM     25  C   UNL     1       0.836  11.318  19.377  0.00  0.00    +0.000 A 
ATOM     26  C   UNL     1       1.762  12.254  18.903  0.00  0.00    +0.000 A 
ATOM     27  C   UNL     1       1.409  13.619  18.828  0.00  0.00    +0.000 A 
ATOM     28  C   UNL     1       0.148  14.113  19.247  0.00  0.00    +0.000 A 
BRANCH  28  29
ATOM     29  C   UNL     1      -0.130  15.586  19.222  0.00  0.00    +0.000 A 
ATOM     30  C   UNL     1      -0.258  16.297  18.016  0.00  0.00    +0.000 A 
ATOM     31  C   UNL     1      -0.424  17.682  18.041  0.00  0.00    +0.000 A 
ATOM     32  N   UNL     1      -0.481  18.418  19.166  0.00  0.00    +0.000 NA
ATOM     33  C   UNL     1      -0.377  17.731  20.324  0.00  0.00    +0.000 A 
ATOM     34  C   UNL     1      -0.203  16.352  20.393  0.00  0.00    +0.000 A 
ENDBRANCH  28  29
BRANCH  23  36
ATOM     35  C   UNL     1      -3.004  12.504  20.050  0.00  0.00    +0.000 C 
ATOM     36  O   UNL     1      -2.007  13.527  20.164  0.00  0.00    +0.000 OA
ENDBRANCH  23  36
ENDBRANCH   1  25
TORSDOF 6
ENDMDL
MODEL 6
REMARK VINA RESULT:      -8.4      5.083     10.981
REMARK  Name = 
REMARK  7 active torsions:
REMARK  status: ('A' for Active; 'I' for Inactive)
REMARK    1  A    between atoms: C_1  and  O_2
REMARK    2  A    between atoms: O_2  and  C_3
REMARK    3  A    between atoms: C_5  and  C_6
REMARK    4  A    between atoms: N_8  and  C_9
REMARK    5  A    between atoms: N_18  and  C_19
REMARK    6  A    between atoms: C_19  and  C_20
REMARK    7  A    between atoms: C_30  and  C_31
REMARK                            x       y       z     vdW  Elec       q    Type
REMARK                         _______ _______ _______ _____ _____    ______ ____
ROOT
ATOM      1  C   UNL     1       1.402   9.691  19.408  0.00  0.00    +0.000 A 
ATOM      2  C   UNL     1       1.771   8.787  18.422  0.00  0.00    +0.000 A 
ATOM      3  N   UNL     1       1.869   7.573  19.068  0.00  0.00    +0.000 N 
ATOM      4  N   UNL     1       1.361   7.713  20.328  0.00  0.00    +0.000 NA
ATOM      5  N   UNL     1       1.184   9.010  20.567  0.00  0.00    +0.000 NA
ENDROOT
BRANCH   3   6
ATOM      6  C   UNL     1       2.996   6.602  18.943  0.00  0.00    +0.000 C 
ATOM      7  C   UNL     1       4.082   7.438  18.213  0.00  0.00    +0.000 C 
ATOM      8  C   UNL     1       4.346   6.544  17.119  0.00  0.00    +0.000 C 
ATOM      9  C   UNL     1       4.962   5.562  16.289  0.00  0.00    +0.000 A 
ATOM     10  C   UNL     1       5.804   5.981  15.256  0.00  0.00    +0.000 A 
ATOM     11  C   UNL     1       6.398   5.005  14.503  0.00  0.00    +0.000 A 
ATOM     12  C   UNL     1       6.130   3.669  14.812  0.00  0.00    +0.000 A 
ATOM     13  C   UNL     1       5.198   3.301  15.853  0.00  0.00    +0.000 A 
ATOM     14  C   UNL     1       4.557   4.251  16.601  0.00  0.00    +0.000 A 
ATOM     15  N   UNL     1       3.505   4.069  17.703  0.00  0.00    +0.000 N 
ATOM     16  C   UNL     1       2.586   5.032  18.406  0.00  0.00    +0.000 C 
ATOM     17  O   UNL     1       1.503   4.569  18.817  0.00  0.00    +0.000 OA
BRANCH  15  18
ATOM     18  C   UNL     1       3.458   2.711  18.329  0.00  0.00    +0.000 C 
BRANCH  18  19
ATOM     19  C   UNL     1       4.233   2.679  19.662  0.00  0.00    +0.000 C 
ATOM     20  F   UNL     1       5.200   3.631  19.713  0.00  0.00    +0.000 F 
ATOM     21  F   UNL     1       3.421   2.876  20.722  0.00  0.00    +0.000 F 
ATOM     22  F   UNL     1       4.851   1.487  19.837  0.00  0.00    +0.000 F 
ENDBRANCH  18  19
ENDBRANCH  15  18
ENDBRANCH   3   6
BRANCH   1  25
ATOM     23  C   UNL     1       0.145  13.185  20.000  0.00  0.00    +0.000 A 
ATOM     24  C   UNL     1       0.307  11.788  20.032  0.00  0.00    +0.000 A 
ATOM     25  C   UNL     1       1.236  11.126  19.234  0.00  0.00    +0.000 A 
ATOM     26  C   UNL     1       1.990  11.891  18.338  0.00  0.00    +0.000 A 
ATOM     27  C   UNL     1       1.796  13.288  18.265  0.00  0.00    +0.000 A 
ATOM     28  C   UNL     1       0.879  13.982  19.094  0.00  0.00    +0.000 A 
BRANCH  28  29
ATOM     29  C   UNL     1       0.785  15.477  19.027  0.00  0.00    +0.000 A 
ATOM     30  C   UNL     1       1.769  16.308  19.592  0.00  0.00    +0.000 A 
ATOM     31  C   UNL     1       1.594  17.692  19.587  0.00  0.00    +0.000 A 
ATOM     32  N   UNL     1       0.526  18.319  19.060  0.00  0.00    +0.000 NA
ATOM     33  C   UNL     1      -0.408  17.520  18.500  0.00  0.00    +0.000 A 
ATOM     34  C   UNL     1      -0.319  16.132  18.466  0.00  0.00    +0.000 A 
ENDBRANCH  28  29
BRANCH  23  36
ATOM     35  C   UNL     1      -0.372  13.784  22.220  0.00  0.00    +0.000 C 
ATOM     36  O   UNL     1      -0.771  13.766  20.844  0.00  0.00    +0.000 OA
ENDBRANCH  23  36
ENDBRANCH   1  25
TORSDOF 6
ENDMDL
MODEL 7
REMARK VINA RESULT:      -8.4      4.454     10.935
REMARK  Name = 
REMARK  7 active torsions:
REMARK  status: ('A' for Active; 'I' for Inactive)
REMARK    1  A    between atoms: C_1  and  O_2
REMARK    2  A    between atoms: O_2  and  C_3
REMARK    3  A    between atoms: C_5  and  C_6
REMARK    4  A    between atoms: N_8  and  C_9
REMARK    5  A    between atoms: N_18  and  C_19
REMARK    6  A    between atoms: C_19  and  C_20
REMARK    7  A    between atoms: C_30  and  C_31
REMARK                            x       y       z     vdW  Elec       q    Type
REMARK                         _______ _______ _______ _____ _____    ______ ____
ROOT
ATOM      1  C   UNL     1       1.252   9.884  19.507  0.00  0.00    +0.000 A 
ATOM      2  C   UNL     1       1.736   9.043  18.514  0.00  0.00    +0.000 A 
ATOM      3  N   UNL     1       1.891   7.818  19.126  0.00  0.00    +0.000 N 
ATOM      4  N   UNL     1       1.312   7.878  20.362  0.00  0.00    +0.000 NA
ATOM      5  N   UNL     1       1.027   9.149  20.631  0.00  0.00    +0.000 NA
ENDROOT
BRANCH   3   6
ATOM      6  C   UNL     1       3.091   6.936  19.031  0.00  0.00    +0.000 C 
ATOM      7  C   UNL     1       4.015   7.727  18.065  0.00  0.00    +0.000 C 
ATOM      8  C   UNL     1       4.261   6.690  17.100  0.00  0.00    +0.000 C 
ATOM      9  C   UNL     1       4.889   5.639  16.371  0.00  0.00    +0.000 A 
ATOM     10  C   UNL     1       5.583   5.950  15.199  0.00  0.00    +0.000 A 
ATOM     11  C   UNL     1       6.197   4.916  14.546  0.00  0.00    +0.000 A 
ATOM     12  C   UNL     1       6.094   3.631  15.086  0.00  0.00    +0.000 A 
ATOM     13  C   UNL     1       5.305   3.364  16.268  0.00  0.00    +0.000 A 
ATOM     14  C   UNL     1       4.648   4.368  16.925  0.00  0.00    +0.000 A 
ATOM     15  N   UNL     1       3.729   4.284  18.150  0.00  0.00    +0.000 N 
ATOM     16  C   UNL     1       2.790   5.271  18.792  0.00  0.00    +0.000 C 
ATOM     17  O   UNL     1       1.802   4.794  19.386  0.00  0.00    +0.000 OA
BRANCH  15  18
ATOM     18  C   UNL     1       3.876   3.049  18.981  0.00  0.00    +0.000 C 
BRANCH  18  19
ATOM     19  C   UNL     1       2.982   1.908  18.455  0.00  0.00    +0.000 C 
ATOM     20  F   UNL     1       2.019   1.561  19.346  0.00  0.00    +0.000 F 
ATOM     21  F   UNL     1       2.360   2.243  17.304  0.00  0.00    +0.000 F 
ATOM     22  F   UNL     1       3.709   0.791  18.214  0.00  0.00    +0.000 F 
ENDBRANCH  18  19
ENDBRANCH  15  18
ENDBRANCH   3   6
BRANCH   1  25
ATOM     23  C   UNL     1      -0.362  13.234  20.062  0.00  0.00    +0.000 A 
ATOM     24  C   UNL     1      -0.088  11.854  20.060  0.00  0.00    +0.000 A 
ATOM     25  C   UNL     1       0.989  11.309  19.368  0.00  0.00    +0.000 A 
ATOM     26  C   UNL     1       1.786  12.174  18.612  0.00  0.00    +0.000 A 
ATOM     27  C   UNL     1       1.485  13.553  18.569  0.00  0.00    +0.000 A 
ATOM     28  C   UNL     1       0.413  14.130  19.294  0.00  0.00    +0.000 A 
BRANCH  28  29
ATOM     29  C   UNL     1       0.203  15.615  19.274  0.00  0.00    +0.000 A 
ATOM     30  C   UNL     1       0.549  16.429  20.367  0.00  0.00    +0.000 A 
ATOM     31  C   UNL     1       0.250  17.790  20.341  0.00  0.00    +0.000 A 
ATOM     32  N   UNL     1      -0.357  18.413  19.314  0.00  0.00    +0.000 NA
ATOM     33  C   UNL     1      -0.671  17.634  18.256  0.00  0.00    +0.000 A 
ATOM     34  C   UNL     1      -0.417  16.267  18.200  0.00  0.00    +0.000 A 
ENDBRANCH  28  29
BRANCH  23  36
ATOM     35  C   UNL     1      -2.683  13.109  20.449  0.00  0.00    +0.000 C 
ATOM     36  O   UNL     1      -1.425  13.698  20.799  0.00  0.00    +0.000 OA
ENDBRANCH  23  36
ENDBRANCH   1  25
TORSDOF 6
ENDMDL
MODEL 8
REMARK VINA RESULT:      -8.4      5.102     10.979
REMARK  Name = 
REMARK  7 active torsions:
REMARK  status: ('A' for Active; 'I' for Inactive)
REMARK    1  A    between atoms: C_1  and  O_2
REMARK    2  A    between atoms: O_2  and  C_3
REMARK    3  A    between atoms: C_5  and  C_6
REMARK    4  A    between atoms: N_8  and  C_9
REMARK    5  A    between atoms: N_18  and  C_19
REMARK    6  A    between atoms: C_19  and  C_20
REMARK    7  A    between atoms: C_30  and  C_31
REMARK                            x       y       z     vdW  Elec       q    Type
REMARK                         _______ _______ _______ _____ _____    ______ ____
ROOT
ATOM      1  C   UNL     1       1.397   9.725  19.347  0.00  0.00    +0.000 A 
ATOM      2  C   UNL     1       1.809   8.842  18.358  0.00  0.00    +0.000 A 
ATOM      3  N   UNL     1       1.877   7.615  18.981  0.00  0.00    +0.000 N 
ATOM      4  N   UNL     1       1.314   7.728  20.220  0.00  0.00    +0.000 NA
ATOM      5  N   UNL     1       1.127   9.019  20.479  0.00  0.00    +0.000 NA
ENDROOT
BRANCH   3   6
ATOM      6  C   UNL     1       3.008   6.645  18.885  0.00  0.00    +0.000 C 
ATOM      7  C   UNL     1       4.101   7.472  18.154  0.00  0.00    +0.000 C 
ATOM      8  C   UNL     1       4.380   6.561  17.077  0.00  0.00    +0.000 C 
ATOM      9  C   UNL     1       5.008   5.568  16.271  0.00  0.00    +0.000 A 
ATOM     10  C   UNL     1       5.861   5.972  15.241  0.00  0.00    +0.000 A 
ATOM     11  C   UNL     1       6.466   4.986  14.511  0.00  0.00    +0.000 A 
ATOM     12  C   UNL     1       6.199   3.654  14.838  0.00  0.00    +0.000 A 
ATOM     13  C   UNL     1       5.255   3.301  15.874  0.00  0.00    +0.000 A 
ATOM     14  C   UNL     1       4.603   4.260  16.600  0.00  0.00    +0.000 A 
ATOM     15  N   UNL     1       3.539   4.093  17.692  0.00  0.00    +0.000 N 
ATOM     16  C   UNL     1       2.609   5.065  18.369  0.00  0.00    +0.000 C 
ATOM     17  O   UNL     1       1.522   4.605  18.774  0.00  0.00    +0.000 OA
BRANCH  15  18
ATOM     18  C   UNL     1       3.488   2.746  18.339  0.00  0.00    +0.000 C 
BRANCH  18  19
ATOM     19  C   UNL     1       4.234   2.742  19.689  0.00  0.00    +0.000 C 
ATOM     20  F   UNL     1       3.401   2.982  20.733  0.00  0.00    +0.000 F 
ATOM     21  F   UNL     1       4.842   1.560  19.925  0.00  0.00    +0.000 F 
ATOM     22  F   UNL     1       5.186   3.705  19.722  0.00  0.00    +0.000 F 
ENDBRANCH  18  19
ENDBRANCH  15  18
ENDBRANCH   3   6
BRANCH   1  25
ATOM     23  C   UNL     1       0.171  13.218  20.007  0.00  0.00    +0.000 A 
ATOM     24  C   UNL     1       0.323  11.819  20.015  0.00  0.00    +0.000 A 
ATOM     25  C   UNL     1       1.239  11.164  19.197  0.00  0.00    +0.000 A 
ATOM     26  C   UNL     1       1.989  11.937  18.305  0.00  0.00    +0.000 A 
ATOM     27  C   UNL     1       1.805  13.337  18.257  0.00  0.00    +0.000 A 
ATOM     28  C   UNL     1       0.902  14.024  19.105  0.00  0.00    +0.000 A 
BRANCH  28  29
ATOM     29  C   UNL     1       0.818  15.520  19.063  0.00  0.00    +0.000 A 
ATOM     30  C   UNL     1      -0.268  16.187  18.469  0.00  0.00    +0.000 A 
ATOM     31  C   UNL     1      -0.259  17.578  18.370  0.00  0.00    +0.000 A 
ATOM     32  N   UNL     1       0.737  18.363  18.819  0.00  0.00    +0.000 NA
ATOM     33  C   UNL     1       1.771  17.723  19.407  0.00  0.00    +0.000 A 
ATOM     34  C   UNL     1       1.848  16.340  19.543  0.00  0.00    +0.000 A 
ENDBRANCH  28  29
BRANCH  23  36
ATOM     35  C   UNL     1      -0.248  13.943  22.209  0.00  0.00    +0.000 C 
ATOM     36  O   UNL     1      -0.731  13.792  20.870  0.00  0.00    +0.000 OA
ENDBRANCH  23  36
ENDBRANCH   1  25
TORSDOF 6
ENDMDL
MODEL 9
REMARK VINA RESULT:      -8.4      4.872     10.868
REMARK  Name = 
REMARK  7 active torsions:
REMARK  status: ('A' for Active; 'I' for Inactive)
REMARK    1  A    between atoms: C_1  and  O_2
REMARK    2  A    between atoms: O_2  and  C_3
REMARK    3  A    between atoms: C_5  and  C_6
REMARK    4  A    between atoms: N_8  and  C_9
REMARK    5  A    between atoms: N_18  and  C_19
REMARK    6  A    between atoms: C_19  and  C_20
REMARK    7  A    between atoms: C_30  and  C_31
REMARK                            x       y       z     vdW  Elec       q    Type
REMARK                         _______ _______ _______ _____ _____    ______ ____
ROOT
ATOM      1  C   UNL     1       1.059   9.644  19.941  0.00  0.00    +0.000 A 
ATOM      2  C   UNL     1       1.529   8.851  18.904  0.00  0.00    +0.000 A 
ATOM      3  N   UNL     1       1.784   7.624  19.478  0.00  0.00    +0.000 N 
ATOM      4  N   UNL     1       1.274   7.627  20.745  0.00  0.00    +0.000 NA
ATOM      5  N   UNL     1       0.938   8.876  21.059  0.00  0.00    +0.000 NA
ENDROOT
BRANCH   3   6
ATOM      6  C   UNL     1       3.022   6.811  19.295  0.00  0.00    +0.000 C 
ATOM      7  C   UNL     1       3.859   7.685  18.321  0.00  0.00    +0.000 C 
ATOM      8  C   UNL     1       4.113   6.699  17.306  0.00  0.00    +0.000 C 
ATOM      9  C   UNL     1       4.760   5.711  16.508  0.00  0.00    +0.000 A 
ATOM     10  C   UNL     1       5.383   6.101  15.321  0.00  0.00    +0.000 A 
ATOM     11  C   UNL     1       6.018   5.126  14.601  0.00  0.00    +0.000 A 
ATOM     12  C   UNL     1       6.005   3.818  15.094  0.00  0.00    +0.000 A 
ATOM     13  C   UNL     1       5.286   3.466  16.297  0.00  0.00    +0.000 A 
ATOM     14  C   UNL     1       4.609   4.409  17.022  0.00  0.00    +0.000 A 
ATOM     15  N   UNL     1       3.753   4.231  18.282  0.00  0.00    +0.000 N 
ATOM     16  C   UNL     1       2.796   5.142  19.004  0.00  0.00    +0.000 C 
ATOM     17  O   UNL     1       1.861   4.592  19.621  0.00  0.00    +0.000 OA
BRANCH  15  18
ATOM     18  C   UNL     1       4.001   2.975  19.056  0.00  0.00    +0.000 C 
BRANCH  18  19
ATOM     19  C   UNL     1       3.109   1.821  18.555  0.00  0.00    +0.000 C 
ATOM     20  F   UNL     1       3.823   0.693  18.312  0.00  0.00    +0.000 F 
ATOM     21  F   UNL     1       2.148   1.502  19.449  0.00  0.00    +0.000 F 
ATOM     22  F   UNL     1       2.493   2.149  17.394  0.00  0.00    +0.000 F 
ENDBRANCH  18  19
ENDBRANCH  15  18
ENDBRANCH   3   6
BRANCH   1  25
ATOM     23  C   UNL     1       0.342  13.168  21.038  0.00  0.00    +0.000 A 
ATOM     24  C   UNL     1       0.581  11.782  21.030  0.00  0.00    +0.000 A 
ATOM     25  C   UNL     1       0.713  11.055  19.851  0.00  0.00    +0.000 A 
ATOM     26  C   UNL     1       0.548  11.736  18.641  0.00  0.00    +0.000 A 
ATOM     27  C   UNL     1       0.257  13.118  18.643  0.00  0.00    +0.000 A 
ATOM     28  C   UNL     1       0.153  13.881  19.833  0.00  0.00    +0.000 A 
BRANCH  28  29
ATOM     29  C   UNL     1      -0.071  15.362  19.761  0.00  0.00    +0.000 A 
ATOM     30  C   UNL     1      -1.329  15.936  20.017  0.00  0.00    +0.000 A 
ATOM     31  C   UNL     1      -1.513  17.308  19.849  0.00  0.00    +0.000 A 
ATOM     32  N   UNL     1      -0.548  18.159  19.454  0.00  0.00    +0.000 NA
ATOM     33  C   UNL     1       0.665  17.609  19.227  0.00  0.00    +0.000 A 
ATOM     34  C   UNL     1       0.936  16.251  19.363  0.00  0.00    +0.000 A 
ENDBRANCH  28  29
BRANCH  23  36
ATOM     35  C   UNL     1      -0.908  13.490  23.010  0.00  0.00    +0.000 C 
ATOM     36  O   UNL     1       0.258  13.820  22.245  0.00  0.00    +0.000 OA
ENDBRANCH  23  36
ENDBRANCH   1  25
TORSDOF 6
ENDMDL
