MODEL 1
REMARK VINA RESULT:      -7.5      0.000      0.000
REMARK  Name = 
REMARK  7 active torsions:
REMARK  status: ('A' for Active; 'I' for Inactive)
REMARK    1  A    between atoms: C_1  and  O_2
REMARK    2  A    between atoms: O_2  and  C_3
REMARK    3  A    between atoms: C_6  and  C_7
REMARK    4  A    between atoms: C_7  and  C_8
REMARK    5  A    between atoms: C_8  and  N_9
REMARK    6  A    between atoms: N_9  and  C_10
REMARK    7  A    between atoms: C_15  and  C_16
REMARK                            x       y       z     vdW  Elec       q    Type
REMARK                         _______ _______ _______ _____ _____    ______ ____
ROOT
ATOM      1  C   UNL     1       3.283   6.297  18.311  0.00  0.00    +0.000 A 
ATOM      2  N   UNL     1       4.544   6.481  17.918  0.00  0.00    +0.000 NA
ATOM      3  C   UNL     1       5.446   5.597  18.306  0.00  0.00    +0.000 A 
ATOM      4  N   UNL     1       5.170   4.469  18.945  0.00  0.00    +0.000 NA
ATOM      5  C   UNL     1       3.943   4.315  19.447  0.00  0.00    +0.000 A 
ATOM      6  C   UNL     1       3.656   3.149  20.154  0.00  0.00    +0.000 A 
ATOM      7  C   UNL     1       2.653   3.111  21.122  0.00  0.00    +0.000 A 
ATOM      8  C   UNL     1       1.836   4.222  21.259  0.00  0.00    +0.000 A 
ATOM      9  C   UNL     1       1.920   5.278  20.321  0.00  0.00    +0.000 A 
ATOM     10  C   UNL     1       2.985   5.342  19.351  0.00  0.00    +0.000 A 
ENDROOT
BRANCH   6  11
ATOM     11  C   UNL     1       4.311   1.886  19.696  0.00  0.00    +0.000 C 
ATOM     12  N   UNL     1       3.967   1.369  18.472  0.00  0.00    +0.000 N 
ATOM     13  O   UNL     1       5.168   1.315  20.358  0.00  0.00    +0.000 OA
ATOM     14  H   UNL     1       3.183   1.679  17.922  0.00  0.00    +0.000 HD
ATOM     15  H   UNL     1       4.408   0.482  18.237  0.00  0.00    +0.000 HD
ENDBRANCH   6  11
BRANCH   1  16
ATOM     16  N   UNL     1       2.322   7.086  17.639  0.00  0.00    +0.000 N 
ATOM     17  H   UNL     1       2.314   6.822  16.657  0.00  0.00    +0.000 HD
BRANCH  16  18
ATOM     18  C   UNL     1       2.539   8.603  17.753  0.00  0.00    +0.000 C 
BRANCH  18  19
ATOM     19  C   UNL     1       1.216   9.286  18.164  0.00  0.00    +0.000 C 
BRANCH  19  23
ATOM     20  C   UNL     1      -0.443  10.473  22.058  0.00  0.00    +0.000 A 
ATOM     21  C   UNL     1       0.405   9.358  21.991  0.00  0.00    +0.000 A 
ATOM     22  C   UNL     1       0.991   8.930  20.765  0.00  0.00    +0.000 A 
ATOM     23  C   UNL     1       0.725   9.606  19.580  0.00  0.00    +0.000 A 
ATOM     24  C   UNL     1      -0.147  10.718  19.674  0.00  0.00    +0.000 A 
ATOM     25  C   UNL     1      -0.722  11.152  20.885  0.00  0.00    +0.000 A 
BRANCH  20  27
ATOM     26  C   UNL     1      -1.994  11.741  23.374  0.00  0.00    +0.000 C 
ATOM     27  O   UNL     1      -0.959  10.762  23.297  0.00  0.00    +0.000 OA
ENDBRANCH  20  27
ENDBRANCH  19  23
ENDBRANCH  18  19
ENDBRANCH  16  18
ENDBRANCH   1  16
TORSDOF 6
ENDMDL
MODEL 2
REMARK VINA RESULT:      -7.4      0.403      1.001
REMARK  Name = 
REMARK  7 active torsions:
REMARK  status: ('A' for Active; 'I' for Inactive)
REMARK    1  A    between atoms: C_1  and  O_2
REMARK    2  A    between atoms: O_2  and  C_3
REMARK    3  A    between atoms: C_6  and  C_7
REMARK    4  A    between atoms: C_7  and  C_8
REMARK    5  A    between atoms: C_8  and  N_9
REMARK    6  A    between atoms: N_9  and  C_10
REMARK    7  A    between atoms: C_15  and  C_16
REMARK                            x       y       z     vdW  Elec       q    Type
REMARK                         _______ _______ _______ _____ _____    ______ ____
ROOT
ATOM      1  C   UNL     1       3.541   6.160  18.392  0.00  0.00    +0.000 A 
ATOM      2  N   UNL     1       4.832   6.348  18.114  0.00  0.00    +0.000 NA
ATOM      3  C   UNL     1       5.697   5.460  18.571  0.00  0.00    +0.000 A 
ATOM      4  N   UNL     1       5.366   4.325  19.171  0.00  0.00    +0.000 NA
ATOM      5  C   UNL     1       4.100   4.167  19.561  0.00  0.00    +0.000 A 
ATOM      6  C   UNL     1       3.752   2.994  20.229  0.00  0.00    +0.000 A 
ATOM      7  C   UNL     1       2.668   2.946  21.104  0.00  0.00    +0.000 A 
ATOM      8  C   UNL     1       1.841   4.056  21.180  0.00  0.00    +0.000 A 
ATOM      9  C   UNL     1       2.007   5.121  20.264  0.00  0.00    +0.000 A 
ATOM     10  C   UNL     1       3.153   5.195  19.392  0.00  0.00    +0.000 A 
ENDROOT
BRANCH   6  11
ATOM     11  C   UNL     1       4.446   1.735  19.817  0.00  0.00    +0.000 C 
ATOM     12  N   UNL     1       4.182   1.210  18.576  0.00  0.00    +0.000 N 
ATOM     13  O   UNL     1       5.266   1.175  20.533  0.00  0.00    +0.000 OA
ATOM     14  H   UNL     1       3.430   1.511  17.978  0.00  0.00    +0.000 HD
ATOM     15  H   UNL     1       4.645   0.326  18.373  0.00  0.00    +0.000 HD
ENDBRANCH   6  11
BRANCH   1  16
ATOM     16  N   UNL     1       2.643   6.957  17.646  0.00  0.00    +0.000 N 
ATOM     17  H   UNL     1       2.765   6.747  16.659  0.00  0.00    +0.000 HD
BRANCH  16  18
ATOM     18  C   UNL     1       2.789   8.471  17.864  0.00  0.00    +0.000 C 
BRANCH  18  19
ATOM     19  C   UNL     1       1.397   9.098  18.095  0.00  0.00    +0.000 C 
BRANCH  19  23
ATOM     20  C   UNL     1      -0.061  10.647  21.942  0.00  0.00    +0.000 A 
ATOM     21  C   UNL     1       0.132  11.541  20.879  0.00  0.00    +0.000 A 
ATOM     22  C   UNL     1       0.584  11.103  19.600  0.00  0.00    +0.000 A 
ATOM     23  C   UNL     1       0.866   9.761  19.371  0.00  0.00    +0.000 A 
ATOM     24  C   UNL     1       0.677   8.884  20.467  0.00  0.00    +0.000 A 
ATOM     25  C   UNL     1       0.221   9.309  21.731  0.00  0.00    +0.000 A 
BRANCH  20  27
ATOM     26  C   UNL     1      -1.858  11.531  23.259  0.00  0.00    +0.000 C 
ATOM     27  O   UNL     1      -0.476  11.204  23.126  0.00  0.00    +0.000 OA
ENDBRANCH  20  27
ENDBRANCH  19  23
ENDBRANCH  18  19
ENDBRANCH  16  18
ENDBRANCH   1  16
TORSDOF 6
ENDMDL
MODEL 3
REMARK VINA RESULT:      -7.3      5.872      7.524
REMARK  Name = 
REMARK  7 active torsions:
REMARK  status: ('A' for Active; 'I' for Inactive)
REMARK    1  A    between atoms: C_1  and  O_2
REMARK    2  A    between atoms: O_2  and  C_3
REMARK    3  A    between atoms: C_6  and  C_7
REMARK    4  A    between atoms: C_7  and  C_8
REMARK    5  A    between atoms: C_8  and  N_9
REMARK    6  A    between atoms: N_9  and  C_10
REMARK    7  A    between atoms: C_15  and  C_16
REMARK                            x       y       z     vdW  Elec       q    Type
REMARK                         _______ _______ _______ _____ _____    ______ ____
ROOT
ATOM      1  C   UNL     1       7.113   6.841  17.991  0.00  0.00    +0.000 A 
ATOM      2  N   UNL     1       7.960   6.346  18.894  0.00  0.00    +0.000 NA
ATOM      3  C   UNL     1       7.552   5.324  19.627  0.00  0.00    +0.000 A 
ATOM      4  N   UNL     1       6.415   4.670  19.441  0.00  0.00    +0.000 NA
ATOM      5  C   UNL     1       5.505   5.210  18.628  0.00  0.00    +0.000 A 
ATOM      6  C   UNL     1       4.289   4.548  18.458  0.00  0.00    +0.000 A 
ATOM      7  C   UNL     1       3.131   5.233  18.091  0.00  0.00    +0.000 A 
ATOM      8  C   UNL     1       3.245   6.569  17.743  0.00  0.00    +0.000 A 
ATOM      9  C   UNL     1       4.526   7.153  17.604  0.00  0.00    +0.000 A 
ATOM     10  C   UNL     1       5.720   6.465  18.027  0.00  0.00    +0.000 A 
ENDROOT
BRANCH   6  11
ATOM     11  C   UNL     1       4.311   3.054  18.475  0.00  0.00    +0.000 C 
ATOM     12  N   UNL     1       4.759   2.412  19.602  0.00  0.00    +0.000 N 
ATOM     13  O   UNL     1       3.911   2.383  17.532  0.00  0.00    +0.000 OA
ATOM     14  H   UNL     1       5.236   2.864  20.365  0.00  0.00    +0.000 HD
ATOM     15  H   UNL     1       4.798   1.396  19.535  0.00  0.00    +0.000 HD
ENDBRANCH   6  11
BRANCH   1  16
ATOM     16  N   UNL     1       7.688   7.721  17.046  0.00  0.00    +0.000 N 
ATOM     17  H   UNL     1       8.646   7.431  16.873  0.00  0.00    +0.000 HD
BRANCH  16  18
ATOM     18  C   UNL     1       7.672   9.203  17.451  0.00  0.00    +0.000 C 
BRANCH  18  19
ATOM     19  C   UNL     1       8.690   9.440  18.588  0.00  0.00    +0.000 C 
BRANCH  19  23
ATOM     20  C   UNL     1      11.391  12.786  19.503  0.00  0.00    +0.000 A 
ATOM     21  C   UNL     1      11.176  12.433  18.164  0.00  0.00    +0.000 A 
ATOM     22  C   UNL     1      10.299  11.372  17.796  0.00  0.00    +0.000 A 
ATOM     23  C   UNL     1       9.633  10.634  18.769  0.00  0.00    +0.000 A 
ATOM     24  C   UNL     1       9.882  11.002  20.114  0.00  0.00    +0.000 A 
ATOM     25  C   UNL     1      10.740  12.057  20.484  0.00  0.00    +0.000 A 
BRANCH  20  27
ATOM     26  C   UNL     1      11.828  15.143  19.478  0.00  0.00    +0.000 C 
ATOM     27  O   UNL     1      12.278  13.811  19.720  0.00  0.00    +0.000 OA
ENDBRANCH  20  27
ENDBRANCH  19  23
ENDBRANCH  18  19
ENDBRANCH  16  18
ENDBRANCH   1  16
TORSDOF 6
ENDMDL
MODEL 4
REMARK VINA RESULT:      -7.3      3.775      7.627
REMARK  Name = 
REMARK  7 active torsions:
REMARK  status: ('A' for Active; 'I' for Inactive)
REMARK    1  A    between atoms: C_1  and  O_2
REMARK    2  A    between atoms: O_2  and  C_3
REMARK    3  A    between atoms: C_6  and  C_7
REMARK    4  A    between atoms: C_7  and  C_8
REMARK    5  A    between atoms: C_8  and  N_9
REMARK    6  A    between atoms: N_9  and  C_10
REMARK    7  A    between atoms: C_15  and  C_16
REMARK                            x       y       z     vdW  Elec       q    Type
REMARK                         _______ _______ _______ _____ _____    ______ ____
ROOT
ATOM      1  C   UNL     1       3.596   5.972  18.059  0.00  0.00    +0.000 A 
ATOM      2  N   UNL     1       3.096   6.941  18.826  0.00  0.00    +0.000 NA
ATOM      3  C   UNL     1       2.311   6.590  19.830  0.00  0.00    +0.000 A 
ATOM      4  N   UNL     1       2.092   5.341  20.214  0.00  0.00    +0.000 NA
ATOM      5  C   UNL     1       2.484   4.356  19.402  0.00  0.00    +0.000 A 
ATOM      6  C   UNL     1       2.221   3.040  19.779  0.00  0.00    +0.000 A 
ATOM      7  C   UNL     1       2.101   2.021  18.835  0.00  0.00    +0.000 A 
ATOM      8  C   UNL     1       2.405   2.315  17.515  0.00  0.00    +0.000 A 
ATOM      9  C   UNL     1       2.982   3.564  17.187  0.00  0.00    +0.000 A 
ATOM     10  C   UNL     1       3.064   4.634  18.150  0.00  0.00    +0.000 A 
ENDROOT
BRANCH   6  11
ATOM     11  C   UNL     1       2.282   2.716  21.237  0.00  0.00    +0.000 C 
ATOM     12  N   UNL     1       1.137   2.821  21.986  0.00  0.00    +0.000 N 
ATOM     13  O   UNL     1       3.309   2.329  21.780  0.00  0.00    +0.000 OA
ATOM     14  H   UNL     1       0.288   3.260  21.671  0.00  0.00    +0.000 HD
ATOM     15  H   UNL     1       1.252   2.637  22.981  0.00  0.00    +0.000 HD
ENDBRANCH   6  11
BRANCH   1  16
ATOM     16  N   UNL     1       4.646   6.368  17.199  0.00  0.00    +0.000 N 
ATOM     17  H   UNL     1       4.676   5.728  16.409  0.00  0.00    +0.000 HD
BRANCH  16  18
ATOM     18  C   UNL     1       6.033   6.427  17.857  0.00  0.00    +0.000 C 
BRANCH  18  19
ATOM     19  C   UNL     1       7.039   5.607  17.019  0.00  0.00    +0.000 C 
BRANCH  19  23
ATOM     20  C   UNL     1       6.140   3.628  13.198  0.00  0.00    +0.000 A 
ATOM     21  C   UNL     1       7.000   4.736  13.204  0.00  0.00    +0.000 A 
ATOM     22  C   UNL     1       7.348   5.412  14.409  0.00  0.00    +0.000 A 
ATOM     23  C   UNL     1       6.826   4.998  15.629  0.00  0.00    +0.000 A 
ATOM     24  C   UNL     1       5.949   3.886  15.591  0.00  0.00    +0.000 A 
ATOM     25  C   UNL     1       5.608   3.207  14.404  0.00  0.00    +0.000 A 
BRANCH  20  27
ATOM     26  C   UNL     1       4.531   3.178  11.479  0.00  0.00    +0.000 C 
ATOM     27  O   UNL     1       5.869   3.085  11.967  0.00  0.00    +0.000 OA
ENDBRANCH  20  27
ENDBRANCH  19  23
ENDBRANCH  18  19
ENDBRANCH  16  18
ENDBRANCH   1  16
TORSDOF 6
ENDMDL
MODEL 5
REMARK VINA RESULT:      -7.3      1.662      1.948
REMARK  Name = 
REMARK  7 active torsions:
REMARK  status: ('A' for Active; 'I' for Inactive)
REMARK    1  A    between atoms: C_1  and  O_2
REMARK    2  A    between atoms: O_2  and  C_3
REMARK    3  A    between atoms: C_6  and  C_7
REMARK    4  A    between atoms: C_7  and  C_8
REMARK    5  A    between atoms: C_8  and  N_9
REMARK    6  A    between atoms: N_9  and  C_10
REMARK    7  A    between atoms: C_15  and  C_16
REMARK                            x       y       z     vdW  Elec       q    Type
REMARK                         _______ _______ _______ _____ _____    ______ ____
ROOT
ATOM      1  C   UNL     1       3.407   6.747  17.859  0.00  0.00    +0.000 A 
ATOM      2  N   UNL     1       4.323   6.203  17.057  0.00  0.00    +0.000 NA
ATOM      3  C   UNL     1       4.435   4.887  17.051  0.00  0.00    +0.000 A 
ATOM      4  N   UNL     1       3.616   4.058  17.683  0.00  0.00    +0.000 NA
ATOM      5  C   UNL     1       2.768   4.572  18.577  0.00  0.00    +0.000 A 
ATOM      6  C   UNL     1       1.931   3.703  19.274  0.00  0.00    +0.000 A 
ATOM      7  C   UNL     1       1.423   4.031  20.531  0.00  0.00    +0.000 A 
ATOM      8  C   UNL     1       1.642   5.313  21.009  0.00  0.00    +0.000 A 
ATOM      9  C   UNL     1       2.212   6.292  20.162  0.00  0.00    +0.000 A 
ATOM     10  C   UNL     1       2.780   5.946  18.883  0.00  0.00    +0.000 A 
ENDROOT
BRANCH   6  11
ATOM     11  C   UNL     1       1.423   2.501  18.544  0.00  0.00    +0.000 C 
ATOM     12  N   UNL     1       2.322   1.548  18.134  0.00  0.00    +0.000 N 
ATOM     13  O   UNL     1       0.232   2.320  18.329  0.00  0.00    +0.000 OA
ATOM     14  H   UNL     1       3.322   1.669  18.136  0.00  0.00    +0.000 HD
ATOM     15  H   UNL     1       1.924   0.779  17.598  0.00  0.00    +0.000 HD
ENDBRANCH   6  11
BRANCH   1  16
ATOM     16  N   UNL     1       3.127   8.110  17.616  0.00  0.00    +0.000 N 
ATOM     17  H   UNL     1       3.682   8.675  18.254  0.00  0.00    +0.000 HD
BRANCH  16  18
ATOM     18  C   UNL     1       1.647   8.500  17.751  0.00  0.00    +0.000 C 
BRANCH  18  19
ATOM     19  C   UNL     1       1.535   9.884  18.426  0.00  0.00    +0.000 C 
BRANCH  19  23
ATOM     20  C   UNL     1      -0.686  10.748  22.120  0.00  0.00    +0.000 A 
ATOM     21  C   UNL     1      -0.946  11.515  20.976  0.00  0.00    +0.000 A 
ATOM     22  C   UNL     1      -0.276  11.276  19.741  0.00  0.00    +0.000 A 
ATOM     23  C   UNL     1       0.680  10.272  19.638  0.00  0.00    +0.000 A 
ATOM     24  C   UNL     1       0.933   9.523  20.813  0.00  0.00    +0.000 A 
ATOM     25  C   UNL     1       0.267   9.748  22.034  0.00  0.00    +0.000 A 
BRANCH  20  27
ATOM     26  C   UNL     1      -2.434  12.054  23.114  0.00  0.00    +0.000 C 
ATOM     27  O   UNL     1      -1.383  11.098  23.250  0.00  0.00    +0.000 OA
ENDBRANCH  20  27
ENDBRANCH  19  23
ENDBRANCH  18  19
ENDBRANCH  16  18
ENDBRANCH   1  16
TORSDOF 6
ENDMDL
MODEL 6
REMARK VINA RESULT:      -7.2      3.943      7.955
REMARK  Name = 
REMARK  7 active torsions:
REMARK  status: ('A' for Active; 'I' for Inactive)
REMARK    1  A    between atoms: C_1  and  O_2
REMARK    2  A    between atoms: O_2  and  C_3
REMARK    3  A    between atoms: C_6  and  C_7
REMARK    4  A    between atoms: C_7  and  C_8
REMARK    5  A    between atoms: C_8  and  N_9
REMARK    6  A    between atoms: N_9  and  C_10
REMARK    7  A    between atoms: C_15  and  C_16
REMARK                            x       y       z     vdW  Elec       q    Type
REMARK                         _______ _______ _______ _____ _____    ______ ____
ROOT
ATOM      1  C   UNL     1       3.344   6.145  18.351  0.00  0.00    +0.000 A 
ATOM      2  N   UNL     1       2.751   7.039  19.142  0.00  0.00    +0.000 NA
ATOM      3  C   UNL     1       1.967   6.587  20.105  0.00  0.00    +0.000 A 
ATOM      4  N   UNL     1       1.830   5.309  20.428  0.00  0.00    +0.000 NA
ATOM      5  C   UNL     1       2.317   4.393  19.589  0.00  0.00    +0.000 A 
ATOM      6  C   UNL     1       2.143   3.046  19.901  0.00  0.00    +0.000 A 
ATOM      7  C   UNL     1       2.126   2.064  18.911  0.00  0.00    +0.000 A 
ATOM      8  C   UNL     1       2.444   2.438  17.615  0.00  0.00    +0.000 A 
ATOM      9  C   UNL     1       2.936   3.739  17.359  0.00  0.00    +0.000 A 
ATOM     10  C   UNL     1       2.910   4.768  18.368  0.00  0.00    +0.000 A 
ENDROOT
BRANCH   6  11
ATOM     11  C   UNL     1       2.186   2.662  21.345  0.00  0.00    +0.000 C 
ATOM     12  N   UNL     1       1.022   2.685  22.070  0.00  0.00    +0.000 N 
ATOM     13  O   UNL     1       3.218   2.296  21.894  0.00  0.00    +0.000 OA
ATOM     14  H   UNL     1       0.161   3.101  21.754  0.00  0.00    +0.000 HD
ATOM     15  H   UNL     1       1.123   2.463  23.059  0.00  0.00    +0.000 HD
ENDBRANCH   6  11
BRANCH   1  16
ATOM     16  N   UNL     1       4.385   6.654  17.541  0.00  0.00    +0.000 N 
ATOM     17  H   UNL     1       4.061   6.684  16.578  0.00  0.00    +0.000 HD
BRANCH  16  18
ATOM     18  C   UNL     1       5.700   5.863  17.609  0.00  0.00    +0.000 C 
BRANCH  18  19
ATOM     19  C   UNL     1       6.432   5.958  16.252  0.00  0.00    +0.000 C 
BRANCH  19  23
ATOM     20  C   UNL     1       6.244   3.515  12.602  0.00  0.00    +0.000 A 
ATOM     21  C   UNL     1       5.194   3.435  13.528  0.00  0.00    +0.000 A 
ATOM     22  C   UNL     1       5.182   4.214  14.722  0.00  0.00    +0.000 A 
ATOM     23  C   UNL     1       6.234   5.075  15.015  0.00  0.00    +0.000 A 
ATOM     24  C   UNL     1       7.288   5.123  14.070  0.00  0.00    +0.000 A 
ATOM     25  C   UNL     1       7.300   4.363  12.883  0.00  0.00    +0.000 A 
BRANCH  20  27
ATOM     26  C   UNL     1       7.306   1.973  11.104  0.00  0.00    +0.000 C 
ATOM     27  O   UNL     1       6.142   2.694  11.507  0.00  0.00    +0.000 OA
ENDBRANCH  20  27
ENDBRANCH  19  23
ENDBRANCH  18  19
ENDBRANCH  16  18
ENDBRANCH   1  16
TORSDOF 6
ENDMDL
MODEL 7
REMARK VINA RESULT:      -7.2      2.271      2.695
REMARK  Name = 
REMARK  7 active torsions:
REMARK  status: ('A' for Active; 'I' for Inactive)
REMARK    1  A    between atoms: C_1  and  O_2
REMARK    2  A    between atoms: O_2  and  C_3
REMARK    3  A    between atoms: C_6  and  C_7
REMARK    4  A    between atoms: C_7  and  C_8
REMARK    5  A    between atoms: C_8  and  N_9
REMARK    6  A    between atoms: N_9  and  C_10
REMARK    7  A    between atoms: C_15  and  C_16
REMARK                            x       y       z     vdW  Elec       q    Type
REMARK                         _______ _______ _______ _____ _____    ______ ____
ROOT
ATOM      1  C   UNL     1       2.820   6.640  18.835  0.00  0.00    +0.000 A 
ATOM      2  N   UNL     1       3.819   6.791  17.964  0.00  0.00    +0.000 NA
ATOM      3  C   UNL     1       4.496   5.712  17.609  0.00  0.00    +0.000 A 
ATOM      4  N   UNL     1       4.172   4.473  17.951  0.00  0.00    +0.000 NA
ATOM      5  C   UNL     1       3.255   4.303  18.905  0.00  0.00    +0.000 A 
ATOM      6  C   UNL     1       2.938   3.004  19.299  0.00  0.00    +0.000 A 
ATOM      7  C   UNL     1       2.433   2.729  20.569  0.00  0.00    +0.000 A 
ATOM      8  C   UNL     1       2.104   3.799  21.386  0.00  0.00    +0.000 A 
ATOM      9  C   UNL     1       2.122   5.114  20.865  0.00  0.00    +0.000 A 
ATOM     10  C   UNL     1       2.686   5.406  19.571  0.00  0.00    +0.000 A 
ENDROOT
BRANCH   6  11
ATOM     11  C   UNL     1       2.956   1.943  18.247  0.00  0.00    +0.000 C 
ATOM     12  N   UNL     1       3.907   0.956  18.319  0.00  0.00    +0.000 N 
ATOM     13  O   UNL     1       2.131   1.903  17.343  0.00  0.00    +0.000 OA
ATOM     14  H   UNL     1       4.706   0.978  18.931  0.00  0.00    +0.000 HD
ATOM     15  H   UNL     1       3.901   0.291  17.547  0.00  0.00    +0.000 HD
ENDBRANCH   6  11
BRANCH   1  16
ATOM     16  N   UNL     1       1.953   7.750  18.954  0.00  0.00    +0.000 N 
ATOM     17  H   UNL     1       0.994   7.415  18.939  0.00  0.00    +0.000 HD
BRANCH  16  18
ATOM     18  C   UNL     1       2.131   8.827  17.873  0.00  0.00    +0.000 C 
BRANCH  18  19
ATOM     19  C   UNL     1       1.464  10.141  18.335  0.00  0.00    +0.000 C 
BRANCH  19  23
ATOM     20  C   UNL     1      -2.726  11.449  18.571  0.00  0.00    +0.000 A 
ATOM     21  C   UNL     1      -2.394  10.381  17.726  0.00  0.00    +0.000 A 
ATOM     22  C   UNL     1      -1.060   9.894  17.616  0.00  0.00    +0.000 A 
ATOM     23  C   UNL     1      -0.030  10.482  18.342  0.00  0.00    +0.000 A 
ATOM     24  C   UNL     1      -0.392  11.569  19.176  0.00  0.00    +0.000 A 
ATOM     25  C   UNL     1      -1.712  12.048  19.296  0.00  0.00    +0.000 A 
BRANCH  20  27
ATOM     26  C   UNL     1      -4.999  10.929  18.011  0.00  0.00    +0.000 C 
ATOM     27  O   UNL     1      -4.044  11.833  18.564  0.00  0.00    +0.000 OA
ENDBRANCH  20  27
ENDBRANCH  19  23
ENDBRANCH  18  19
ENDBRANCH  16  18
ENDBRANCH   1  16
TORSDOF 6
ENDMDL
MODEL 8
REMARK VINA RESULT:      -7.2      2.625      8.133
REMARK  Name = 
REMARK  7 active torsions:
REMARK  status: ('A' for Active; 'I' for Inactive)
REMARK    1  A    between atoms: C_1  and  O_2
REMARK    2  A    between atoms: O_2  and  C_3
REMARK    3  A    between atoms: C_6  and  C_7
REMARK    4  A    between atoms: C_7  and  C_8
REMARK    5  A    between atoms: C_8  and  N_9
REMARK    6  A    between atoms: N_9  and  C_10
REMARK    7  A    between atoms: C_15  and  C_16
REMARK                            x       y       z     vdW  Elec       q    Type
REMARK                         _______ _______ _______ _____ _____    ______ ____
ROOT
ATOM      1  C   UNL     1       2.159   7.486  19.688  0.00  0.00    +0.000 A 
ATOM      2  N   UNL     1       2.334   7.673  18.379  0.00  0.00    +0.000 NA
ATOM      3  C   UNL     1       1.898   8.805  17.854  0.00  0.00    +0.000 A 
ATOM      4  N   UNL     1       1.421   9.825  18.553  0.00  0.00    +0.000 NA
ATOM      5  C   UNL     1       1.130   9.624  19.840  0.00  0.00    +0.000 A 
ATOM      6  C   UNL     1       0.590  10.680  20.572  0.00  0.00    +0.000 A 
ATOM      7  C   UNL     1      -0.205  10.458  21.696  0.00  0.00    +0.000 A 
ATOM      8  C   UNL     1      -0.321   9.159  22.167  0.00  0.00    +0.000 A 
ATOM      9  C   UNL     1       0.488   8.137  21.617  0.00  0.00    +0.000 A 
ATOM     10  C   UNL     1       1.273   8.353  20.427  0.00  0.00    +0.000 A 
ENDROOT
BRANCH   6  11
ATOM     11  C   UNL     1       1.061  12.060  20.241  0.00  0.00    +0.000 C 
ATOM     12  N   UNL     1       0.668  12.626  19.054  0.00  0.00    +0.000 N 
ATOM     13  O   UNL     1       1.756  12.715  21.006  0.00  0.00    +0.000 OA
ATOM     14  H   UNL     1       0.221  12.125  18.304  0.00  0.00    +0.000 HD
ATOM     15  H   UNL     1       1.062  13.545  18.861  0.00  0.00    +0.000 HD
ENDBRANCH   6  11
BRANCH   1  16
ATOM     16  N   UNL     1       2.891   6.414  20.245  0.00  0.00    +0.000 N 
ATOM     17  H   UNL     1       3.820   6.405  19.832  0.00  0.00    +0.000 HD
BRANCH  16  18
ATOM     18  C   UNL     1       2.245   5.031  20.070  0.00  0.00    +0.000 C 
BRANCH  18  19
ATOM     19  C   UNL     1       3.287   4.040  19.506  0.00  0.00    +0.000 C 
BRANCH  19  23
ATOM     20  C   UNL     1       6.478   4.714  16.558  0.00  0.00    +0.000 A 
ATOM     21  C   UNL     1       5.171   4.486  16.105  0.00  0.00    +0.000 A 
ATOM     22  C   UNL     1       4.087   4.280  17.006  0.00  0.00    +0.000 A 
ATOM     23  C   UNL     1       4.299   4.282  18.380  0.00  0.00    +0.000 A 
ATOM     24  C   UNL     1       5.631   4.499  18.809  0.00  0.00    +0.000 A 
ATOM     25  C   UNL     1       6.706   4.713  17.923  0.00  0.00    +0.000 A 
BRANCH  20  27
ATOM     26  C   UNL     1       7.021   4.759  14.223  0.00  0.00    +0.000 C 
ATOM     27  O   UNL     1       7.433   4.874  15.584  0.00  0.00    +0.000 OA
ENDBRANCH  20  27
ENDBRANCH  19  23
ENDBRANCH  18  19
ENDBRANCH  16  18
ENDBRANCH   1  16
TORSDOF 6
ENDMDL
MODEL 9
REMARK VINA RESULT:      -7.2      2.082      3.422
REMARK  Name = 
REMARK  7 active torsions:
REMARK  status: ('A' for Active; 'I' for Inactive)
REMARK    1  A    between atoms: C_1  and  O_2
REMARK    2  A    between atoms: O_2  and  C_3
REMARK    3  A    between atoms: C_6  and  C_7
REMARK    4  A    between atoms: C_7  and  C_8
REMARK    5  A    between atoms: C_8  and  N_9
REMARK    6  A    between atoms: N_9  and  C_10
REMARK    7  A    between atoms: C_15  and  C_16
REMARK                            x       y       z     vdW  Elec       q    Type
REMARK                         _______ _______ _______ _____ _____    ______ ____
ROOT
ATOM      1  C   UNL     1       3.045   4.937  19.510  0.00  0.00    +0.000 A 
ATOM      2  N   UNL     1       2.752   3.636  19.492  0.00  0.00    +0.000 NA
ATOM      3  C   UNL     1       3.250   2.905  18.510  0.00  0.00    +0.000 A 
ATOM      4  N   UNL     1       4.126   3.340  17.617  0.00  0.00    +0.000 NA
ATOM      5  C   UNL     1       4.347   4.654  17.541  0.00  0.00    +0.000 A 
ATOM      6  C   UNL     1       5.238   5.124  16.577  0.00  0.00    +0.000 A 
ATOM      7  C   UNL     1       5.149   6.421  16.072  0.00  0.00    +0.000 A 
ATOM      8  C   UNL     1       4.248   7.292  16.664  0.00  0.00    +0.000 A 
ATOM      9  C   UNL     1       3.578   6.912  17.850  0.00  0.00    +0.000 A 
ATOM     10  C   UNL     1       3.631   5.559  18.348  0.00  0.00    +0.000 A 
ENDROOT
BRANCH   6  11
ATOM     11  C   UNL     1       6.420   4.267  16.256  0.00  0.00    +0.000 C 
ATOM     12  N   UNL     1       6.265   3.232  15.369  0.00  0.00    +0.000 N 
ATOM     13  O   UNL     1       7.529   4.477  16.731  0.00  0.00    +0.000 OA
ATOM     14  H   UNL     1       5.377   2.893  15.038  0.00  0.00    +0.000 HD
ATOM     15  H   UNL     1       7.092   2.654  15.229  0.00  0.00    +0.000 HD
ENDBRANCH   6  11
BRANCH   1  16
ATOM     16  N   UNL     1       2.741   5.606  20.718  0.00  0.00    +0.000 N 
ATOM     17  H   UNL     1       2.732   4.924  21.472  0.00  0.00    +0.000 HD
BRANCH  16  18
ATOM     18  C   UNL     1       1.412   6.375  20.714  0.00  0.00    +0.000 C 
BRANCH  18  19
ATOM     19  C   UNL     1       1.685   7.880  20.499  0.00  0.00    +0.000 C 
BRANCH  19  23
ATOM     20  C   UNL     1      -0.632  11.051  22.474  0.00  0.00    +0.000 A 
ATOM     21  C   UNL     1       0.103  11.364  21.322  0.00  0.00    +0.000 A 
ATOM     22  C   UNL     1       0.860  10.380  20.622  0.00  0.00    +0.000 A 
ATOM     23  C   UNL     1       0.906   9.067  21.076  0.00  0.00    +0.000 A 
ATOM     24  C   UNL     1       0.166   8.783  22.251  0.00  0.00    +0.000 A 
ATOM     25  C   UNL     1      -0.592   9.749  22.942  0.00  0.00    +0.000 A 
BRANCH  20  27
ATOM     26  C   UNL     1      -2.670  11.905  23.404  0.00  0.00    +0.000 C 
ATOM     27  O   UNL     1      -1.297  12.097  23.065  0.00  0.00    +0.000 OA
ENDBRANCH  20  27
ENDBRANCH  19  23
ENDBRANCH  18  19
ENDBRANCH  16  18
ENDBRANCH   1  16
TORSDOF 6
ENDMDL
