MODEL 1
REMARK VINA RESULT:      -6.3      0.000      0.000
REMARK  Name = 
REMARK  1 active torsions:
REMARK  status: ('A' for Active; 'I' for Inactive)
REMARK    1  A    between atoms: C_5  and  C_6
REMARK                            x       y       z     vdW  Elec       q    Type
REMARK                         _______ _______ _______ _____ _____    ______ ____
ROOT
ATOM      1 CL   UNL     1       7.610   7.274  17.207  0.00  0.00    +0.000 Cl
ATOM      2  C   UNL     1       6.242   6.395  17.769  0.00  0.00    +0.000 A 
ATOM      3  C   UNL     1       5.018   6.536  17.127  0.00  0.00    +0.000 A 
ATOM      4  C   UNL     1       3.906   5.822  17.587  0.00  0.00    +0.000 A 
ATOM      5  C   UNL     1       4.004   4.948  18.684  0.00  0.00    +0.000 A 
ATOM      6  C   UNL     1       5.249   4.832  19.321  0.00  0.00    +0.000 A 
ATOM      7  C   UNL     1       6.363   5.550  18.867  0.00  0.00    +0.000 A 
ENDROOT
BRANCH   5   8
ATOM      8  C   UNL     1       2.819   4.205  19.179  0.00  0.00    +0.000 C 
ATOM      9  C   UNL     1       2.633   3.940  20.488  0.00  0.00    +0.000 C 
ATOM     10  C   UNL     1       1.460   3.174  21.030  0.00  0.00    +0.000 C 
ATOM     11  N   UNL     1       0.370   2.979  20.072  0.00  0.00    +0.000 NA
ATOM     12  C   UNL     1       0.904   2.610  18.757  0.00  0.00    +0.000 C 
ATOM     13  C   UNL     1       1.793   3.722  18.177  0.00  0.00    +0.000 C 
ATOM     14  H   UNL     1      -0.130   3.863  19.983  0.00  0.00    +0.000 HD
ENDBRANCH   5   8
TORSDOF 1
ENDMDL
MODEL 2
REMARK VINA RESULT:      -6.2      0.061      1.337
REMARK  Name = 
REMARK  1 active torsions:
REMARK  status: ('A' for Active; 'I' for Inactive)
REMARK    1  A    between atoms: C_5  and  C_6
REMARK                            x       y       z     vdW  Elec       q    Type
REMARK                         _______ _______ _______ _____ _____    ______ ____
ROOT
ATOM      1 CL   UNL     1       7.644   7.287  17.202  0.00  0.00    +0.000 Cl
ATOM      2  C   UNL     1       6.266   6.429  17.773  0.00  0.00    +0.000 A 
ATOM      3  C   UNL     1       6.379   5.598  18.881  0.00  0.00    +0.000 A 
ATOM      4  C   UNL     1       5.258   4.900  19.343  0.00  0.00    +0.000 A 
ATOM      5  C   UNL     1       4.007   5.032  18.714  0.00  0.00    +0.000 A 
ATOM      6  C   UNL     1       3.923   5.869  17.591  0.00  0.00    +0.000 A 
ATOM      7  C   UNL     1       5.045   6.565  17.123  0.00  0.00    +0.000 A 
ENDROOT
BRANCH   5   8
ATOM      8  C   UNL     1       2.824   4.277  19.196  0.00  0.00    +0.000 C 
ATOM      9  C   UNL     1       2.622   4.018  20.504  0.00  0.00    +0.000 C 
ATOM     10  C   UNL     1       1.452   3.239  21.033  0.00  0.00    +0.000 C 
ATOM     11  N   UNL     1       0.379   3.024  20.060  0.00  0.00    +0.000 NA
ATOM     12  C   UNL     1       0.938   2.653  18.756  0.00  0.00    +0.000 C 
ATOM     13  C   UNL     1       1.820   3.773  18.182  0.00  0.00    +0.000 C 
ATOM     14  H   UNL     1      -0.132   3.900  19.958  0.00  0.00    +0.000 HD
ENDBRANCH   5   8
TORSDOF 1
ENDMDL
MODEL 3
REMARK VINA RESULT:      -6.0      1.768      2.135
REMARK  Name = 
REMARK  1 active torsions:
REMARK  status: ('A' for Active; 'I' for Inactive)
REMARK    1  A    between atoms: C_5  and  C_6
REMARK                            x       y       z     vdW  Elec       q    Type
REMARK                         _______ _______ _______ _____ _____    ______ ____
ROOT
ATOM      1 CL   UNL     1       7.097   5.334  14.307  0.00  0.00    +0.000 Cl
ATOM      2  C   UNL     1       5.899   5.061  15.512  0.00  0.00    +0.000 A 
ATOM      3  C   UNL     1       5.571   3.763  15.879  0.00  0.00    +0.000 A 
ATOM      4  C   UNL     1       4.595   3.543  16.858  0.00  0.00    +0.000 A 
ATOM      5  C   UNL     1       3.946   4.616  17.494  0.00  0.00    +0.000 A 
ATOM      6  C   UNL     1       4.289   5.918  17.097  0.00  0.00    +0.000 A 
ATOM      7  C   UNL     1       5.261   6.141  16.113  0.00  0.00    +0.000 A 
ENDROOT
BRANCH   5   8
ATOM      8  C   UNL     1       2.900   4.379  18.519  0.00  0.00    +0.000 C 
ATOM      9  C   UNL     1       3.008   4.851  19.777  0.00  0.00    +0.000 C 
ATOM     10  C   UNL     1       1.985   4.616  20.852  0.00  0.00    +0.000 C 
ATOM     11  N   UNL     1       0.711   4.084  20.367  0.00  0.00    +0.000 NA
ATOM     12  C   UNL     1       0.941   3.030  19.373  0.00  0.00    +0.000 C 
ATOM     13  C   UNL     1       1.678   3.572  18.138  0.00  0.00    +0.000 C 
ATOM     14  H   UNL     1       0.203   4.847  19.921  0.00  0.00    +0.000 HD
ENDBRANCH   5   8
TORSDOF 1
ENDMDL
MODEL 4
REMARK VINA RESULT:      -6.0      3.811      5.752
REMARK  Name = 
REMARK  1 active torsions:
REMARK  status: ('A' for Active; 'I' for Inactive)
REMARK    1  A    between atoms: C_5  and  C_6
REMARK                            x       y       z     vdW  Elec       q    Type
REMARK                         _______ _______ _______ _____ _____    ______ ____
ROOT
ATOM      1 CL   UNL     1       0.838   3.021  20.874  0.00  0.00    +0.000 Cl
ATOM      2  C   UNL     1       2.091   3.497  19.795  0.00  0.00    +0.000 A 
ATOM      3  C   UNL     1       3.402   3.112  20.045  0.00  0.00    +0.000 A 
ATOM      4  C   UNL     1       4.420   3.501  19.167  0.00  0.00    +0.000 A 
ATOM      5  C   UNL     1       4.141   4.268  18.022  0.00  0.00    +0.000 A 
ATOM      6  C   UNL     1       2.810   4.653  17.799  0.00  0.00    +0.000 A 
ATOM      7  C   UNL     1       1.790   4.269  18.679  0.00  0.00    +0.000 A 
ENDROOT
BRANCH   5   8
ATOM      8  C   UNL     1       5.226   4.693  17.103  0.00  0.00    +0.000 C 
ATOM      9  C   UNL     1       5.604   3.948  16.045  0.00  0.00    +0.000 C 
ATOM     10  C   UNL     1       6.710   4.330  15.104  0.00  0.00    +0.000 C 
ATOM     11  N   UNL     1       7.165   5.715  15.235  0.00  0.00    +0.000 NA
ATOM     12  C   UNL     1       7.289   6.081  16.650  0.00  0.00    +0.000 C 
ATOM     13  C   UNL     1       5.934   6.003  17.373  0.00  0.00    +0.000 C 
ATOM     14  H   UNL     1       6.464   6.317  14.803  0.00  0.00    +0.000 HD
ENDBRANCH   5   8
TORSDOF 1
ENDMDL
MODEL 5
REMARK VINA RESULT:      -6.0      0.510      1.907
REMARK  Name = 
REMARK  1 active torsions:
REMARK  status: ('A' for Active; 'I' for Inactive)
REMARK    1  A    between atoms: C_5  and  C_6
REMARK                            x       y       z     vdW  Elec       q    Type
REMARK                         _______ _______ _______ _____ _____    ______ ____
ROOT
ATOM      1 CL   UNL     1       7.807   7.413  17.243  0.00  0.00    +0.000 Cl
ATOM      2  C   UNL     1       6.400   6.558  17.744  0.00  0.00    +0.000 A 
ATOM      3  C   UNL     1       6.490   5.613  18.759  0.00  0.00    +0.000 A 
ATOM      4  C   UNL     1       5.346   4.918  19.164  0.00  0.00    +0.000 A 
ATOM      5  C   UNL     1       4.095   5.165  18.572  0.00  0.00    +0.000 A 
ATOM      6  C   UNL     1       4.034   6.116  17.542  0.00  0.00    +0.000 A 
ATOM      7  C   UNL     1       5.179   6.810  17.130  0.00  0.00    +0.000 A 
ENDROOT
BRANCH   5   8
ATOM      8  C   UNL     1       2.887   4.413  18.992  0.00  0.00    +0.000 C 
ATOM      9  C   UNL     1       2.279   3.521  18.184  0.00  0.00    +0.000 C 
ATOM     10  C   UNL     1       1.043   2.755  18.561  0.00  0.00    +0.000 C 
ATOM     11  N   UNL     1       0.700   2.822  19.982  0.00  0.00    +0.000 NA
ATOM     12  C   UNL     1       0.858   4.191  20.483  0.00  0.00    +0.000 C 
ATOM     13  C   UNL     1       2.315   4.668  20.370  0.00  0.00    +0.000 C 
ATOM     14  H   UNL     1       1.344   2.213  20.488  0.00  0.00    +0.000 HD
ENDBRANCH   5   8
TORSDOF 1
ENDMDL
MODEL 6
REMARK VINA RESULT:      -6.0      3.703      5.502
REMARK  Name = 
REMARK  1 active torsions:
REMARK  status: ('A' for Active; 'I' for Inactive)
REMARK    1  A    between atoms: C_5  and  C_6
REMARK                            x       y       z     vdW  Elec       q    Type
REMARK                         _______ _______ _______ _____ _____    ______ ____
ROOT
ATOM      1 CL   UNL     1       1.259   2.752  21.604  0.00  0.00    +0.000 Cl
ATOM      2  C   UNL     1       2.411   3.377  20.489  0.00  0.00    +0.000 A 
ATOM      3  C   UNL     1       3.089   2.514  19.638  0.00  0.00    +0.000 A 
ATOM      4  C   UNL     1       4.026   3.024  18.733  0.00  0.00    +0.000 A 
ATOM      5  C   UNL     1       4.289   4.403  18.655  0.00  0.00    +0.000 A 
ATOM      6  C   UNL     1       3.598   5.252  19.533  0.00  0.00    +0.000 A 
ATOM      7  C   UNL     1       2.664   4.744  20.445  0.00  0.00    +0.000 A 
ENDROOT
BRANCH   5   8
ATOM      8  C   UNL     1       5.296   4.939  17.706  0.00  0.00    +0.000 C 
ATOM      9  C   UNL     1       6.171   5.903  18.056  0.00  0.00    +0.000 C 
ATOM     10  C   UNL     1       7.191   6.488  17.122  0.00  0.00    +0.000 C 
ATOM     11  N   UNL     1       7.373   5.737  15.878  0.00  0.00    +0.000 NA
ATOM     12  C   UNL     1       6.075   5.327  15.333  0.00  0.00    +0.000 C 
ATOM     13  C   UNL     1       5.331   4.388  16.297  0.00  0.00    +0.000 C 
ATOM     14  H   UNL     1       7.915   4.901  16.094  0.00  0.00    +0.000 HD
ENDBRANCH   5   8
TORSDOF 1
ENDMDL
MODEL 7
REMARK VINA RESULT:      -6.0      3.698      5.410
REMARK  Name = 
REMARK  1 active torsions:
REMARK  status: ('A' for Active; 'I' for Inactive)
REMARK    1  A    between atoms: C_5  and  C_6
REMARK                            x       y       z     vdW  Elec       q    Type
REMARK                         _______ _______ _______ _____ _____    ______ ____
ROOT
ATOM      1 CL   UNL     1       1.340   2.710  21.719  0.00  0.00    +0.000 Cl
ATOM      2  C   UNL     1       2.464   3.331  20.573  0.00  0.00    +0.000 A 
ATOM      3  C   UNL     1       2.283   4.603  20.046  0.00  0.00    +0.000 A 
ATOM      4  C   UNL     1       3.197   5.105  19.114  0.00  0.00    +0.000 A 
ATOM      5  C   UNL     1       4.311   4.350  18.705  0.00  0.00    +0.000 A 
ATOM      6  C   UNL     1       4.465   3.064  19.245  0.00  0.00    +0.000 A 
ATOM      7  C   UNL     1       3.548   2.556  20.175  0.00  0.00    +0.000 A 
ENDROOT
BRANCH   5   8
ATOM      8  C   UNL     1       5.269   4.879  17.703  0.00  0.00    +0.000 C 
ATOM      9  C   UNL     1       6.230   5.767  18.028  0.00  0.00    +0.000 C 
ATOM     10  C   UNL     1       7.206   6.344  17.042  0.00  0.00    +0.000 C 
ATOM     11  N   UNL     1       7.235   5.659  15.749  0.00  0.00    +0.000 NA
ATOM     12  C   UNL     1       5.873   5.360  15.296  0.00  0.00    +0.000 C 
ATOM     13  C   UNL     1       5.152   4.412  16.268  0.00  0.00    +0.000 C 
ATOM     14  H   UNL     1       7.738   4.780  15.872  0.00  0.00    +0.000 HD
ENDBRANCH   5   8
TORSDOF 1
ENDMDL
MODEL 8
REMARK VINA RESULT:      -6.0      4.028      5.899
REMARK  Name = 
REMARK  1 active torsions:
REMARK  status: ('A' for Active; 'I' for Inactive)
REMARK    1  A    between atoms: C_5  and  C_6
REMARK                            x       y       z     vdW  Elec       q    Type
REMARK                         _______ _______ _______ _____ _____    ______ ____
ROOT
ATOM      1 CL   UNL     1       0.333   2.923  19.844  0.00  0.00    +0.000 Cl
ATOM      2  C   UNL     1       1.717   3.316  18.899  0.00  0.00    +0.000 A 
ATOM      3  C   UNL     1       2.510   2.301  18.379  0.00  0.00    +0.000 A 
ATOM      4  C   UNL     1       3.635   2.622  17.613  0.00  0.00    +0.000 A 
ATOM      5  C   UNL     1       3.976   3.960  17.343  0.00  0.00    +0.000 A 
ATOM      6  C   UNL     1       3.164   4.965  17.889  0.00  0.00    +0.000 A 
ATOM      7  C   UNL     1       2.040   4.647  18.662  0.00  0.00    +0.000 A 
ENDROOT
BRANCH   5   8
ATOM      8  C   UNL     1       5.180   4.297  16.544  0.00  0.00    +0.000 C 
ATOM      9  C   UNL     1       5.243   4.081  15.215  0.00  0.00    +0.000 C 
ATOM     10  C   UNL     1       6.448   4.387  14.373  0.00  0.00    +0.000 C 
ATOM     11  N   UNL     1       7.458   5.211  15.039  0.00  0.00    +0.000 NA
ATOM     12  C   UNL     1       7.662   4.755  16.418  0.00  0.00    +0.000 C 
ATOM     13  C   UNL     1       6.378   4.892  17.252  0.00  0.00    +0.000 C 
ATOM     14  H   UNL     1       7.115   6.170  15.060  0.00  0.00    +0.000 HD
ENDBRANCH   5   8
TORSDOF 1
ENDMDL
MODEL 9
REMARK VINA RESULT:      -6.0      1.893      2.096
REMARK  Name = 
REMARK  1 active torsions:
REMARK  status: ('A' for Active; 'I' for Inactive)
REMARK    1  A    between atoms: C_5  and  C_6
REMARK                            x       y       z     vdW  Elec       q    Type
REMARK                         _______ _______ _______ _____ _____    ______ ____
ROOT
ATOM      1 CL   UNL     1       7.182   5.153  14.143  0.00  0.00    +0.000 Cl
ATOM      2  C   UNL     1       5.998   4.975  15.380  0.00  0.00    +0.000 A 
ATOM      3  C   UNL     1       5.408   6.101  15.939  0.00  0.00    +0.000 A 
ATOM      4  C   UNL     1       4.448   5.954  16.946  0.00  0.00    +0.000 A 
ATOM      5  C   UNL     1       4.052   4.682  17.397  0.00  0.00    +0.000 A 
ATOM      6  C   UNL     1       4.671   3.562  16.821  0.00  0.00    +0.000 A 
ATOM      7  C   UNL     1       5.638   3.706  15.818  0.00  0.00    +0.000 A 
ENDROOT
BRANCH   5   8
ATOM      8  C   UNL     1       3.046   4.531  18.476  0.00  0.00    +0.000 C 
ATOM      9  C   UNL     1       3.273   4.955  19.735  0.00  0.00    +0.000 C 
ATOM     10  C   UNL     1       2.292   4.803  20.861  0.00  0.00    +0.000 C 
ATOM     11  N   UNL     1       0.943   4.422  20.440  0.00  0.00    +0.000 NA
ATOM     12  C   UNL     1       1.003   3.376  19.414  0.00  0.00    +0.000 C 
ATOM     13  C   UNL     1       1.725   3.868  18.149  0.00  0.00    +0.000 C 
ATOM     14  H   UNL     1       0.496   5.246  20.040  0.00  0.00    +0.000 HD
ENDBRANCH   5   8
TORSDOF 1
ENDMDL
