MODEL 1
REMARK VINA RESULT:      -8.8      0.000      0.000
REMARK  Name = 
REMARK  6 active torsions:
REMARK  status: ('A' for Active; 'I' for Inactive)
REMARK    1  A    between atoms: N_6  and  C_7
REMARK    2  A    between atoms: C_7  and  C_8
REMARK    3  A    between atoms: C_18  and  N_19
REMARK    4  A    between atoms: N_19  and  N_20
REMARK    5  A    between atoms: C_21  and  C_23
REMARK    6  A    between atoms: C_28  and  O_29
REMARK                            x       y       z     vdW  Elec       q    Type
REMARK                         _______ _______ _______ _____ _____    ______ ____
ROOT
ATOM      1  O   UNL     1       7.823   5.302  17.055  0.00  0.00    +0.000 OA
ATOM      2  C   UNL     1       6.620   5.283  17.273  0.00  0.00    +0.000 C 
ATOM      3  N   UNL     1       5.951   4.099  17.419  0.00  0.00    +0.000 N 
ATOM      4  C   UNL     1       4.598   3.927  17.373  0.00  0.00    +0.000 C 
ATOM      5  O   UNL     1       4.147   2.822  17.068  0.00  0.00    +0.000 OA
ATOM      6  N   UNL     1       3.817   5.042  17.618  0.00  0.00    +0.000 N 
ATOM      7  C   UNL     1       4.299   6.337  17.547  0.00  0.00    +0.000 C 
ATOM      8  O   UNL     1       3.579   7.333  17.621  0.00  0.00    +0.000 OA
ATOM      9  C   UNL     1       5.765   6.477  17.331  0.00  0.00    +0.000 C 
ATOM     10  C   UNL     1       6.305   7.701  17.198  0.00  0.00    +0.000 C 
ATOM     11  H   UNL     1       6.510   3.277  17.244  0.00  0.00    +0.000 HD
ENDROOT
BRANCH  10  12
ATOM     12  N   UNL     1       7.631   8.041  17.059  0.00  0.00    +0.000 N 
ATOM     13  H   UNL     1       8.195   7.478  16.402  0.00  0.00    +0.000 HD
BRANCH  12  14
ATOM     14  N   UNL     1       8.139   9.293  17.370  0.00  0.00    +0.000 N 
ATOM     15  C   UNL     1       8.781   9.447  18.586  0.00  0.00    +0.000 C 
ATOM     16  O   UNL     1       9.042   8.519  19.345  0.00  0.00    +0.000 OA
ATOM     17  H   UNL     1       7.671  10.100  16.958  0.00  0.00    +0.000 HD
BRANCH  15  18
ATOM     18  C   UNL     1       9.212  10.838  18.922  0.00  0.00    +0.000 A 
ATOM     19  C   UNL     1       9.368  11.733  17.854  0.00  0.00    +0.000 A 
ATOM     20  C   UNL     1       9.710  13.065  18.087  0.00  0.00    +0.000 A 
ATOM     21  C   UNL     1       9.921  13.511  19.391  0.00  0.00    +0.000 A 
ATOM     22  C   UNL     1       9.793  12.624  20.463  0.00  0.00    +0.000 A 
ATOM     23  C   UNL     1       9.436  11.293  20.229  0.00  0.00    +0.000 A 
BRANCH  23  24
ATOM     24  O   UNL     1       9.310  10.441  21.295  0.00  0.00    +0.000 OA
ATOM     25  H   UNL     1       8.386  10.467  21.603  0.00  0.00    +0.000 HD
ENDBRANCH  23  24
ENDBRANCH  15  18
ENDBRANCH  12  14
ENDBRANCH  10  12
BRANCH   6  26
ATOM     26  C   UNL     1       2.362   4.861  17.736  0.00  0.00    +0.000 C 
BRANCH  26  27
ATOM     27  C   UNL     1       1.947   4.197  19.039  0.00  0.00    +0.000 A 
ATOM     28  C   UNL     1       2.418   4.681  20.272  0.00  0.00    +0.000 A 
ATOM     29  C   UNL     1       2.118   4.012  21.463  0.00  0.00    +0.000 A 
ATOM     30  C   UNL     1       1.329   2.869  21.427  0.00  0.00    +0.000 A 
ATOM     31  F   UNL     1       1.088   2.197  22.561  0.00  0.00    +0.000 F 
ATOM     32  C   UNL     1       0.802   2.406  20.228  0.00  0.00    +0.000 A 
ATOM     33  C   UNL     1       1.108   3.069  19.035  0.00  0.00    +0.000 A 
ENDBRANCH  26  27
ENDBRANCH   6  26
TORSDOF 6
ENDMDL
MODEL 2
REMARK VINA RESULT:      -8.7      0.977      1.296
REMARK  Name = 
REMARK  6 active torsions:
REMARK  status: ('A' for Active; 'I' for Inactive)
REMARK    1  A    between atoms: N_6  and  C_7
REMARK    2  A    between atoms: C_7  and  C_8
REMARK    3  A    between atoms: C_18  and  N_19
REMARK    4  A    between atoms: N_19  and  N_20
REMARK    5  A    between atoms: C_21  and  C_23
REMARK    6  A    between atoms: C_28  and  O_29
REMARK                            x       y       z     vdW  Elec       q    Type
REMARK                         _______ _______ _______ _____ _____    ______ ____
ROOT
ATOM      1  O   UNL     1       7.884   5.324  17.011  0.00  0.00    +0.000 OA
ATOM      2  C   UNL     1       6.683   5.345  17.239  0.00  0.00    +0.000 C 
ATOM      3  N   UNL     1       5.964   4.186  17.326  0.00  0.00    +0.000 N 
ATOM      4  C   UNL     1       4.604   4.075  17.283  0.00  0.00    +0.000 C 
ATOM      5  O   UNL     1       4.103   3.010  16.921  0.00  0.00    +0.000 OA
ATOM      6  N   UNL     1       3.875   5.208  17.598  0.00  0.00    +0.000 N 
ATOM      7  C   UNL     1       4.413   6.482  17.595  0.00  0.00    +0.000 C 
ATOM      8  O   UNL     1       3.738   7.504  17.731  0.00  0.00    +0.000 OA
ATOM      9  C   UNL     1       5.882   6.570  17.373  0.00  0.00    +0.000 C 
ATOM     10  C   UNL     1       6.475   7.776  17.303  0.00  0.00    +0.000 C 
ATOM     11  H   UNL     1       6.485   3.351  17.099  0.00  0.00    +0.000 HD
ENDROOT
BRANCH  10  12
ATOM     12  N   UNL     1       7.814   8.065  17.170  0.00  0.00    +0.000 N 
ATOM     13  H   UNL     1       8.402   7.359  16.697  0.00  0.00    +0.000 HD
BRANCH  12  14
ATOM     14  N   UNL     1       8.328   9.351  17.211  0.00  0.00    +0.000 N 
ATOM     15  C   UNL     1       8.843   9.804  18.414  0.00  0.00    +0.000 C 
ATOM     16  O   UNL     1       8.990   9.096  19.405  0.00  0.00    +0.000 OA
ATOM     17  H   UNL     1       7.935  10.031  16.561  0.00  0.00    +0.000 HD
BRANCH  15  18
ATOM     18  C   UNL     1       9.284  11.232  18.437  0.00  0.00    +0.000 A 
ATOM     19  C   UNL     1      10.435  11.531  19.180  0.00  0.00    +0.000 A 
ATOM     20  C   UNL     1      10.946  12.829  19.205  0.00  0.00    +0.000 A 
ATOM     21  C   UNL     1      10.300  13.845  18.503  0.00  0.00    +0.000 A 
ATOM     22  C   UNL     1       9.139  13.565  17.777  0.00  0.00    +0.000 A 
ATOM     23  C   UNL     1       8.636  12.261  17.742  0.00  0.00    +0.000 A 
BRANCH  23  24
ATOM     24  O   UNL     1       7.499  12.007  17.020  0.00  0.00    +0.000 OA
ATOM     25  H   UNL     1       7.728  11.412  16.283  0.00  0.00    +0.000 HD
ENDBRANCH  23  24
ENDBRANCH  15  18
ENDBRANCH  12  14
ENDBRANCH  10  12
BRANCH   6  26
ATOM     26  C   UNL     1       2.414   5.084  17.720  0.00  0.00    +0.000 C 
BRANCH  26  27
ATOM     27  C   UNL     1       1.980   4.369  18.989  0.00  0.00    +0.000 A 
ATOM     28  C   UNL     1       2.421   4.812  20.248  0.00  0.00    +0.000 A 
ATOM     29  C   UNL     1       2.104   4.097  21.408  0.00  0.00    +0.000 A 
ATOM     30  C   UNL     1       1.329   2.949  21.315  0.00  0.00    +0.000 A 
ATOM     31  F   UNL     1       1.072   2.233  22.418  0.00  0.00    +0.000 F 
ATOM     32  C   UNL     1       0.830   2.525  20.089  0.00  0.00    +0.000 A 
ATOM     33  C   UNL     1       1.153   3.234  18.927  0.00  0.00    +0.000 A 
ENDBRANCH  26  27
ENDBRANCH   6  26
TORSDOF 6
ENDMDL
MODEL 3
REMARK VINA RESULT:      -8.3      5.328      7.846
REMARK  Name = 
REMARK  6 active torsions:
REMARK  status: ('A' for Active; 'I' for Inactive)
REMARK    1  A    between atoms: N_6  and  C_7
REMARK    2  A    between atoms: C_7  and  C_8
REMARK    3  A    between atoms: C_18  and  N_19
REMARK    4  A    between atoms: N_19  and  N_20
REMARK    5  A    between atoms: C_21  and  C_23
REMARK    6  A    between atoms: C_28  and  O_29
REMARK                            x       y       z     vdW  Elec       q    Type
REMARK                         _______ _______ _______ _____ _____    ______ ____
ROOT
ATOM      1  O   UNL     1       2.911   6.011  19.673  0.00  0.00    +0.000 OA
ATOM      2  C   UNL     1       2.442   7.139  19.610  0.00  0.00    +0.000 C 
ATOM      3  N   UNL     1       1.637   7.622  20.604  0.00  0.00    +0.000 N 
ATOM      4  C   UNL     1       0.830   8.720  20.526  0.00  0.00    +0.000 C 
ATOM      5  O   UNL     1      -0.147   8.795  21.272  0.00  0.00    +0.000 OA
ATOM      6  N   UNL     1       1.140   9.656  19.556  0.00  0.00    +0.000 N 
ATOM      7  C   UNL     1       1.956   9.384  18.473  0.00  0.00    +0.000 C 
ATOM      8  O   UNL     1       2.119  10.165  17.534  0.00  0.00    +0.000 OA
ATOM      9  C   UNL     1       2.619   8.052  18.472  0.00  0.00    +0.000 C 
ATOM     10  C   UNL     1       3.387   7.690  17.429  0.00  0.00    +0.000 C 
ATOM     11  H   UNL     1       1.404   6.949  21.319  0.00  0.00    +0.000 HD
ENDROOT
BRANCH  10  12
ATOM     12  N   UNL     1       4.128   6.542  17.270  0.00  0.00    +0.000 N 
ATOM     13  H   UNL     1       3.918   5.754  17.905  0.00  0.00    +0.000 HD
BRANCH  12  14
ATOM     14  N   UNL     1       4.788   6.211  16.096  0.00  0.00    +0.000 N 
ATOM     15  C   UNL     1       4.972   4.869  15.813  0.00  0.00    +0.000 C 
ATOM     16  O   UNL     1       4.475   3.957  16.467  0.00  0.00    +0.000 OA
ATOM     17  H   UNL     1       5.466   6.884  15.738  0.00  0.00    +0.000 HD
BRANCH  15  18
ATOM     18  C   UNL     1       5.784   4.566  14.595  0.00  0.00    +0.000 A 
ATOM     19  C   UNL     1       5.190   3.751  13.621  0.00  0.00    +0.000 A 
ATOM     20  C   UNL     1       5.858   3.469  12.428  0.00  0.00    +0.000 A 
ATOM     21  C   UNL     1       7.135   3.982  12.208  0.00  0.00    +0.000 A 
ATOM     22  C   UNL     1       7.747   4.777  13.181  0.00  0.00    +0.000 A 
ATOM     23  C   UNL     1       7.071   5.070  14.369  0.00  0.00    +0.000 A 
BRANCH  23  24
ATOM     24  O   UNL     1       7.688   5.855  15.308  0.00  0.00    +0.000 OA
ATOM     25  H   UNL     1       8.563   5.474  15.502  0.00  0.00    +0.000 HD
ENDBRANCH  23  24
ENDBRANCH  15  18
ENDBRANCH  12  14
ENDBRANCH  10  12
BRANCH   6  26
ATOM     26  C   UNL     1       0.394  10.923  19.548  0.00  0.00    +0.000 C 
BRANCH  26  27
ATOM     27  C   UNL     1      -0.953  10.819  18.849  0.00  0.00    +0.000 A 
ATOM     28  C   UNL     1      -1.138   9.922  17.782  0.00  0.00    +0.000 A 
ATOM     29  C   UNL     1      -2.344   9.895  17.074  0.00  0.00    +0.000 A 
ATOM     30  C   UNL     1      -3.375  10.751  17.443  0.00  0.00    +0.000 A 
ATOM     31  F   UNL     1      -4.509  10.765  16.730  0.00  0.00    +0.000 F 
ATOM     32  C   UNL     1      -3.237  11.603  18.532  0.00  0.00    +0.000 A 
ATOM     33  C   UNL     1      -2.028  11.637  19.236  0.00  0.00    +0.000 A 
ENDBRANCH  26  27
ENDBRANCH   6  26
TORSDOF 6
ENDMDL
MODEL 4
REMARK VINA RESULT:      -8.3      1.288      1.560
REMARK  Name = 
REMARK  6 active torsions:
REMARK  status: ('A' for Active; 'I' for Inactive)
REMARK    1  A    between atoms: N_6  and  C_7
REMARK    2  A    between atoms: C_7  and  C_8
REMARK    3  A    between atoms: C_18  and  N_19
REMARK    4  A    between atoms: N_19  and  N_20
REMARK    5  A    between atoms: C_21  and  C_23
REMARK    6  A    between atoms: C_28  and  O_29
REMARK                            x       y       z     vdW  Elec       q    Type
REMARK                         _______ _______ _______ _____ _____    ______ ____
ROOT
ATOM      1  O   UNL     1       7.782   5.564  16.735  0.00  0.00    +0.000 OA
ATOM      2  C   UNL     1       6.596   5.570  17.030  0.00  0.00    +0.000 C 
ATOM      3  N   UNL     1       5.849   4.426  16.966  0.00  0.00    +0.000 N 
ATOM      4  C   UNL     1       4.487   4.350  16.982  0.00  0.00    +0.000 C 
ATOM      5  O   UNL     1       3.939   3.368  16.479  0.00  0.00    +0.000 OA
ATOM      6  N   UNL     1       3.807   5.430  17.516  0.00  0.00    +0.000 N 
ATOM      7  C   UNL     1       4.380   6.677  17.691  0.00  0.00    +0.000 C 
ATOM      8  O   UNL     1       3.741   7.675  18.029  0.00  0.00    +0.000 OA
ATOM      9  C   UNL     1       5.837   6.772  17.405  0.00  0.00    +0.000 C 
ATOM     10  C   UNL     1       6.458   7.961  17.500  0.00  0.00    +0.000 C 
ATOM     11  H   UNL     1       6.335   3.630  16.578  0.00  0.00    +0.000 HD
ENDROOT
BRANCH  10  12
ATOM     12  N   UNL     1       7.796   8.242  17.342  0.00  0.00    +0.000 N 
ATOM     13  H   UNL     1       8.206   8.070  16.409  0.00  0.00    +0.000 HD
BRANCH  12  14
ATOM     14  N   UNL     1       8.498   9.117  18.157  0.00  0.00    +0.000 N 
ATOM     15  C   UNL     1       8.378  10.473  17.907  0.00  0.00    +0.000 C 
ATOM     16  O   UNL     1       7.592  10.952  17.095  0.00  0.00    +0.000 OA
ATOM     17  H   UNL     1       9.360   8.771  18.576  0.00  0.00    +0.000 HD
BRANCH  15  18
ATOM     18  C   UNL     1       9.237  11.367  18.740  0.00  0.00    +0.000 A 
ATOM     19  C   UNL     1       9.603  10.896  20.009  0.00  0.00    +0.000 A 
ATOM     20  C   UNL     1      10.453  11.644  20.826  0.00  0.00    +0.000 A 
ATOM     21  C   UNL     1      10.927  12.880  20.390  0.00  0.00    +0.000 A 
ATOM     22  C   UNL     1      10.551  13.371  19.137  0.00  0.00    +0.000 A 
ATOM     23  C   UNL     1       9.712  12.614  18.314  0.00  0.00    +0.000 A 
BRANCH  23  24
ATOM     24  O   UNL     1       9.359  13.113  17.087  0.00  0.00    +0.000 OA
ATOM     25  H   UNL     1      10.172  13.267  16.572  0.00  0.00    +0.000 HD
ENDBRANCH  23  24
ENDBRANCH  15  18
ENDBRANCH  12  14
ENDBRANCH  10  12
BRANCH   6  26
ATOM     26  C   UNL     1       2.351   5.315  17.697  0.00  0.00    +0.000 C 
BRANCH  26  27
ATOM     27  C   UNL     1       1.964   4.533  18.942  0.00  0.00    +0.000 A 
ATOM     28  C   UNL     1       2.347   4.981  20.218  0.00  0.00    +0.000 A 
ATOM     29  C   UNL     1       2.078   4.213  21.356  0.00  0.00    +0.000 A 
ATOM     30  C   UNL     1       1.409   3.003  21.222  0.00  0.00    +0.000 A 
ATOM     31  F   UNL     1       1.201   2.240  22.304  0.00  0.00    +0.000 F 
ATOM     32  C   UNL     1       0.967   2.568  19.979  0.00  0.00    +0.000 A 
ATOM     33  C   UNL     1       1.243   3.331  18.840  0.00  0.00    +0.000 A 
ENDBRANCH  26  27
ENDBRANCH   6  26
TORSDOF 6
ENDMDL
MODEL 5
REMARK VINA RESULT:      -8.2      5.179      7.514
REMARK  Name = 
REMARK  6 active torsions:
REMARK  status: ('A' for Active; 'I' for Inactive)
REMARK    1  A    between atoms: N_6  and  C_7
REMARK    2  A    between atoms: C_7  and  C_8
REMARK    3  A    between atoms: C_18  and  N_19
REMARK    4  A    between atoms: N_19  and  N_20
REMARK    5  A    between atoms: C_21  and  C_23
REMARK    6  A    between atoms: C_28  and  O_29
REMARK                            x       y       z     vdW  Elec       q    Type
REMARK                         _______ _______ _______ _____ _____    ______ ____
ROOT
ATOM      1  O   UNL     1       3.866   5.398  19.970  0.00  0.00    +0.000 OA
ATOM      2  C   UNL     1       4.525   5.453  18.941  0.00  0.00    +0.000 C 
ATOM      3  N   UNL     1       5.605   4.637  18.754  0.00  0.00    +0.000 N 
ATOM      4  C   UNL     1       6.579   4.790  17.810  0.00  0.00    +0.000 C 
ATOM      5  O   UNL     1       7.689   4.298  18.013  0.00  0.00    +0.000 OA
ATOM      6  N   UNL     1       6.259   5.554  16.701  0.00  0.00    +0.000 N 
ATOM      7  C   UNL     1       5.190   6.431  16.667  0.00  0.00    +0.000 C 
ATOM      8  O   UNL     1       4.987   7.216  15.740  0.00  0.00    +0.000 OA
ATOM      9  C   UNL     1       4.291   6.413  17.853  0.00  0.00    +0.000 C 
ATOM     10  C   UNL     1       3.259   7.273  17.921  0.00  0.00    +0.000 C 
ATOM     11  H   UNL     1       5.849   4.073  19.556  0.00  0.00    +0.000 HD
ENDROOT
BRANCH  10  12
ATOM     12  N   UNL     1       2.288   7.369  18.890  0.00  0.00    +0.000 N 
ATOM     13  H   UNL     1       2.269   6.631  19.612  0.00  0.00    +0.000 HD
BRANCH  12  14
ATOM     14  N   UNL     1       1.650   8.554  19.222  0.00  0.00    +0.000 N 
ATOM     15  C   UNL     1       1.140   8.678  20.503  0.00  0.00    +0.000 C 
ATOM     16  O   UNL     1       1.331   7.860  21.398  0.00  0.00    +0.000 OA
ATOM     17  H   UNL     1       1.200   9.068  18.465  0.00  0.00    +0.000 HD
BRANCH  15  18
ATOM     18  C   UNL     1       0.366   9.927  20.777  0.00  0.00    +0.000 A 
ATOM     19  C   UNL     1      -0.151  10.612  19.668  0.00  0.00    +0.000 A 
ATOM     20  C   UNL     1      -0.935  11.754  19.841  0.00  0.00    +0.000 A 
ATOM     21  C   UNL     1      -1.191  12.233  21.125  0.00  0.00    +0.000 A 
ATOM     22  C   UNL     1      -0.662  11.573  22.237  0.00  0.00    +0.000 A 
ATOM     23  C   UNL     1       0.111  10.422  22.063  0.00  0.00    +0.000 A 
BRANCH  23  24
ATOM     24  O   UNL     1       0.616   9.787  23.167  0.00  0.00    +0.000 OA
ATOM     25  H   UNL     1       0.415  10.328  23.952  0.00  0.00    +0.000 HD
ENDBRANCH  23  24
ENDBRANCH  15  18
ENDBRANCH  12  14
ENDBRANCH  10  12
BRANCH   6  26
ATOM     26  C   UNL     1       7.223   5.608  15.592  0.00  0.00    +0.000 C 
BRANCH  26  27
ATOM     27  C   UNL     1       6.762   4.841  14.362  0.00  0.00    +0.000 A 
ATOM     28  C   UNL     1       5.586   4.071  14.398  0.00  0.00    +0.000 A 
ATOM     29  C   UNL     1       5.213   3.287  13.301  0.00  0.00    +0.000 A 
ATOM     30  C   UNL     1       6.004   3.286  12.159  0.00  0.00    +0.000 A 
ATOM     31  F   UNL     1       5.677   2.493  11.130  0.00  0.00    +0.000 F 
ATOM     32  C   UNL     1       7.137   4.086  12.078  0.00  0.00    +0.000 A 
ATOM     33  C   UNL     1       7.516   4.864  13.177  0.00  0.00    +0.000 A 
ENDBRANCH  26  27
ENDBRANCH   6  26
TORSDOF 6
ENDMDL
MODEL 6
REMARK VINA RESULT:      -8.2      5.986      8.283
REMARK  Name = 
REMARK  6 active torsions:
REMARK  status: ('A' for Active; 'I' for Inactive)
REMARK    1  A    between atoms: N_6  and  C_7
REMARK    2  A    between atoms: C_7  and  C_8
REMARK    3  A    between atoms: C_18  and  N_19
REMARK    4  A    between atoms: N_19  and  N_20
REMARK    5  A    between atoms: C_21  and  C_23
REMARK    6  A    between atoms: C_28  and  O_29
REMARK                            x       y       z     vdW  Elec       q    Type
REMARK                         _______ _______ _______ _____ _____    ______ ____
ROOT
ATOM      1  O   UNL     1       1.801   8.207  17.612  0.00  0.00    +0.000 OA
ATOM      2  C   UNL     1       1.463   9.017  18.462  0.00  0.00    +0.000 C 
ATOM      3  N   UNL     1       1.071  10.280  18.114  0.00  0.00    +0.000 N 
ATOM      4  C   UNL     1       0.953  11.349  18.954  0.00  0.00    +0.000 C 
ATOM      5  O   UNL     1       1.040  12.486  18.489  0.00  0.00    +0.000 OA
ATOM      6  N   UNL     1       0.803  11.071  20.302  0.00  0.00    +0.000 N 
ATOM      7  C   UNL     1       1.118   9.847  20.863  0.00  0.00    +0.000 C 
ATOM      8  O   UNL     1       1.124   9.640  22.078  0.00  0.00    +0.000 OA
ATOM      9  C   UNL     1       1.500   8.769  19.911  0.00  0.00    +0.000 C 
ATOM     10  C   UNL     1       1.872   7.565  20.380  0.00  0.00    +0.000 C 
ATOM     11  H   UNL     1       1.175  10.495  17.133  0.00  0.00    +0.000 HD
ENDROOT
BRANCH  10  12
ATOM     12  N   UNL     1       2.194   6.432  19.670  0.00  0.00    +0.000 N 
ATOM     13  H   UNL     1       1.410   5.857  19.320  0.00  0.00    +0.000 HD
BRANCH  12  14
ATOM     14  N   UNL     1       3.410   6.247  19.030  0.00  0.00    +0.000 N 
ATOM     15  C   UNL     1       3.534   5.168  18.173  0.00  0.00    +0.000 C 
ATOM     16  O   UNL     1       2.599   4.444  17.845  0.00  0.00    +0.000 OA
ATOM     17  H   UNL     1       4.243   6.591  19.507  0.00  0.00    +0.000 HD
BRANCH  15  18
ATOM     18  C   UNL     1       4.894   4.949  17.594  0.00  0.00    +0.000 A 
ATOM     19  C   UNL     1       4.981   4.828  16.200  0.00  0.00    +0.000 A 
ATOM     20  C   UNL     1       6.221   4.680  15.576  0.00  0.00    +0.000 A 
ATOM     21  C   UNL     1       7.384   4.632  16.343  0.00  0.00    +0.000 A 
ATOM     22  C   UNL     1       7.309   4.727  17.735  0.00  0.00    +0.000 A 
ATOM     23  C   UNL     1       6.067   4.889  18.357  0.00  0.00    +0.000 A 
BRANCH  23  24
ATOM     24  O   UNL     1       6.017   4.986  19.723  0.00  0.00    +0.000 OA
ATOM     25  H   UNL     1       5.843   4.100  20.089  0.00  0.00    +0.000 HD
ENDBRANCH  23  24
ENDBRANCH  15  18
ENDBRANCH  12  14
ENDBRANCH  10  12
BRANCH   6  26
ATOM     26  C   UNL     1       0.512  12.187  21.214  0.00  0.00    +0.000 C 
BRANCH  26  27
ATOM     27  C   UNL     1      -0.954  12.270  21.607  0.00  0.00    +0.000 A 
ATOM     28  C   UNL     1      -1.917  12.727  20.689  0.00  0.00    +0.000 A 
ATOM     29  C   UNL     1      -3.250  12.898  21.078  0.00  0.00    +0.000 A 
ATOM     30  C   UNL     1      -3.627  12.595  22.380  0.00  0.00    +0.000 A 
ATOM     31  F   UNL     1      -4.891  12.813  22.769  0.00  0.00    +0.000 F 
ATOM     32  C   UNL     1      -2.707  12.085  23.288  0.00  0.00    +0.000 A 
ATOM     33  C   UNL     1      -1.373  11.921  22.902  0.00  0.00    +0.000 A 
ENDBRANCH  26  27
ENDBRANCH   6  26
TORSDOF 6
ENDMDL
MODEL 7
REMARK VINA RESULT:      -8.2      6.869      9.818
REMARK  Name = 
REMARK  6 active torsions:
REMARK  status: ('A' for Active; 'I' for Inactive)
REMARK    1  A    between atoms: N_6  and  C_7
REMARK    2  A    between atoms: C_7  and  C_8
REMARK    3  A    between atoms: C_18  and  N_19
REMARK    4  A    between atoms: N_19  and  N_20
REMARK    5  A    between atoms: C_21  and  C_23
REMARK    6  A    between atoms: C_28  and  O_29
REMARK                            x       y       z     vdW  Elec       q    Type
REMARK                         _______ _______ _______ _____ _____    ______ ____
ROOT
ATOM      1  O   UNL     1       1.898   9.459  18.551  0.00  0.00    +0.000 OA
ATOM      2  C   UNL     1       0.959  10.115  18.977  0.00  0.00    +0.000 C 
ATOM      3  N   UNL     1       0.345  11.054  18.195  0.00  0.00    +0.000 N 
ATOM      4  C   UNL     1      -0.498  12.037  18.626  0.00  0.00    +0.000 C 
ATOM      5  O   UNL     1      -0.621  13.057  17.948  0.00  0.00    +0.000 OA
ATOM      6  N   UNL     1      -1.118  11.838  19.847  0.00  0.00    +0.000 N 
ATOM      7  C   UNL     1      -0.674  10.919  20.782  0.00  0.00    +0.000 C 
ATOM      8  O   UNL     1      -1.132  10.839  21.923  0.00  0.00    +0.000 OA
ATOM      9  C   UNL     1       0.439  10.032  20.349  0.00  0.00    +0.000 C 
ATOM     10  C   UNL     1       0.963   9.148  21.217  0.00  0.00    +0.000 C 
ATOM     11  H   UNL     1       0.787  11.209  17.301  0.00  0.00    +0.000 HD
ENDROOT
BRANCH  10  12
ATOM     12  N   UNL     1       1.940   8.206  20.994  0.00  0.00    +0.000 N 
ATOM     13  H   UNL     1       2.880   8.403  21.375  0.00  0.00    +0.000 HD
BRANCH  12  14
ATOM     14  N   UNL     1       1.673   6.876  20.706  0.00  0.00    +0.000 N 
ATOM     15  C   UNL     1       2.440   6.258  19.733  0.00  0.00    +0.000 C 
ATOM     16  O   UNL     1       3.421   6.772  19.206  0.00  0.00    +0.000 OA
ATOM     17  H   UNL     1       0.719   6.550  20.857  0.00  0.00    +0.000 HD
BRANCH  15  18
ATOM     18  C   UNL     1       2.041   4.861  19.381  0.00  0.00    +0.000 A 
ATOM     19  C   UNL     1       1.185   4.199  20.273  0.00  0.00    +0.000 A 
ATOM     20  C   UNL     1       0.718   2.915  19.989  0.00  0.00    +0.000 A 
ATOM     21  C   UNL     1       1.121   2.272  18.820  0.00  0.00    +0.000 A 
ATOM     22  C   UNL     1       1.994   2.911  17.934  0.00  0.00    +0.000 A 
ATOM     23  C   UNL     1       2.449   4.203  18.214  0.00  0.00    +0.000 A 
BRANCH  23  24
ATOM     24  O   UNL     1       3.300   4.813  17.330  0.00  0.00    +0.000 OA
ATOM     25  H   UNL     1       2.930   5.684  17.097  0.00  0.00    +0.000 HD
ENDBRANCH  23  24
ENDBRANCH  15  18
ENDBRANCH  12  14
ENDBRANCH  10  12
BRANCH   6  26
ATOM     26  C   UNL     1      -2.152  12.795  20.268  0.00  0.00    +0.000 C 
BRANCH  26  27
ATOM     27  C   UNL     1      -3.550  12.396  19.824  0.00  0.00    +0.000 A 
ATOM     28  C   UNL     1      -4.673  12.737  20.599  0.00  0.00    +0.000 A 
ATOM     29  C   UNL     1      -5.949  12.286  20.245  0.00  0.00    +0.000 A 
ATOM     30  C   UNL     1      -6.109  11.510  19.104  0.00  0.00    +0.000 A 
ATOM     31  F   UNL     1      -7.321  11.032  18.795  0.00  0.00    +0.000 F 
ATOM     32  C   UNL     1      -5.024  11.211  18.289  0.00  0.00    +0.000 A 
ATOM     33  C   UNL     1      -3.746  11.654  18.646  0.00  0.00    +0.000 A 
ENDBRANCH  26  27
ENDBRANCH   6  26
TORSDOF 6
ENDMDL
MODEL 8
REMARK VINA RESULT:      -8.2      1.740      2.263
REMARK  Name = 
REMARK  6 active torsions:
REMARK  status: ('A' for Active; 'I' for Inactive)
REMARK    1  A    between atoms: N_6  and  C_7
REMARK    2  A    between atoms: C_7  and  C_8
REMARK    3  A    between atoms: C_18  and  N_19
REMARK    4  A    between atoms: N_19  and  N_20
REMARK    5  A    between atoms: C_21  and  C_23
REMARK    6  A    between atoms: C_28  and  O_29
REMARK                            x       y       z     vdW  Elec       q    Type
REMARK                         _______ _______ _______ _____ _____    ______ ____
ROOT
ATOM      1  O   UNL     1       8.461   6.482  19.626  0.00  0.00    +0.000 OA
ATOM      2  C   UNL     1       7.470   6.160  18.985  0.00  0.00    +0.000 C 
ATOM      3  N   UNL     1       6.808   4.994  19.252  0.00  0.00    +0.000 N 
ATOM      4  C   UNL     1       5.891   4.385  18.446  0.00  0.00    +0.000 C 
ATOM      5  O   UNL     1       5.710   3.172  18.559  0.00  0.00    +0.000 OA
ATOM      6  N   UNL     1       5.263   5.178  17.502  0.00  0.00    +0.000 N 
ATOM      7  C   UNL     1       5.751   6.409  17.100  0.00  0.00    +0.000 C 
ATOM      8  O   UNL     1       5.278   7.051  16.161  0.00  0.00    +0.000 OA
ATOM      9  C   UNL     1       6.932   6.920  17.848  0.00  0.00    +0.000 C 
ATOM     10  C   UNL     1       7.498   8.084  17.484  0.00  0.00    +0.000 C 
ATOM     11  H   UNL     1       7.255   4.406  19.940  0.00  0.00    +0.000 HD
ENDROOT
BRANCH  10  12
ATOM     12  N   UNL     1       8.543   8.751  18.081  0.00  0.00    +0.000 N 
ATOM     13  H   UNL     1       9.235   8.179  18.593  0.00  0.00    +0.000 HD
BRANCH  12  14
ATOM     14  N   UNL     1       8.970  10.011  17.694  0.00  0.00    +0.000 N 
ATOM     15  C   UNL     1       9.442  10.865  18.676  0.00  0.00    +0.000 C 
ATOM     16  O   UNL     1       9.626  10.531  19.843  0.00  0.00    +0.000 OA
ATOM     17  H   UNL     1       8.539  10.414  16.862  0.00  0.00    +0.000 HD
BRANCH  15  18
ATOM     18  C   UNL     1       9.786  12.248  18.226  0.00  0.00    +0.000 A 
ATOM     19  C   UNL     1       8.850  13.256  18.495  0.00  0.00    +0.000 A 
ATOM     20  C   UNL     1       9.121  14.584  18.160  0.00  0.00    +0.000 A 
ATOM     21  C   UNL     1      10.322  14.912  17.534  0.00  0.00    +0.000 A 
ATOM     22  C   UNL     1      11.253  13.914  17.239  0.00  0.00    +0.000 A 
ATOM     23  C   UNL     1      10.987  12.586  17.588  0.00  0.00    +0.000 A 
BRANCH  23  24
ATOM     24  O   UNL     1      11.916  11.623  17.294  0.00  0.00    +0.000 OA
ATOM     25  H   UNL     1      11.467  10.892  16.832  0.00  0.00    +0.000 HD
ENDBRANCH  23  24
ENDBRANCH  15  18
ENDBRANCH  12  14
ENDBRANCH  10  12
BRANCH   6  26
ATOM     26  C   UNL     1       4.157   4.596  16.728  0.00  0.00    +0.000 C 
BRANCH  26  27
ATOM     27  C   UNL     1       2.994   4.142  17.596  0.00  0.00    +0.000 A 
ATOM     28  C   UNL     1       2.424   5.012  18.542  0.00  0.00    +0.000 A 
ATOM     29  C   UNL     1       1.422   4.565  19.410  0.00  0.00    +0.000 A 
ATOM     30  C   UNL     1       0.973   3.253  19.321  0.00  0.00    +0.000 A 
ATOM     31  F   UNL     1       0.053   2.809  20.188  0.00  0.00    +0.000 F 
ATOM     32  C   UNL     1       1.478   2.393  18.354  0.00  0.00    +0.000 A 
ATOM     33  C   UNL     1       2.486   2.835  17.491  0.00  0.00    +0.000 A 
ENDBRANCH  26  27
ENDBRANCH   6  26
TORSDOF 6
ENDMDL
MODEL 9
REMARK VINA RESULT:      -8.1      1.646      2.011
REMARK  Name = 
REMARK  6 active torsions:
REMARK  status: ('A' for Active; 'I' for Inactive)
REMARK    1  A    between atoms: N_6  and  C_7
REMARK    2  A    between atoms: C_7  and  C_8
REMARK    3  A    between atoms: C_18  and  N_19
REMARK    4  A    between atoms: N_19  and  N_20
REMARK    5  A    between atoms: C_21  and  C_23
REMARK    6  A    between atoms: C_28  and  O_29
REMARK                            x       y       z     vdW  Elec       q    Type
REMARK                         _______ _______ _______ _____ _____    ______ ____
ROOT
ATOM      1  O   UNL     1       8.541   6.568  19.289  0.00  0.00    +0.000 OA
ATOM      2  C   UNL     1       7.444   6.234  18.863  0.00  0.00    +0.000 C 
ATOM      3  N   UNL     1       6.829   5.100  19.316  0.00  0.00    +0.000 N 
ATOM      4  C   UNL     1       5.770   4.468  18.731  0.00  0.00    +0.000 C 
ATOM      5  O   UNL     1       5.599   3.268  18.945  0.00  0.00    +0.000 OA
ATOM      6  N   UNL     1       4.986   5.223  17.876  0.00  0.00    +0.000 N 
ATOM      7  C   UNL     1       5.405   6.419  17.320  0.00  0.00    +0.000 C 
ATOM      8  O   UNL     1       4.773   7.019  16.450  0.00  0.00    +0.000 OA
ATOM      9  C   UNL     1       6.711   6.943  17.804  0.00  0.00    +0.000 C 
ATOM     10  C   UNL     1       7.213   8.073  17.275  0.00  0.00    +0.000 C 
ATOM     11  H   UNL     1       7.391   4.540  19.941  0.00  0.00    +0.000 HD
ENDROOT
BRANCH  10  12
ATOM     12  N   UNL     1       8.360   8.747  17.628  0.00  0.00    +0.000 N 
ATOM     13  H   UNL     1       9.147   8.718  16.960  0.00  0.00    +0.000 HD
BRANCH  12  14
ATOM     14  N   UNL     1       8.387   9.782  18.550  0.00  0.00    +0.000 N 
ATOM     15  C   UNL     1       9.401  10.718  18.441  0.00  0.00    +0.000 C 
ATOM     16  O   UNL     1      10.195  10.762  17.507  0.00  0.00    +0.000 OA
ATOM     17  H   UNL     1       7.989   9.597  19.470  0.00  0.00    +0.000 HD
BRANCH  15  18
ATOM     18  C   UNL     1       9.452  11.750  19.521  0.00  0.00    +0.000 A 
ATOM     19  C   UNL     1       9.379  11.291  20.844  0.00  0.00    +0.000 A 
ATOM     20  C   UNL     1       9.479  12.183  21.912  0.00  0.00    +0.000 A 
ATOM     21  C   UNL     1       9.633  13.547  21.667  0.00  0.00    +0.000 A 
ATOM     22  C   UNL     1       9.684  14.020  20.354  0.00  0.00    +0.000 A 
ATOM     23  C   UNL     1       9.597  13.123  19.285  0.00  0.00    +0.000 A 
BRANCH  23  24
ATOM     24  O   UNL     1       9.654  13.608  18.004  0.00  0.00    +0.000 OA
ATOM     25  H   UNL     1       8.920  14.237  17.880  0.00  0.00    +0.000 HD
ENDBRANCH  23  24
ENDBRANCH  15  18
ENDBRANCH  12  14
ENDBRANCH  10  12
BRANCH   6  26
ATOM     26  C   UNL     1       3.748   4.624  17.356  0.00  0.00    +0.000 C 
BRANCH  26  27
ATOM     27  C   UNL     1       2.819   4.126  18.452  0.00  0.00    +0.000 A 
ATOM     28  C   UNL     1       2.473   4.959  19.531  0.00  0.00    +0.000 A 
ATOM     29  C   UNL     1       1.700   4.471  20.590  0.00  0.00    +0.000 A 
ATOM     30  C   UNL     1       1.255   3.155  20.564  0.00  0.00    +0.000 A 
ATOM     31  F   UNL     1       0.562   2.671  21.603  0.00  0.00    +0.000 F 
ATOM     32  C   UNL     1       1.533   2.332  19.480  0.00  0.00    +0.000 A 
ATOM     33  C   UNL     1       2.313   2.816  18.424  0.00  0.00    +0.000 A 
ENDBRANCH  26  27
ENDBRANCH   6  26
TORSDOF 6
ENDMDL
