MODEL 1
REMARK VINA RESULT:      -9.0      0.000      0.000
REMARK  Name = 
REMARK  4 active torsions:
REMARK  status: ('A' for Active; 'I' for Inactive)
REMARK    1  A    between atoms: C_5  and  C_6
REMARK    2  A    between atoms: C_9  and  C_10
REMARK    3  A    between atoms: C_15  and  S_16
REMARK    4  A    between atoms: S_16  and  C_19
REMARK                            x       y       z     vdW  Elec       q    Type
REMARK                         _______ _______ _______ _____ _____    ______ ____
ROOT
ATOM      1  C   UNL     1       1.285   8.812  19.858  0.00  0.00    +0.000 A 
ATOM      2  C   UNL     1       1.827   7.664  20.449  0.00  0.00    +0.000 A 
ATOM      3  C   UNL     1       2.637   6.781  19.720  0.00  0.00    +0.000 A 
ATOM      4  C   UNL     1       2.899   6.951  18.345  0.00  0.00    +0.000 A 
ATOM      5  C   UNL     1       2.179   7.979  17.731  0.00  0.00    +0.000 A 
ATOM      6  C   UNL     1       1.436   8.912  18.472  0.00  0.00    +0.000 A 
ATOM      7  F   UNL     1       0.903   9.946  17.804  0.00  0.00    +0.000 F 
ENDROOT
BRANCH   1  12
ATOM      8  N   UNL     1      -1.113  12.688  23.099  0.00  0.00    +0.000 N 
ATOM      9  C   UNL     1      -0.525  11.750  22.279  0.00  0.00    +0.000 A 
ATOM     10  N   UNL     1      -0.895  10.480  22.448  0.00  0.00    +0.000 NA
ATOM     11  C   UNL     1      -0.293   9.572  21.648  0.00  0.00    +0.000 A 
ATOM     12  C   UNL     1       0.660   9.860  20.682  0.00  0.00    +0.000 A 
ATOM     13  C   UNL     1       0.978  11.207  20.640  0.00  0.00    +0.000 A 
ATOM     14  N   UNL     1       0.407  12.158  21.417  0.00  0.00    +0.000 NA
ATOM     15  H   UNL     1      -1.441  12.234  23.941  0.00  0.00    +0.000 HD
ATOM     16  H   UNL     1      -0.487  13.472  23.209  0.00  0.00    +0.000 HD
ENDBRANCH   1  12
BRANCH   4  17
ATOM     17  C   UNL     1       3.896   6.066  17.656  0.00  0.00    +0.000 A 
ATOM     18  C   UNL     1       5.084   6.682  17.179  0.00  0.00    +0.000 A 
ATOM     19  C   UNL     1       6.016   6.021  16.375  0.00  0.00    +0.000 A 
ATOM     20  C   UNL     1       5.819   4.694  16.043  0.00  0.00    +0.000 A 
ATOM     21  C   UNL     1       4.693   4.027  16.521  0.00  0.00    +0.000 A 
ATOM     22  C   UNL     1       3.736   4.690  17.319  0.00  0.00    +0.000 A 
BRANCH  22  23
ATOM     23  S   UNL     1       2.314   3.738  17.833  0.00  0.00    +0.000 S 
ATOM     24  O   UNL     1       1.138   4.500  17.459  0.00  0.00    +0.000 OA
ATOM     25  O   UNL     1       2.530   2.369  17.410  0.00  0.00    +0.000 OA
BRANCH  23  26
ATOM     26  C   UNL     1       2.196   3.732  19.661  0.00  0.00    +0.000 C 
ATOM     27  C   UNL     1       0.743   3.627  20.088  0.00  0.00    +0.000 C 
ATOM     28  C   UNL     1       1.688   2.489  20.338  0.00  0.00    +0.000 C 
ENDBRANCH  23  26
ENDBRANCH  22  23
ENDBRANCH   4  17
TORSDOF 4
ENDMDL
MODEL 2
REMARK VINA RESULT:      -8.7      2.377      3.814
REMARK  Name = 
REMARK  4 active torsions:
REMARK  status: ('A' for Active; 'I' for Inactive)
REMARK    1  A    between atoms: C_5  and  C_6
REMARK    2  A    between atoms: C_9  and  C_10
REMARK    3  A    between atoms: C_15  and  S_16
REMARK    4  A    between atoms: S_16  and  C_19
REMARK                            x       y       z     vdW  Elec       q    Type
REMARK                         _______ _______ _______ _____ _____    ______ ____
ROOT
ATOM      1  C   UNL     1       1.519   8.894  19.075  0.00  0.00    +0.000 A 
ATOM      2  C   UNL     1       2.005   8.447  17.841  0.00  0.00    +0.000 A 
ATOM      3  C   UNL     1       2.424   7.121  17.658  0.00  0.00    +0.000 A 
ATOM      4  C   UNL     1       2.448   6.182  18.709  0.00  0.00    +0.000 A 
ATOM      5  C   UNL     1       2.162   6.704  19.973  0.00  0.00    +0.000 A 
ATOM      6  C   UNL     1       1.664   8.005  20.144  0.00  0.00    +0.000 A 
ATOM      7  F   UNL     1       1.281   8.362  21.380  0.00  0.00    +0.000 F 
ENDROOT
BRANCH   1  12
ATOM      8  N   UNL     1      -0.954  13.900  19.405  0.00  0.00    +0.000 N 
ATOM      9  C   UNL     1      -0.355  12.660  19.348  0.00  0.00    +0.000 A 
ATOM     10  N   UNL     1       0.905  12.615  18.916  0.00  0.00    +0.000 NA
ATOM     11  C   UNL     1       1.468  11.388  18.849  0.00  0.00    +0.000 A 
ATOM     12  C   UNL     1       0.844  10.197  19.191  0.00  0.00    +0.000 A 
ATOM     13  C   UNL     1      -0.470  10.386  19.585  0.00  0.00    +0.000 A 
ATOM     14  N   UNL     1      -1.084  11.590  19.671  0.00  0.00    +0.000 NA
ATOM     15  H   UNL     1      -0.486  14.525  18.763  0.00  0.00    +0.000 HD
ATOM     16  H   UNL     1      -1.952  13.792  19.301  0.00  0.00    +0.000 HD
ENDBRANCH   1  12
BRANCH   4  17
ATOM     17  C   UNL     1       2.756   4.741  18.421  0.00  0.00    +0.000 A 
ATOM     18  C   UNL     1       1.649   3.867  18.253  0.00  0.00    +0.000 A 
ATOM     19  C   UNL     1       1.781   2.480  18.151  0.00  0.00    +0.000 A 
ATOM     20  C   UNL     1       3.038   1.906  18.173  0.00  0.00    +0.000 A 
ATOM     21  C   UNL     1       4.163   2.720  18.290  0.00  0.00    +0.000 A 
ATOM     22  C   UNL     1       4.039   4.121  18.412  0.00  0.00    +0.000 A 
BRANCH  22  23
ATOM     23  S   UNL     1       5.553   5.052  18.601  0.00  0.00    +0.000 S 
ATOM     24  O   UNL     1       5.345   5.979  19.697  0.00  0.00    +0.000 OA
ATOM     25  O   UNL     1       6.652   4.108  18.568  0.00  0.00    +0.000 OA
BRANCH  23  26
ATOM     26  C   UNL     1       5.768   6.187  17.179  0.00  0.00    +0.000 C 
ATOM     27  C   UNL     1       6.749   5.596  16.185  0.00  0.00    +0.000 C 
ATOM     28  C   UNL     1       5.298   5.731  15.826  0.00  0.00    +0.000 C 
ENDBRANCH  23  26
ENDBRANCH  22  23
ENDBRANCH   4  17
TORSDOF 4
ENDMDL
MODEL 3
REMARK VINA RESULT:      -8.6      2.327      3.731
REMARK  Name = 
REMARK  4 active torsions:
REMARK  status: ('A' for Active; 'I' for Inactive)
REMARK    1  A    between atoms: C_5  and  C_6
REMARK    2  A    between atoms: C_9  and  C_10
REMARK    3  A    between atoms: C_15  and  S_16
REMARK    4  A    between atoms: S_16  and  C_19
REMARK                            x       y       z     vdW  Elec       q    Type
REMARK                         _______ _______ _______ _____ _____    ______ ____
ROOT
ATOM      1  C   UNL     1       1.423   9.135  18.976  0.00  0.00    +0.000 A 
ATOM      2  C   UNL     1       1.763   8.691  17.692  0.00  0.00    +0.000 A 
ATOM      3  C   UNL     1       2.158   7.365  17.460  0.00  0.00    +0.000 A 
ATOM      4  C   UNL     1       2.304   6.424  18.500  0.00  0.00    +0.000 A 
ATOM      5  C   UNL     1       2.166   6.943  19.789  0.00  0.00    +0.000 A 
ATOM      6  C   UNL     1       1.691   8.244  20.019  0.00  0.00    +0.000 A 
ATOM      7  F   UNL     1       1.455   8.599  21.291  0.00  0.00    +0.000 F 
ENDROOT
BRANCH   1  12
ATOM      8  N   UNL     1      -1.181  14.014  19.808  0.00  0.00    +0.000 N 
ATOM      9  C   UNL     1      -0.526  12.824  19.582  0.00  0.00    +0.000 A 
ATOM     10  N   UNL     1      -1.251  11.708  19.665  0.00  0.00    +0.000 NA
ATOM     11  C   UNL     1      -0.587  10.549  19.460  0.00  0.00    +0.000 A 
ATOM     12  C   UNL     1       0.766  10.438  19.172  0.00  0.00    +0.000 A 
ATOM     13  C   UNL     1       1.403  11.667  19.154  0.00  0.00    +0.000 A 
ATOM     14  N   UNL     1       0.788  12.857  19.353  0.00  0.00    +0.000 NA
ATOM     15  H   UNL     1      -2.005  13.839  20.367  0.00  0.00    +0.000 HD
ATOM     16  H   UNL     1      -0.521  14.695  20.157  0.00  0.00    +0.000 HD
ENDBRANCH   1  12
BRANCH   4  17
ATOM     17  C   UNL     1       2.575   4.984  18.175  0.00  0.00    +0.000 A 
ATOM     18  C   UNL     1       1.540   4.053  18.455  0.00  0.00    +0.000 A 
ATOM     19  C   UNL     1       1.712   2.669  18.366  0.00  0.00    +0.000 A 
ATOM     20  C   UNL     1       2.926   2.154  17.950  0.00  0.00    +0.000 A 
ATOM     21  C   UNL     1       3.963   3.022  17.618  0.00  0.00    +0.000 A 
ATOM     22  C   UNL     1       3.805   4.421  17.723  0.00  0.00    +0.000 A 
BRANCH  22  23
ATOM     23  S   UNL     1       5.224   5.428  17.312  0.00  0.00    +0.000 S 
ATOM     24  O   UNL     1       4.817   6.311  16.235  0.00  0.00    +0.000 OA
ATOM     25  O   UNL     1       5.788   5.914  18.555  0.00  0.00    +0.000 OA
BRANCH  23  26
ATOM     26  C   UNL     1       6.502   4.400  16.497  0.00  0.00    +0.000 C 
ATOM     27  C   UNL     1       6.021   3.961  15.127  0.00  0.00    +0.000 C 
ATOM     28  C   UNL     1       7.159   4.932  15.254  0.00  0.00    +0.000 C 
ENDBRANCH  23  26
ENDBRANCH  22  23
ENDBRANCH   4  17
TORSDOF 4
ENDMDL
MODEL 4
REMARK VINA RESULT:      -8.6      1.792      2.089
REMARK  Name = 
REMARK  4 active torsions:
REMARK  status: ('A' for Active; 'I' for Inactive)
REMARK    1  A    between atoms: C_5  and  C_6
REMARK    2  A    between atoms: C_9  and  C_10
REMARK    3  A    between atoms: C_15  and  S_16
REMARK    4  A    between atoms: S_16  and  C_19
REMARK                            x       y       z     vdW  Elec       q    Type
REMARK                         _______ _______ _______ _____ _____    ______ ____
ROOT
ATOM      1  C   UNL     1       1.172   9.187  18.967  0.00  0.00    +0.000 A 
ATOM      2  C   UNL     1       1.931   9.196  17.791  0.00  0.00    +0.000 A 
ATOM      3  C   UNL     1       2.836   8.165  17.498  0.00  0.00    +0.000 A 
ATOM      4  C   UNL     1       3.088   7.102  18.388  0.00  0.00    +0.000 A 
ATOM      5  C   UNL     1       2.481   7.225  19.641  0.00  0.00    +0.000 A 
ATOM      6  C   UNL     1       1.513   8.207  19.904  0.00  0.00    +0.000 A 
ATOM      7  F   UNL     1       0.883   8.151  21.087  0.00  0.00    +0.000 F 
ENDROOT
BRANCH   1  12
ATOM      8  N   UNL     1      -3.187  12.642  19.558  0.00  0.00    +0.000 N 
ATOM      9  C   UNL     1      -2.097  11.810  19.421  0.00  0.00    +0.000 A 
ATOM     10  N   UNL     1      -2.057  11.038  18.335  0.00  0.00    +0.000 NA
ATOM     11  C   UNL     1      -0.989  10.215  18.228  0.00  0.00    +0.000 A 
ATOM     12  C   UNL     1       0.048  10.121  19.146  0.00  0.00    +0.000 A 
ATOM     13  C   UNL     1      -0.140  10.949  20.240  0.00  0.00    +0.000 A 
ATOM     14  N   UNL     1      -1.189  11.791  20.398  0.00  0.00    +0.000 NA
ATOM     15  H   UNL     1      -3.959  12.268  19.022  0.00  0.00    +0.000 HD
ATOM     16  H   UNL     1      -3.347  12.820  20.539  0.00  0.00    +0.000 HD
ENDBRANCH   1  12
BRANCH   4  17
ATOM     17  C   UNL     1       3.945   5.948  17.955  0.00  0.00    +0.000 A 
ATOM     18  C   UNL     1       5.307   6.231  17.664  0.00  0.00    +0.000 A 
ATOM     19  C   UNL     1       6.174   5.297  17.090  0.00  0.00    +0.000 A 
ATOM     20  C   UNL     1       5.724   4.018  16.818  0.00  0.00    +0.000 A 
ATOM     21  C   UNL     1       4.410   3.673  17.125  0.00  0.00    +0.000 A 
ATOM     22  C   UNL     1       3.521   4.614  17.688  0.00  0.00    +0.000 A 
BRANCH  22  23
ATOM     23  S   UNL     1       1.849   4.062  17.995  0.00  0.00    +0.000 S 
ATOM     24  O   UNL     1       0.964   5.035  17.383  0.00  0.00    +0.000 OA
ATOM     25  O   UNL     1       1.793   2.647  17.687  0.00  0.00    +0.000 OA
BRANCH  23  26
ATOM     26  C   UNL     1       1.448   4.249  19.773  0.00  0.00    +0.000 C 
ATOM     27  C   UNL     1       1.188   2.889  20.393  0.00  0.00    +0.000 C 
ATOM     28  C   UNL     1       2.403   3.678  20.783  0.00  0.00    +0.000 C 
ENDBRANCH  23  26
ENDBRANCH  22  23
ENDBRANCH   4  17
TORSDOF 4
ENDMDL
MODEL 5
REMARK VINA RESULT:      -8.4      0.634      1.005
REMARK  Name = 
REMARK  4 active torsions:
REMARK  status: ('A' for Active; 'I' for Inactive)
REMARK    1  A    between atoms: C_5  and  C_6
REMARK    2  A    between atoms: C_9  and  C_10
REMARK    3  A    between atoms: C_15  and  S_16
REMARK    4  A    between atoms: S_16  and  C_19
REMARK                            x       y       z     vdW  Elec       q    Type
REMARK                         _______ _______ _______ _____ _____    ______ ____
ROOT
ATOM      1  C   UNL     1       1.274   9.003  19.621  0.00  0.00    +0.000 A 
ATOM      2  C   UNL     1       1.768   7.900  20.328  0.00  0.00    +0.000 A 
ATOM      3  C   UNL     1       2.565   6.930  19.704  0.00  0.00    +0.000 A 
ATOM      4  C   UNL     1       2.861   6.964  18.325  0.00  0.00    +0.000 A 
ATOM      5  C   UNL     1       2.187   7.951  17.602  0.00  0.00    +0.000 A 
ATOM      6  C   UNL     1       1.458   8.969  18.236  0.00  0.00    +0.000 A 
ATOM      7  F   UNL     1       0.970   9.952  17.462  0.00  0.00    +0.000 F 
ENDROOT
BRANCH   1  12
ATOM      8  N   UNL     1      -0.918  13.414  22.270  0.00  0.00    +0.000 N 
ATOM      9  C   UNL     1      -0.395  12.311  21.631  0.00  0.00    +0.000 A 
ATOM     10  N   UNL     1       0.928  12.276  21.469  0.00  0.00    +0.000 NA
ATOM     11  C   UNL     1       1.420  11.196  20.823  0.00  0.00    +0.000 A 
ATOM     12  C   UNL     1       0.666  10.141  20.330  0.00  0.00    +0.000 A 
ATOM     13  C   UNL     1      -0.692  10.325  20.533  0.00  0.00    +0.000 A 
ATOM     14  N   UNL     1      -1.239  11.386  21.172  0.00  0.00    +0.000 NA
ATOM     15  H   UNL     1      -0.275  14.188  22.177  0.00  0.00    +0.000 HD
ATOM     16  H   UNL     1      -1.867  13.560  21.956  0.00  0.00    +0.000 HD
ENDBRANCH   1  12
BRANCH   4  17
ATOM     17  C   UNL     1       3.845   5.990  17.745  0.00  0.00    +0.000 A 
ATOM     18  C   UNL     1       5.094   6.513  17.316  0.00  0.00    +0.000 A 
ATOM     19  C   UNL     1       6.033   5.761  16.606  0.00  0.00    +0.000 A 
ATOM     20  C   UNL     1       5.778   4.431  16.326  0.00  0.00    +0.000 A 
ATOM     21  C   UNL     1       4.588   3.854  16.763  0.00  0.00    +0.000 A 
ATOM     22  C   UNL     1       3.625   4.609  17.465  0.00  0.00    +0.000 A 
BRANCH  22  23
ATOM     23  S   UNL     1       2.120   3.766  17.933  0.00  0.00    +0.000 S 
ATOM     24  O   UNL     1       1.026   4.464  17.285  0.00  0.00    +0.000 OA
ATOM     25  O   UNL     1       2.349   2.344  17.771  0.00  0.00    +0.000 OA
BRANCH  23  26
ATOM     26  C   UNL     1       1.764   4.064  19.705  0.00  0.00    +0.000 C 
ATOM     27  C   UNL     1       1.048   2.865  20.299  0.00  0.00    +0.000 C 
ATOM     28  C   UNL     1       2.448   3.196  20.724  0.00  0.00    +0.000 C 
ENDBRANCH  23  26
ENDBRANCH  22  23
ENDBRANCH   4  17
TORSDOF 4
ENDMDL
MODEL 6
REMARK VINA RESULT:      -8.4      1.029      1.182
REMARK  Name = 
REMARK  4 active torsions:
REMARK  status: ('A' for Active; 'I' for Inactive)
REMARK    1  A    between atoms: C_5  and  C_6
REMARK    2  A    between atoms: C_9  and  C_10
REMARK    3  A    between atoms: C_15  and  S_16
REMARK    4  A    between atoms: S_16  and  C_19
REMARK                            x       y       z     vdW  Elec       q    Type
REMARK                         _______ _______ _______ _____ _____    ______ ____
ROOT
ATOM      1  C   UNL     1       1.095   9.245  20.004  0.00  0.00    +0.000 A 
ATOM      2  C   UNL     1       1.616   8.092  20.602  0.00  0.00    +0.000 A 
ATOM      3  C   UNL     1       2.396   7.181  19.874  0.00  0.00    +0.000 A 
ATOM      4  C   UNL     1       2.647   7.329  18.495  0.00  0.00    +0.000 A 
ATOM      5  C   UNL     1       1.945   8.368  17.877  0.00  0.00    +0.000 A 
ATOM      6  C   UNL     1       1.234   9.326  18.615  0.00  0.00    +0.000 A 
ATOM      7  F   UNL     1       0.717  10.366  17.942  0.00  0.00    +0.000 F 
ENDROOT
BRANCH   1  12
ATOM      8  N   UNL     1      -1.186  13.212  23.220  0.00  0.00    +0.000 N 
ATOM      9  C   UNL     1      -0.624  12.252  22.407  0.00  0.00    +0.000 A 
ATOM     10  N   UNL     1      -1.101  11.012  22.514  0.00  0.00    +0.000 NA
ATOM     11  C   UNL     1      -0.524  10.081  21.723  0.00  0.00    +0.000 A 
ATOM     12  C   UNL     1       0.506  10.317  20.823  0.00  0.00    +0.000 A 
ATOM     13  C   UNL     1       0.929  11.636  20.842  0.00  0.00    +0.000 A 
ATOM     14  N   UNL     1       0.388  12.608  21.614  0.00  0.00    +0.000 NA
ATOM     15  H   UNL     1      -1.598  12.764  24.027  0.00  0.00    +0.000 HD
ATOM     16  H   UNL     1      -0.508  13.941  23.391  0.00  0.00    +0.000 HD
ENDBRANCH   1  12
BRANCH   4  17
ATOM     17  C   UNL     1       3.615   6.413  17.806  0.00  0.00    +0.000 A 
ATOM     18  C   UNL     1       4.808   6.996  17.301  0.00  0.00    +0.000 A 
ATOM     19  C   UNL     1       5.713   6.304  16.493  0.00  0.00    +0.000 A 
ATOM     20  C   UNL     1       5.483   4.975  16.185  0.00  0.00    +0.000 A 
ATOM     21  C   UNL     1       4.351   4.340  16.691  0.00  0.00    +0.000 A 
ATOM     22  C   UNL     1       3.421   5.035  17.493  0.00  0.00    +0.000 A 
BRANCH  22  23
ATOM     23  S   UNL     1       1.987   4.122  18.044  0.00  0.00    +0.000 S 
ATOM     24  O   UNL     1       1.899   4.299  19.481  0.00  0.00    +0.000 OA
ATOM     25  O   UNL     1       0.896   4.441  17.145  0.00  0.00    +0.000 OA
BRANCH  23  26
ATOM     26  C   UNL     1       2.302   2.323  17.902  0.00  0.00    +0.000 C 
ATOM     27  C   UNL     1       3.405   1.911  18.859  0.00  0.00    +0.000 C 
ATOM     28  C   UNL     1       1.996   1.451  19.087  0.00  0.00    +0.000 C 
ENDBRANCH  23  26
ENDBRANCH  22  23
ENDBRANCH   4  17
TORSDOF 4
ENDMDL
MODEL 7
REMARK VINA RESULT:      -8.4      4.916      8.163
REMARK  Name = 
REMARK  4 active torsions:
REMARK  status: ('A' for Active; 'I' for Inactive)
REMARK    1  A    between atoms: C_5  and  C_6
REMARK    2  A    between atoms: C_9  and  C_10
REMARK    3  A    between atoms: C_15  and  S_16
REMARK    4  A    between atoms: S_16  and  C_19
REMARK                            x       y       z     vdW  Elec       q    Type
REMARK                         _______ _______ _______ _____ _____    ______ ____
ROOT
ATOM      1  C   UNL     1       2.633   7.010  19.314  0.00  0.00    +0.000 A 
ATOM      2  C   UNL     1       1.901   7.543  20.382  0.00  0.00    +0.000 A 
ATOM      3  C   UNL     1       1.046   8.641  20.205  0.00  0.00    +0.000 A 
ATOM      4  C   UNL     1       0.922   9.315  18.973  0.00  0.00    +0.000 A 
ATOM      5  C   UNL     1       1.816   8.901  17.982  0.00  0.00    +0.000 A 
ATOM      6  C   UNL     1       2.609   7.753  18.130  0.00  0.00    +0.000 A 
ATOM      7  F   UNL     1       3.325   7.357  17.066  0.00  0.00    +0.000 F 
ENDROOT
BRANCH   1  12
ATOM      8  N   UNL     1       5.102   2.012  19.766  0.00  0.00    +0.000 N 
ATOM      9  C   UNL     1       4.515   3.255  19.668  0.00  0.00    +0.000 A 
ATOM     10  N   UNL     1       3.199   3.321  19.873  0.00  0.00    +0.000 NA
ATOM     11  C   UNL     1       2.638   4.544  19.754  0.00  0.00    +0.000 A 
ATOM     12  C   UNL     1       3.318   5.713  19.442  0.00  0.00    +0.000 A 
ATOM     13  C   UNL     1       4.667   5.494  19.219  0.00  0.00    +0.000 A 
ATOM     14  N   UNL     1       5.280   4.291  19.324  0.00  0.00    +0.000 NA
ATOM     15  H   UNL     1       4.403   1.300  19.603  0.00  0.00    +0.000 HD
ATOM     16  H   UNL     1       5.930   1.990  19.188  0.00  0.00    +0.000 HD
ENDBRANCH   1  12
BRANCH   4  17
ATOM     17  C   UNL     1      -0.122  10.380  18.803  0.00  0.00    +0.000 A 
ATOM     18  C   UNL     1      -1.394   9.966  18.326  0.00  0.00    +0.000 A 
ATOM     19  C   UNL     1      -2.401  10.863  17.960  0.00  0.00    +0.000 A 
ATOM     20  C   UNL     1      -2.191  12.223  18.094  0.00  0.00    +0.000 A 
ATOM     21  C   UNL     1      -0.978  12.684  18.600  0.00  0.00    +0.000 A 
ATOM     22  C   UNL     1       0.052  11.787  18.956  0.00  0.00    +0.000 A 
BRANCH  22  23
ATOM     23  S   UNL     1       1.578  12.503  19.551  0.00  0.00    +0.000 S 
ATOM     24  O   UNL     1       1.748  12.057  20.920  0.00  0.00    +0.000 OA
ATOM     25  O   UNL     1       2.583  12.298  18.527  0.00  0.00    +0.000 OA
BRANCH  23  26
ATOM     26  C   UNL     1       1.376  14.311  19.763  0.00  0.00    +0.000 C 
ATOM     27  C   UNL     1       2.735  14.974  19.892  0.00  0.00    +0.000 C 
ATOM     28  C   UNL     1       1.887  15.217  18.678  0.00  0.00    +0.000 C 
ENDBRANCH  23  26
ENDBRANCH  22  23
ENDBRANCH   4  17
TORSDOF 4
ENDMDL
MODEL 8
REMARK VINA RESULT:      -8.3      2.409      3.707
REMARK  Name = 
REMARK  4 active torsions:
REMARK  status: ('A' for Active; 'I' for Inactive)
REMARK    1  A    between atoms: C_5  and  C_6
REMARK    2  A    between atoms: C_9  and  C_10
REMARK    3  A    between atoms: C_15  and  S_16
REMARK    4  A    between atoms: S_16  and  C_19
REMARK                            x       y       z     vdW  Elec       q    Type
REMARK                         _______ _______ _______ _____ _____    ______ ____
ROOT
ATOM      1  C   UNL     1       1.115   9.492  19.147  0.00  0.00    +0.000 A 
ATOM      2  C   UNL     1       1.518   9.221  17.833  0.00  0.00    +0.000 A 
ATOM      3  C   UNL     1       2.089   7.989  17.484  0.00  0.00    +0.000 A 
ATOM      4  C   UNL     1       2.356   6.981  18.433  0.00  0.00    +0.000 A 
ATOM      5  C   UNL     1       2.144   7.352  19.763  0.00  0.00    +0.000 A 
ATOM      6  C   UNL     1       1.496   8.549  20.106  0.00  0.00    +0.000 A 
ATOM      7  F   UNL     1       1.207   8.745  21.402  0.00  0.00    +0.000 F 
ENDROOT
BRANCH   1  12
ATOM      8  N   UNL     1      -2.159  13.878  20.296  0.00  0.00    +0.000 N 
ATOM      9  C   UNL     1      -1.332  12.815  20.008  0.00  0.00    +0.000 A 
ATOM     10  N   UNL     1      -1.846  11.829  19.272  0.00  0.00    +0.000 NA
ATOM     11  C   UNL     1      -1.025  10.786  19.017  0.00  0.00    +0.000 A 
ATOM     12  C   UNL     1       0.287  10.670  19.453  0.00  0.00    +0.000 A 
ATOM     13  C   UNL     1       0.678  11.742  20.236  0.00  0.00    +0.000 A 
ATOM     14  N   UNL     1      -0.101  12.812  20.524  0.00  0.00    +0.000 NA
ATOM     15  H   UNL     1      -3.122  13.577  20.232  0.00  0.00    +0.000 HD
ATOM     16  H   UNL     1      -1.863  14.303  21.163  0.00  0.00    +0.000 HD
ENDBRANCH   1  12
BRANCH   4  17
ATOM     17  C   UNL     1       2.822   5.628  17.979  0.00  0.00    +0.000 A 
ATOM     18  C   UNL     1       1.967   4.527  18.252  0.00  0.00    +0.000 A 
ATOM     19  C   UNL     1       2.344   3.198  18.042  0.00  0.00    +0.000 A 
ATOM     20  C   UNL     1       3.587   2.912  17.509  0.00  0.00    +0.000 A 
ATOM     21  C   UNL     1       4.450   3.956  17.181  0.00  0.00    +0.000 A 
ATOM     22  C   UNL     1       4.086   5.301  17.405  0.00  0.00    +0.000 A 
BRANCH  22  23
ATOM     23  S   UNL     1       5.296   6.547  16.983  0.00  0.00    +0.000 S 
ATOM     24  O   UNL     1       5.263   6.696  15.541  0.00  0.00    +0.000 OA
ATOM     25  O   UNL     1       5.110   7.660  17.892  0.00  0.00    +0.000 OA
BRANCH  23  26
ATOM     26  C   UNL     1       6.985   5.894  17.259  0.00  0.00    +0.000 C 
ATOM     27  C   UNL     1       7.823   6.917  18.003  0.00  0.00    +0.000 C 
ATOM     28  C   UNL     1       7.426   5.634  18.672  0.00  0.00    +0.000 C 
ENDBRANCH  23  26
ENDBRANCH  22  23
ENDBRANCH   4  17
TORSDOF 4
ENDMDL
MODEL 9
REMARK VINA RESULT:      -8.3      4.801      7.636
REMARK  Name = 
REMARK  4 active torsions:
REMARK  status: ('A' for Active; 'I' for Inactive)
REMARK    1  A    between atoms: C_5  and  C_6
REMARK    2  A    between atoms: C_9  and  C_10
REMARK    3  A    between atoms: C_15  and  S_16
REMARK    4  A    between atoms: S_16  and  C_19
REMARK                            x       y       z     vdW  Elec       q    Type
REMARK                         _______ _______ _______ _____ _____    ______ ____
ROOT
ATOM      1  C   UNL     1       2.354   7.174  19.006  0.00  0.00    +0.000 A 
ATOM      2  C   UNL     1       2.366   7.835  17.772  0.00  0.00    +0.000 A 
ATOM      3  C   UNL     1       1.979   9.179  17.660  0.00  0.00    +0.000 A 
ATOM      4  C   UNL     1       1.494   9.922  18.756  0.00  0.00    +0.000 A 
ATOM      5  C   UNL     1       1.291   9.185  19.925  0.00  0.00    +0.000 A 
ATOM      6  C   UNL     1       1.754   7.867  20.062  0.00  0.00    +0.000 A 
ATOM      7  F   UNL     1       1.642   7.296  21.271  0.00  0.00    +0.000 F 
ENDROOT
BRANCH   1  12
ATOM      8  N   UNL     1       4.938   2.257  19.657  0.00  0.00    +0.000 N 
ATOM      9  C   UNL     1       4.284   3.456  19.481  0.00  0.00    +0.000 A 
ATOM     10  N   UNL     1       5.040   4.538  19.295  0.00  0.00    +0.000 NA
ATOM     11  C   UNL     1       4.380   5.708  19.143  0.00  0.00    +0.000 A 
ATOM     12  C   UNL     1       3.001   5.861  19.163  0.00  0.00    +0.000 A 
ATOM     13  C   UNL     1       2.342   4.666  19.402  0.00  0.00    +0.000 A 
ATOM     14  N   UNL     1       2.952   3.468  19.561  0.00  0.00    +0.000 NA
ATOM     15  H   UNL     1       5.875   2.436  19.995  0.00  0.00    +0.000 HD
ATOM     16  H   UNL     1       4.358   1.639  20.207  0.00  0.00    +0.000 HD
ENDBRANCH   1  12
BRANCH   4  17
ATOM     17  C   UNL     1       1.244  11.395  18.611  0.00  0.00    +0.000 A 
ATOM     18  C   UNL     1       2.381  12.226  18.422  0.00  0.00    +0.000 A 
ATOM     19  C   UNL     1       2.318  13.621  18.444  0.00  0.00    +0.000 A 
ATOM     20  C   UNL     1       1.100  14.252  18.616  0.00  0.00    +0.000 A 
ATOM     21  C   UNL     1      -0.055  13.486  18.761  0.00  0.00    +0.000 A 
ATOM     22  C   UNL     1       0.000  12.075  18.759  0.00  0.00    +0.000 A 
BRANCH  22  23
ATOM     23  S   UNL     1      -1.543  11.206  18.998  0.00  0.00    +0.000 S 
ATOM     24  O   UNL     1      -1.384  10.381  20.180  0.00  0.00    +0.000 OA
ATOM     25  O   UNL     1      -2.614  12.171  18.853  0.00  0.00    +0.000 OA
BRANCH  23  26
ATOM     26  C   UNL     1      -1.760   9.949  17.684  0.00  0.00    +0.000 C 
ATOM     27  C   UNL     1      -3.236   9.664  17.475  0.00  0.00    +0.000 C 
ATOM     28  C   UNL     1      -2.442  10.361  16.410  0.00  0.00    +0.000 C 
ENDBRANCH  23  26
ENDBRANCH  22  23
ENDBRANCH   4  17
TORSDOF 4
ENDMDL
