MODEL 1
REMARK VINA RESULT:      -8.5      0.000      0.000
REMARK  Name = 
REMARK  4 active torsions:
REMARK  status: ('A' for Active; 'I' for Inactive)
REMARK    1  A    between atoms: C_1  and  O_2
REMARK    2  A    between atoms: O_2  and  C_3
REMARK    3  A    between atoms: C_12  and  C_13
REMARK    4  A    between atoms: N_15  and  C_16
REMARK                            x       y       z     vdW  Elec       q    Type
REMARK                         _______ _______ _______ _____ _____    ______ ____
ROOT
ATOM      1  C   UNL     1      -1.370  11.613  22.873  0.00  0.00    +0.000 A 
ATOM      2  C   UNL     1      -0.889  10.322  23.113  0.00  0.00    +0.000 A 
ATOM      3  C   UNL     1      -0.138   9.646  22.140  0.00  0.00    +0.000 A 
ATOM      4  C   UNL     1       0.127  10.273  20.921  0.00  0.00    +0.000 A 
ATOM      5  C   UNL     1      -0.371  11.563  20.664  0.00  0.00    +0.000 A 
ATOM      6  C   UNL     1      -0.092  12.213  19.378  0.00  0.00    +0.000 A 
ATOM      7  C   UNL     1       0.649  11.596  18.446  0.00  0.00    +0.000 A 
ATOM      8  C   UNL     1       1.171  10.301  18.685  0.00  0.00    +0.000 A 
ATOM      9  C   UNL     1       1.946   9.458  17.918  0.00  0.00    +0.000 A 
ATOM     10  C   UNL     1       2.167   8.252  18.649  0.00  0.00    +0.000 A 
ATOM     11  C   UNL     1       1.506   8.428  19.863  0.00  0.00    +0.000 A 
ATOM     12  N   UNL     1       0.901   9.669  19.890  0.00  0.00    +0.000 N 
ATOM     13  C   UNL     1      -1.127  12.221  21.640  0.00  0.00    +0.000 A 
ENDROOT
BRANCH  10  14
ATOM     14  C   UNL     1       2.908   7.042  18.260  0.00  0.00    +0.000 C 
ATOM     15  O   UNL     1       3.826   7.064  17.445  0.00  0.00    +0.000 OA
ATOM     16  N   UNL     1       2.490   5.878  18.880  0.00  0.00    +0.000 N 
ATOM     17  H   UNL     1       1.622   5.909  19.391  0.00  0.00    +0.000 HD
BRANCH  16  18
ATOM     18  C   UNL     1       3.027   4.560  18.543  0.00  0.00    +0.000 C 
ATOM     19  C   UNL     1       3.696   3.815  19.734  0.00  0.00    +0.000 C 
ATOM     20  N   UNL     1       3.194   2.420  19.885  0.00  0.00    +0.000 NA
ATOM     21  C   UNL     1       1.752   2.479  20.199  0.00  0.00    +0.000 C 
ATOM     22  C   UNL     1       0.965   3.218  19.106  0.00  0.00    +0.000 C 
ATOM     23  C   UNL     1       1.920   3.637  17.970  0.00  0.00    +0.000 C 
ATOM     24  C   UNL     1       2.597   2.354  17.460  0.00  0.00    +0.000 C 
ATOM     25  C   UNL     1       3.376   1.693  18.610  0.00  0.00    +0.000 C 
ENDBRANCH  16  18
ENDBRANCH  10  14
BRANCH   1  27
ATOM     26  C   UNL     1      -3.492  12.488  23.436  0.00  0.00    +0.000 C 
ATOM     27  O   UNL     1      -2.110  12.357  23.753  0.00  0.00    +0.000 OA
ENDBRANCH   1  27
TORSDOF 3
ENDMDL
MODEL 2
REMARK VINA RESULT:      -8.2      2.252      9.045
REMARK  Name = 
REMARK  4 active torsions:
REMARK  status: ('A' for Active; 'I' for Inactive)
REMARK    1  A    between atoms: C_1  and  O_2
REMARK    2  A    between atoms: O_2  and  C_3
REMARK    3  A    between atoms: C_12  and  C_13
REMARK    4  A    between atoms: N_15  and  C_16
REMARK                            x       y       z     vdW  Elec       q    Type
REMARK                         _______ _______ _______ _____ _____    ______ ____
ROOT
ATOM      1  C   UNL     1       3.350   4.653  18.653  0.00  0.00    +0.000 A 
ATOM      2  C   UNL     1       2.902   4.674  19.978  0.00  0.00    +0.000 A 
ATOM      3  C   UNL     1       2.308   5.825  20.514  0.00  0.00    +0.000 A 
ATOM      4  C   UNL     1       2.165   6.960  19.712  0.00  0.00    +0.000 A 
ATOM      5  C   UNL     1       2.633   6.954  18.385  0.00  0.00    +0.000 A 
ATOM      6  C   UNL     1       2.484   8.152  17.552  0.00  0.00    +0.000 A 
ATOM      7  C   UNL     1       1.890   9.253  18.035  0.00  0.00    +0.000 A 
ATOM      8  C   UNL     1       1.402   9.281  19.365  0.00  0.00    +0.000 A 
ATOM      9  C   UNL     1       0.765  10.259  20.098  0.00  0.00    +0.000 A 
ATOM     10  C   UNL     1       0.511   9.752  21.408  0.00  0.00    +0.000 A 
ATOM     11  C   UNL     1       1.010   8.451  21.405  0.00  0.00    +0.000 A 
ATOM     12  N   UNL     1       1.551   8.160  20.168  0.00  0.00    +0.000 N 
ATOM     13  C   UNL     1       3.233   5.802  17.868  0.00  0.00    +0.000 A 
ENDROOT
BRANCH  10  14
ATOM     14  C   UNL     1      -0.122  10.410  22.562  0.00  0.00    +0.000 C 
ATOM     15  O   UNL     1      -0.019   9.978  23.706  0.00  0.00    +0.000 OA
ATOM     16  N   UNL     1      -0.846  11.549  22.258  0.00  0.00    +0.000 N 
ATOM     17  H   UNL     1      -1.036  11.735  21.286  0.00  0.00    +0.000 HD
BRANCH  16  18
ATOM     18  C   UNL     1      -1.637  12.277  23.249  0.00  0.00    +0.000 C 
ATOM     19  C   UNL     1      -1.247  13.774  23.410  0.00  0.00    +0.000 C 
ATOM     20  N   UNL     1      -2.428  14.680  23.334  0.00  0.00    +0.000 NA
ATOM     21  C   UNL     1      -3.021  14.555  21.987  0.00  0.00    +0.000 C 
ATOM     22  C   UNL     1      -3.433  13.106  21.683  0.00  0.00    +0.000 C 
ATOM     23  C   UNL     1      -3.149  12.216  22.909  0.00  0.00    +0.000 C 
ATOM     24  C   UNL     1      -3.920  12.826  24.092  0.00  0.00    +0.000 C 
ATOM     25  C   UNL     1      -3.431  14.263  24.337  0.00  0.00    +0.000 C 
ENDBRANCH  16  18
ENDBRANCH  10  14
BRANCH   1  27
ATOM     26  C   UNL     1       4.573   3.865  16.790  0.00  0.00    +0.000 C 
ATOM     27  O   UNL     1       3.943   3.585  18.036  0.00  0.00    +0.000 OA
ENDBRANCH   1  27
TORSDOF 3
ENDMDL
MODEL 3
REMARK VINA RESULT:      -8.1      1.277      2.387
REMARK  Name = 
REMARK  4 active torsions:
REMARK  status: ('A' for Active; 'I' for Inactive)
REMARK    1  A    between atoms: C_1  and  O_2
REMARK    2  A    between atoms: O_2  and  C_3
REMARK    3  A    between atoms: C_12  and  C_13
REMARK    4  A    between atoms: N_15  and  C_16
REMARK                            x       y       z     vdW  Elec       q    Type
REMARK                         _______ _______ _______ _____ _____    ______ ____
ROOT
ATOM      1  C   UNL     1      -1.811  13.680  20.913  0.00  0.00    +0.000 A 
ATOM      2  C   UNL     1      -1.172  13.332  19.719  0.00  0.00    +0.000 A 
ATOM      3  C   UNL     1      -0.457  12.130  19.615  0.00  0.00    +0.000 A 
ATOM      4  C   UNL     1      -0.384  11.278  20.719  0.00  0.00    +0.000 A 
ATOM      5  C   UNL     1      -1.006  11.632  21.930  0.00  0.00    +0.000 A 
ATOM      6  C   UNL     1      -0.920  10.733  23.087  0.00  0.00    +0.000 A 
ATOM      7  C   UNL     1      -0.267   9.565  22.999  0.00  0.00    +0.000 A 
ATOM      8  C   UNL     1       0.359   9.181  21.788  0.00  0.00    +0.000 A 
ATOM      9  C   UNL     1       1.079   8.061  21.431  0.00  0.00    +0.000 A 
ATOM     10  C   UNL     1       1.500   8.205  20.074  0.00  0.00    +0.000 A 
ATOM     11  C   UNL     1       0.992   9.433  19.656  0.00  0.00    +0.000 A 
ATOM     12  N   UNL     1       0.299  10.029  20.692  0.00  0.00    +0.000 N 
ATOM     13  C   UNL     1      -1.707  12.838  22.022  0.00  0.00    +0.000 A 
ENDROOT
BRANCH  10  14
ATOM     14  C   UNL     1       2.306   7.298  19.241  0.00  0.00    +0.000 C 
ATOM     15  O   UNL     1       2.914   7.682  18.247  0.00  0.00    +0.000 OA
ATOM     16  N   UNL     1       2.323   5.980  19.662  0.00  0.00    +0.000 N 
ATOM     17  H   UNL     1       1.660   5.710  20.371  0.00  0.00    +0.000 HD
BRANCH  16  18
ATOM     18  C   UNL     1       2.975   4.912  18.906  0.00  0.00    +0.000 C 
ATOM     19  C   UNL     1       3.686   3.844  19.785  0.00  0.00    +0.000 C 
ATOM     20  N   UNL     1       3.301   2.453  19.410  0.00  0.00    +0.000 NA
ATOM     21  C   UNL     1       1.855   2.290  19.661  0.00  0.00    +0.000 C 
ATOM     22  C   UNL     1       1.025   3.310  18.867  0.00  0.00    +0.000 C 
ATOM     23  C   UNL     1       1.958   4.175  17.995  0.00  0.00    +0.000 C 
ATOM     24  C   UNL     1       2.749   3.211  17.095  0.00  0.00    +0.000 C 
ATOM     25  C   UNL     1       3.563   2.243  17.970  0.00  0.00    +0.000 C 
ENDBRANCH  16  18
ENDBRANCH  10  14
BRANCH   1  27
ATOM     26  C   UNL     1      -2.795  15.151  22.480  0.00  0.00    +0.000 C 
ATOM     27  O   UNL     1      -2.532  14.826  21.119  0.00  0.00    +0.000 OA
ENDBRANCH   1  27
TORSDOF 3
ENDMDL
MODEL 4
REMARK VINA RESULT:      -8.0      2.483      9.010
REMARK  Name = 
REMARK  4 active torsions:
REMARK  status: ('A' for Active; 'I' for Inactive)
REMARK    1  A    between atoms: C_1  and  O_2
REMARK    2  A    between atoms: O_2  and  C_3
REMARK    3  A    between atoms: C_12  and  C_13
REMARK    4  A    between atoms: N_15  and  C_16
REMARK                            x       y       z     vdW  Elec       q    Type
REMARK                         _______ _______ _______ _____ _____    ______ ____
ROOT
ATOM      1  C   UNL     1       5.336   4.540  15.922  0.00  0.00    +0.000 A 
ATOM      2  C   UNL     1       5.180   5.928  15.981  0.00  0.00    +0.000 A 
ATOM      3  C   UNL     1       4.363   6.515  16.959  0.00  0.00    +0.000 A 
ATOM      4  C   UNL     1       3.701   5.699  17.878  0.00  0.00    +0.000 A 
ATOM      5  C   UNL     1       3.835   4.300  17.811  0.00  0.00    +0.000 A 
ATOM      6  C   UNL     1       3.132   3.450  18.778  0.00  0.00    +0.000 A 
ATOM      7  C   UNL     1       2.370   3.992  19.739  0.00  0.00    +0.000 A 
ATOM      8  C   UNL     1       2.227   5.398  19.834  0.00  0.00    +0.000 A 
ATOM      9  C   UNL     1       1.522   6.201  20.705  0.00  0.00    +0.000 A 
ATOM     10  C   UNL     1       1.716   7.563  20.326  0.00  0.00    +0.000 A 
ATOM     11  C   UNL     1       2.561   7.523  19.219  0.00  0.00    +0.000 A 
ATOM     12  N   UNL     1       2.873   6.212  18.917  0.00  0.00    +0.000 N 
ATOM     13  C   UNL     1       4.645   3.729  16.824  0.00  0.00    +0.000 A 
ENDROOT
BRANCH  10  14
ATOM     14  C   UNL     1       1.164   8.790  20.921  0.00  0.00    +0.000 C 
ATOM     15  O   UNL     1       0.857   8.868  22.107  0.00  0.00    +0.000 OA
ATOM     16  N   UNL     1       1.012   9.848  20.041  0.00  0.00    +0.000 N 
ATOM     17  H   UNL     1       1.112   9.653  19.058  0.00  0.00    +0.000 HD
BRANCH  16  18
ATOM     18  C   UNL     1       0.378  11.111  20.417  0.00  0.00    +0.000 C 
ATOM     19  C   UNL     1       0.834  12.335  19.573  0.00  0.00    +0.000 C 
ATOM     20  N   UNL     1      -0.317  13.118  19.040  0.00  0.00    +0.000 NA
ATOM     21  C   UNL     1      -1.081  12.250  18.121  0.00  0.00    +0.000 C 
ATOM     22  C   UNL     1      -1.575  10.977  18.826  0.00  0.00    +0.000 C 
ATOM     23  C   UNL     1      -1.165  11.012  20.312  0.00  0.00    +0.000 C 
ATOM     24  C   UNL     1      -1.760  12.299  20.908  0.00  0.00    +0.000 C 
ATOM     25  C   UNL     1      -1.197  13.518  20.159  0.00  0.00    +0.000 C 
ENDBRANCH  16  18
ENDBRANCH  10  14
BRANCH   1  27
ATOM     26  C   UNL     1       6.879   4.687  14.136  0.00  0.00    +0.000 C 
ATOM     27  O   UNL     1       6.107   3.869  15.010  0.00  0.00    +0.000 OA
ENDBRANCH   1  27
TORSDOF 3
ENDMDL
MODEL 5
REMARK VINA RESULT:      -7.9      1.877      3.019
REMARK  Name = 
REMARK  4 active torsions:
REMARK  status: ('A' for Active; 'I' for Inactive)
REMARK    1  A    between atoms: C_1  and  O_2
REMARK    2  A    between atoms: O_2  and  C_3
REMARK    3  A    between atoms: C_12  and  C_13
REMARK    4  A    between atoms: N_15  and  C_16
REMARK                            x       y       z     vdW  Elec       q    Type
REMARK                         _______ _______ _______ _____ _____    ______ ____
ROOT
ATOM      1  C   UNL     1      -2.517  13.369  21.770  0.00  0.00    +0.000 A 
ATOM      2  C   UNL     1      -2.071  13.318  20.445  0.00  0.00    +0.000 A 
ATOM      3  C   UNL     1      -1.201  12.303  20.022  0.00  0.00    +0.000 A 
ATOM      4  C   UNL     1      -0.778  11.337  20.938  0.00  0.00    +0.000 A 
ATOM      5  C   UNL     1      -1.204  11.394  22.277  0.00  0.00    +0.000 A 
ATOM      6  C   UNL     1      -0.751  10.378  23.234  0.00  0.00    +0.000 A 
ATOM      7  C   UNL     1       0.057   9.382  22.843  0.00  0.00    +0.000 A 
ATOM      8  C   UNL     1       0.493   9.296  21.497  0.00  0.00    +0.000 A 
ATOM      9  C   UNL     1       1.306   8.397  20.841  0.00  0.00    +0.000 A 
ATOM     10  C   UNL     1       1.428   8.804  19.479  0.00  0.00    +0.000 A 
ATOM     11  C   UNL     1       0.653   9.956  19.365  0.00  0.00    +0.000 A 
ATOM     12  N   UNL     1       0.084  10.259  20.587  0.00  0.00    +0.000 N 
ATOM     13  C   UNL     1      -2.064  12.418  22.687  0.00  0.00    +0.000 A 
ENDROOT
BRANCH  10  14
ATOM     14  C   UNL     1       2.197   8.194  18.383  0.00  0.00    +0.000 C 
ATOM     15  O   UNL     1       2.293   8.714  17.275  0.00  0.00    +0.000 OA
ATOM     16  N   UNL     1       2.799   6.987  18.695  0.00  0.00    +0.000 N 
ATOM     17  H   UNL     1       2.526   6.540  19.555  0.00  0.00    +0.000 HD
BRANCH  16  18
ATOM     18  C   UNL     1       3.512   6.176  17.709  0.00  0.00    +0.000 C 
ATOM     19  C   UNL     1       5.005   6.565  17.515  0.00  0.00    +0.000 C 
ATOM     20  N   UNL     1       5.914   5.386  17.601  0.00  0.00    +0.000 NA
ATOM     21  C   UNL     1       5.813   4.823  18.963  0.00  0.00    +0.000 C 
ATOM     22  C   UNL     1       4.371   4.416  19.300  0.00  0.00    +0.000 C 
ATOM     23  C   UNL     1       3.459   4.672  18.084  0.00  0.00    +0.000 C 
ATOM     24  C   UNL     1       4.050   3.875  16.908  0.00  0.00    +0.000 C 
ATOM     25  C   UNL     1       5.482   4.361  16.628  0.00  0.00    +0.000 C 
ENDBRANCH  16  18
ENDBRANCH  10  14
BRANCH   1  27
ATOM     26  C   UNL     1      -2.735  15.447  22.874  0.00  0.00    +0.000 C 
ATOM     27  O   UNL     1      -3.364  14.314  22.283  0.00  0.00    +0.000 OA
ENDBRANCH   1  27
TORSDOF 3
ENDMDL
MODEL 6
REMARK VINA RESULT:      -7.8      1.505      2.572
REMARK  Name = 
REMARK  4 active torsions:
REMARK  status: ('A' for Active; 'I' for Inactive)
REMARK    1  A    between atoms: C_1  and  O_2
REMARK    2  A    between atoms: O_2  and  C_3
REMARK    3  A    between atoms: C_12  and  C_13
REMARK    4  A    between atoms: N_15  and  C_16
REMARK                            x       y       z     vdW  Elec       q    Type
REMARK                         _______ _______ _______ _____ _____    ______ ____
ROOT
ATOM      1  C   UNL     1      -2.409  13.483  21.557  0.00  0.00    +0.000 A 
ATOM      2  C   UNL     1      -1.840  13.350  20.286  0.00  0.00    +0.000 A 
ATOM      3  C   UNL     1      -1.001  12.266  19.989  0.00  0.00    +0.000 A 
ATOM      4  C   UNL     1      -0.734  11.315  20.976  0.00  0.00    +0.000 A 
ATOM      5  C   UNL     1      -1.284  11.454  22.263  0.00  0.00    +0.000 A 
ATOM      6  C   UNL     1      -0.993  10.454  23.295  0.00  0.00    +0.000 A 
ATOM      7  C   UNL     1      -0.218   9.394  23.023  0.00  0.00    +0.000 A 
ATOM      8  C   UNL     1       0.340   9.226  21.731  0.00  0.00    +0.000 A 
ATOM      9  C   UNL     1       1.153   8.251  21.193  0.00  0.00    +0.000 A 
ATOM     10  C   UNL     1       1.433   8.592  19.835  0.00  0.00    +0.000 A 
ATOM     11  C   UNL     1       0.751   9.785  19.604  0.00  0.00    +0.000 A 
ATOM     12  N   UNL     1       0.086  10.173  20.751  0.00  0.00    +0.000 N 
ATOM     13  C   UNL     1      -2.111  12.546  22.548  0.00  0.00    +0.000 A 
ENDROOT
BRANCH  10  14
ATOM     14  C   UNL     1       2.264   7.891  18.844  0.00  0.00    +0.000 C 
ATOM     15  O   UNL     1       2.413   8.303  17.698  0.00  0.00    +0.000 OA
ATOM     16  N   UNL     1       2.861   6.729  19.302  0.00  0.00    +0.000 N 
ATOM     17  H   UNL     1       2.548   6.362  20.186  0.00  0.00    +0.000 HD
BRANCH  16  18
ATOM     18  C   UNL     1       3.631   5.836  18.436  0.00  0.00    +0.000 C 
ATOM     19  C   UNL     1       4.951   5.309  19.069  0.00  0.00    +0.000 C 
ATOM     20  N   UNL     1       5.080   3.828  18.958  0.00  0.00    +0.000 NA
ATOM     21  C   UNL     1       3.983   3.208  19.727  0.00  0.00    +0.000 C 
ATOM     22  C   UNL     1       2.607   3.667  19.220  0.00  0.00    +0.000 C 
ATOM     23  C   UNL     1       2.786   4.608  18.011  0.00  0.00    +0.000 C 
ATOM     24  C   UNL     1       3.589   3.830  16.955  0.00  0.00    +0.000 C 
ATOM     25  C   UNL     1       4.953   3.430  17.540  0.00  0.00    +0.000 C 
ENDBRANCH  16  18
ENDBRANCH  10  14
BRANCH   1  27
ATOM     26  C   UNL     1      -4.404  14.103  22.662  0.00  0.00    +0.000 C 
ATOM     27  O   UNL     1      -3.238  14.500  21.949  0.00  0.00    +0.000 OA
ENDBRANCH   1  27
TORSDOF 3
ENDMDL
MODEL 7
REMARK VINA RESULT:      -7.7      2.331      3.173
REMARK  Name = 
REMARK  4 active torsions:
REMARK  status: ('A' for Active; 'I' for Inactive)
REMARK    1  A    between atoms: C_1  and  O_2
REMARK    2  A    between atoms: O_2  and  C_3
REMARK    3  A    between atoms: C_12  and  C_13
REMARK    4  A    between atoms: N_15  and  C_16
REMARK                            x       y       z     vdW  Elec       q    Type
REMARK                         _______ _______ _______ _____ _____    ______ ____
ROOT
ATOM      1  C   UNL     1      -1.317  11.746  22.840  0.00  0.00    +0.000 A 
ATOM      2  C   UNL     1      -0.910  10.436  23.112  0.00  0.00    +0.000 A 
ATOM      3  C   UNL     1      -0.176   9.705  22.167  0.00  0.00    +0.000 A 
ATOM      4  C   UNL     1       0.148  10.296  20.944  0.00  0.00    +0.000 A 
ATOM      5  C   UNL     1      -0.276  11.605  20.654  0.00  0.00    +0.000 A 
ATOM      6  C   UNL     1       0.064  12.217  19.365  0.00  0.00    +0.000 A 
ATOM      7  C   UNL     1       0.791  11.546  18.460  0.00  0.00    +0.000 A 
ATOM      8  C   UNL     1       1.239  10.229  18.731  0.00  0.00    +0.000 A 
ATOM      9  C   UNL     1       1.985   9.334  17.995  0.00  0.00    +0.000 A 
ATOM     10  C   UNL     1       2.126   8.131  18.750  0.00  0.00    +0.000 A 
ATOM     11  C   UNL     1       1.450   8.363  19.946  0.00  0.00    +0.000 A 
ATOM     12  N   UNL     1       0.910   9.634  19.940  0.00  0.00    +0.000 N 
ATOM     13  C   UNL     1      -1.017  12.319  21.602  0.00  0.00    +0.000 A 
ENDROOT
BRANCH  10  14
ATOM     14  C   UNL     1       2.810   6.877  18.398  0.00  0.00    +0.000 C 
ATOM     15  O   UNL     1       2.462   5.788  18.843  0.00  0.00    +0.000 OA
ATOM     16  N   UNL     1       3.880   7.020  17.531  0.00  0.00    +0.000 N 
ATOM     17  H   UNL     1       4.215   7.954  17.357  0.00  0.00    +0.000 HD
BRANCH  16  18
ATOM     18  C   UNL     1       4.751   5.909  17.153  0.00  0.00    +0.000 C 
ATOM     19  C   UNL     1       5.486   6.101  15.795  0.00  0.00    +0.000 C 
ATOM     20  N   UNL     1       6.951   5.849  15.902  0.00  0.00    +0.000 NA
ATOM     21  C   UNL     1       7.527   6.849  16.823  0.00  0.00    +0.000 C 
ATOM     22  C   UNL     1       6.868   6.787  18.209  0.00  0.00    +0.000 C 
ATOM     23  C   UNL     1       5.827   5.651  18.240  0.00  0.00    +0.000 C 
ATOM     24  C   UNL     1       6.568   4.355  17.867  0.00  0.00    +0.000 C 
ATOM     25  C   UNL     1       7.176   4.499  16.462  0.00  0.00    +0.000 C 
ENDBRANCH  16  18
ENDBRANCH  10  14
BRANCH   1  27
ATOM     26  C   UNL     1      -3.451  12.416  23.605  0.00  0.00    +0.000 C 
ATOM     27  O   UNL     1      -2.035  12.544  23.691  0.00  0.00    +0.000 OA
ENDBRANCH   1  27
TORSDOF 3
ENDMDL
MODEL 8
REMARK VINA RESULT:      -7.7      2.996      3.521
REMARK  Name = 
REMARK  4 active torsions:
REMARK  status: ('A' for Active; 'I' for Inactive)
REMARK    1  A    between atoms: C_1  and  O_2
REMARK    2  A    between atoms: O_2  and  C_3
REMARK    3  A    between atoms: C_12  and  C_13
REMARK    4  A    between atoms: N_15  and  C_16
REMARK                            x       y       z     vdW  Elec       q    Type
REMARK                         _______ _______ _______ _____ _____    ______ ____
ROOT
ATOM      1  C   UNL     1      -4.839  11.754  17.664  0.00  0.00    +0.000 A 
ATOM      2  C   UNL     1      -4.263  10.833  16.784  0.00  0.00    +0.000 A 
ATOM      3  C   UNL     1      -2.973  10.333  17.015  0.00  0.00    +0.000 A 
ATOM      4  C   UNL     1      -2.262  10.764  18.137  0.00  0.00    +0.000 A 
ATOM      5  C   UNL     1      -2.825  11.707  19.015  0.00  0.00    +0.000 A 
ATOM      6  C   UNL     1      -2.069  12.158  20.188  0.00  0.00    +0.000 A 
ATOM      7  C   UNL     1      -0.846  11.670  20.444  0.00  0.00    +0.000 A 
ATOM      8  C   UNL     1      -0.261  10.712  19.580  0.00  0.00    +0.000 A 
ATOM      9  C   UNL     1       0.953  10.059  19.607  0.00  0.00    +0.000 A 
ATOM     10  C   UNL     1       1.036   9.206  18.466  0.00  0.00    +0.000 A 
ATOM     11  C   UNL     1      -0.169   9.377  17.787  0.00  0.00    +0.000 A 
ATOM     12  N   UNL     1      -0.959  10.289  18.459  0.00  0.00    +0.000 N 
ATOM     13  C   UNL     1      -4.109  12.204  18.766  0.00  0.00    +0.000 A 
ENDROOT
BRANCH  10  14
ATOM     14  C   UNL     1       2.129   8.322  18.033  0.00  0.00    +0.000 C 
ATOM     15  O   UNL     1       2.935   8.645  17.165  0.00  0.00    +0.000 OA
ATOM     16  N   UNL     1       2.178   7.097  18.675  0.00  0.00    +0.000 N 
ATOM     17  H   UNL     1       1.384   6.834  19.237  0.00  0.00    +0.000 HD
BRANCH  16  18
ATOM     18  C   UNL     1       3.121   6.042  18.306  0.00  0.00    +0.000 C 
ATOM     19  C   UNL     1       4.043   5.569  19.466  0.00  0.00    +0.000 C 
ATOM     20  N   UNL     1       4.052   4.086  19.615  0.00  0.00    +0.000 NA
ATOM     21  C   UNL     1       2.688   3.649  19.974  0.00  0.00    +0.000 C 
ATOM     22  C   UNL     1       1.660   4.077  18.915  0.00  0.00    +0.000 C 
ATOM     23  C   UNL     1       2.376   4.798  17.755  0.00  0.00    +0.000 C 
ATOM     24  C   UNL     1       3.434   3.823  17.209  0.00  0.00    +0.000 C 
ATOM     25  C   UNL     1       4.428   3.466  18.326  0.00  0.00    +0.000 C 
ENDBRANCH  16  18
ENDBRANCH  10  14
BRANCH   1  27
ATOM     26  C   UNL     1      -7.102  11.728  18.347  0.00  0.00    +0.000 C 
ATOM     27  O   UNL     1      -6.087  12.302  17.531  0.00  0.00    +0.000 OA
ENDBRANCH   1  27
TORSDOF 3
ENDMDL
MODEL 9
REMARK VINA RESULT:      -7.5      2.462      9.099
REMARK  Name = 
REMARK  4 active torsions:
REMARK  status: ('A' for Active; 'I' for Inactive)
REMARK    1  A    between atoms: C_1  and  O_2
REMARK    2  A    between atoms: O_2  and  C_3
REMARK    3  A    between atoms: C_12  and  C_13
REMARK    4  A    between atoms: N_15  and  C_16
REMARK                            x       y       z     vdW  Elec       q    Type
REMARK                         _______ _______ _______ _____ _____    ______ ____
ROOT
ATOM      1  C   UNL     1       5.175   4.461  16.544  0.00  0.00    +0.000 A 
ATOM      2  C   UNL     1       4.946   5.820  16.306  0.00  0.00    +0.000 A 
ATOM      3  C   UNL     1       4.105   6.562  17.150  0.00  0.00    +0.000 A 
ATOM      4  C   UNL     1       3.495   5.931  18.235  0.00  0.00    +0.000 A 
ATOM      5  C   UNL     1       3.703   4.560  18.469  0.00  0.00    +0.000 A 
ATOM      6  C   UNL     1       3.053   3.904  19.609  0.00  0.00    +0.000 A 
ATOM      7  C   UNL     1       2.271   4.601  20.445  0.00  0.00    +0.000 A 
ATOM      8  C   UNL     1       2.053   5.985  20.237  0.00  0.00    +0.000 A 
ATOM      9  C   UNL     1       1.312   6.921  20.928  0.00  0.00    +0.000 A 
ATOM     10  C   UNL     1       1.430   8.177  20.261  0.00  0.00    +0.000 A 
ATOM     11  C   UNL     1       2.267   7.942  19.173  0.00  0.00    +0.000 A 
ATOM     12  N   UNL     1       2.648   6.614  19.154  0.00  0.00    +0.000 N 
ATOM     13  C   UNL     1       4.535   3.831  17.613  0.00  0.00    +0.000 A 
ENDROOT
BRANCH  10  14
ATOM     14  C   UNL     1       0.817   9.474  20.588  0.00  0.00    +0.000 C 
ATOM     15  O   UNL     1       0.038   9.618  21.526  0.00  0.00    +0.000 OA
ATOM     16  N   UNL     1       1.181  10.517  19.755  0.00  0.00    +0.000 N 
ATOM     17  H   UNL     1       1.673  10.286  18.907  0.00  0.00    +0.000 HD
BRANCH  16  18
ATOM     18  C   UNL     1       0.594  11.853  19.850  0.00  0.00    +0.000 C 
ATOM     19  C   UNL     1       1.250  12.769  20.923  0.00  0.00    +0.000 C 
ATOM     20  N   UNL     1       1.619  14.106  20.378  0.00  0.00    +0.000 NA
ATOM     21  C   UNL     1       2.639  13.913  19.327  0.00  0.00    +0.000 C 
ATOM     22  C   UNL     1       2.127  12.997  18.205  0.00  0.00    +0.000 C 
ATOM     23  C   UNL     1       0.667  12.591  18.488  0.00  0.00    +0.000 C 
ATOM     24  C   UNL     1      -0.140  13.894  18.618  0.00  0.00    +0.000 C 
ATOM     25  C   UNL     1       0.425  14.736  19.774  0.00  0.00    +0.000 C 
ENDBRANCH  16  18
ENDBRANCH  10  14
BRANCH   1  27
ATOM     26  C   UNL     1       6.324   4.158  14.501  0.00  0.00    +0.000 C 
ATOM     27  O   UNL     1       5.974   3.650  15.784  0.00  0.00    +0.000 OA
ENDBRANCH   1  27
TORSDOF 3
ENDMDL
