MODEL 1
REMARK VINA RESULT:      -7.4      0.000      0.000
REMARK  Name = 
REMARK  3 active torsions:
REMARK  status: ('A' for Active; 'I' for Inactive)
REMARK    1  A    between atoms: C_2  and  C_15
REMARK    2  A    between atoms: N_3  and  S_4
REMARK    3  A    between atoms: S_4  and  C_7
REMARK                            x       y       z     vdW  Elec       q    Type
REMARK                         _______ _______ _______ _____ _____    ______ ____
ROOT
ATOM      1  O   UNL     1       4.421   3.240  18.019  0.00  0.00    +0.000 OA
ATOM      2  C   UNL     1       4.531   4.341  17.502  0.00  0.00    +0.000 C 
ATOM      3  N   UNL     1       3.806   5.455  17.933  0.00  0.00    +0.000 N 
ATOM      4  H   UNL     1       4.012   6.398  17.612  0.00  0.00    +0.000 HD
ENDROOT
BRANCH   2   5
ATOM      5  C   UNL     1       5.450   4.519  16.348  0.00  0.00    +0.000 A 
ATOM      6  C   UNL     1       4.929   4.119  15.102  0.00  0.00    +0.000 A 
ATOM      7  C   UNL     1       5.676   4.259  13.932  0.00  0.00    +0.000 A 
ATOM      8  C   UNL     1       6.956   4.795  13.995  0.00  0.00    +0.000 A 
ATOM      9 CL   UNL     1       7.878   4.971  12.556  0.00  0.00    +0.000 Cl
ATOM     10  C   UNL     1       7.497   5.184  15.220  0.00  0.00    +0.000 A 
ATOM     11  C   UNL     1       6.748   5.047  16.399  0.00  0.00    +0.000 A 
ATOM     12 CL   UNL     1       7.538   5.491  17.871  0.00  0.00    +0.000 Cl
ENDBRANCH   2   5
BRANCH   3  13
ATOM     13  S   UNL     1       2.708   5.416  19.188  0.00  0.00    +0.000 S 
ATOM     14  O   UNL     1       1.579   4.646  18.708  0.00  0.00    +0.000 OA
ATOM     15  O   UNL     1       3.408   5.048  20.397  0.00  0.00    +0.000 OA
BRANCH  13  16
ATOM     16  C   UNL     1       2.170   7.102  19.308  0.00  0.00    +0.000 A 
ATOM     17  C   UNL     1       2.194   7.926  18.180  0.00  0.00    +0.000 A 
ATOM     18  C   UNL     1       1.666   9.214  18.265  0.00  0.00    +0.000 A 
ATOM     19  C   UNL     1       1.112   9.675  19.467  0.00  0.00    +0.000 A 
ATOM     20 BR   UNL     1       0.368  11.422  19.464  0.00  0.00    +0.000 Br
ATOM     21  C   UNL     1       1.109   8.847  20.599  0.00  0.00    +0.000 A 
ATOM     22 BR   UNL     1       0.360   9.367  22.265  0.00  0.00    +0.000 Br
ATOM     23  C   UNL     1       1.650   7.561  20.522  0.00  0.00    +0.000 A 
ENDBRANCH  13  16
ENDBRANCH   3  13
TORSDOF 3
ENDMDL
MODEL 2
REMARK VINA RESULT:      -6.9      1.685      2.402
REMARK  Name = 
REMARK  3 active torsions:
REMARK  status: ('A' for Active; 'I' for Inactive)
REMARK    1  A    between atoms: C_2  and  C_15
REMARK    2  A    between atoms: N_3  and  S_4
REMARK    3  A    between atoms: S_4  and  C_7
REMARK                            x       y       z     vdW  Elec       q    Type
REMARK                         _______ _______ _______ _____ _____    ______ ____
ROOT
ATOM      1  O   UNL     1       5.822   4.273  18.645  0.00  0.00    +0.000 OA
ATOM      2  C   UNL     1       5.256   4.083  17.580  0.00  0.00    +0.000 C 
ATOM      3  N   UNL     1       3.968   3.547  17.493  0.00  0.00    +0.000 N 
ATOM      4  H   UNL     1       3.440   3.535  16.625  0.00  0.00    +0.000 HD
ENDROOT
BRANCH   2   5
ATOM      5  C   UNL     1       5.958   4.402  16.310  0.00  0.00    +0.000 A 
ATOM      6  C   UNL     1       5.615   3.587  15.214  0.00  0.00    +0.000 A 
ATOM      7  C   UNL     1       6.179   3.797  13.956  0.00  0.00    +0.000 A 
ATOM      8  C   UNL     1       7.099   4.823  13.780  0.00  0.00    +0.000 A 
ATOM      9 CL   UNL     1       7.794   5.086  12.230  0.00  0.00    +0.000 Cl
ATOM     10  C   UNL     1       7.465   5.633  14.853  0.00  0.00    +0.000 A 
ATOM     11  C   UNL     1       6.898   5.426  16.121  0.00  0.00    +0.000 A 
ATOM     12 CL   UNL     1       7.474   6.438  17.398  0.00  0.00    +0.000 Cl
ENDBRANCH   2   5
BRANCH   3  13
ATOM     13  S   UNL     1       3.061   3.100  18.819  0.00  0.00    +0.000 S 
ATOM     14  O   UNL     1       1.934   2.354  18.300  0.00  0.00    +0.000 OA
ATOM     15  O   UNL     1       3.945   2.532  19.809  0.00  0.00    +0.000 OA
BRANCH  13  16
ATOM     16  C   UNL     1       2.426   4.647  19.413  0.00  0.00    +0.000 A 
ATOM     17  C   UNL     1       1.947   4.750  20.721  0.00  0.00    +0.000 A 
ATOM     18  C   UNL     1       1.553   5.998  21.206  0.00  0.00    +0.000 A 
ATOM     19  C   UNL     1       1.643   7.135  20.393  0.00  0.00    +0.000 A 
ATOM     20 BR   UNL     1       1.138   8.794  21.166  0.00  0.00    +0.000 Br
ATOM     21  C   UNL     1       2.109   7.018  19.076  0.00  0.00    +0.000 A 
ATOM     22 BR   UNL     1       2.293   8.501  17.903  0.00  0.00    +0.000 Br
ATOM     23  C   UNL     1       2.491   5.769  18.580  0.00  0.00    +0.000 A 
ENDBRANCH  13  16
ENDBRANCH   3  13
TORSDOF 3
ENDMDL
MODEL 3
REMARK VINA RESULT:      -6.5      4.323      7.490
REMARK  Name = 
REMARK  3 active torsions:
REMARK  status: ('A' for Active; 'I' for Inactive)
REMARK    1  A    between atoms: C_2  and  C_15
REMARK    2  A    between atoms: N_3  and  S_4
REMARK    3  A    between atoms: S_4  and  C_7
REMARK                            x       y       z     vdW  Elec       q    Type
REMARK                         _______ _______ _______ _____ _____    ______ ____
ROOT
ATOM      1  O   UNL     1       2.764   4.727  20.421  0.00  0.00    +0.000 OA
ATOM      2  C   UNL     1       2.919   5.607  19.590  0.00  0.00    +0.000 C 
ATOM      3  N   UNL     1       3.760   5.463  18.483  0.00  0.00    +0.000 N 
ATOM      4  H   UNL     1       3.769   6.127  17.714  0.00  0.00    +0.000 HD
ENDROOT
BRANCH   2   5
ATOM      5  C   UNL     1       2.215   6.905  19.757  0.00  0.00    +0.000 A 
ATOM      6  C   UNL     1       1.512   7.052  20.969  0.00  0.00    +0.000 A 
ATOM      7  C   UNL     1       0.830   8.232  21.267  0.00  0.00    +0.000 A 
ATOM      8  C   UNL     1       0.839   9.278  20.352  0.00  0.00    +0.000 A 
ATOM      9 CL   UNL     1       0.003  10.735  20.717  0.00  0.00    +0.000 Cl
ATOM     10  C   UNL     1       1.516   9.149  19.140  0.00  0.00    +0.000 A 
ATOM     11  C   UNL     1       2.204   7.964  18.838  0.00  0.00    +0.000 A 
ATOM     12 CL   UNL     1       2.950   7.880  17.281  0.00  0.00    +0.000 Cl
ENDBRANCH   2   5
BRANCH   3  13
ATOM     13  S   UNL     1       4.650   4.087  18.171  0.00  0.00    +0.000 S 
ATOM     14  O   UNL     1       5.630   3.994  19.233  0.00  0.00    +0.000 OA
ATOM     15  O   UNL     1       3.736   3.004  17.896  0.00  0.00    +0.000 OA
BRANCH  13  16
ATOM     16  C   UNL     1       5.533   4.505  16.690  0.00  0.00    +0.000 A 
ATOM     17  C   UNL     1       6.716   5.243  16.765  0.00  0.00    +0.000 A 
ATOM     18  C   UNL     1       7.455   5.470  15.603  0.00  0.00    +0.000 A 
ATOM     19  C   UNL     1       7.017   4.956  14.375  0.00  0.00    +0.000 A 
ATOM     20 BR   UNL     1       8.123   5.269  12.863  0.00  0.00    +0.000 Br
ATOM     21  C   UNL     1       5.819   4.231  14.306  0.00  0.00    +0.000 A 
ATOM     22 BR   UNL     1       5.155   3.472  12.697  0.00  0.00    +0.000 Br
ATOM     23  C   UNL     1       5.069   4.014  15.465  0.00  0.00    +0.000 A 
ENDBRANCH  13  16
ENDBRANCH   3  13
TORSDOF 3
ENDMDL
MODEL 4
REMARK VINA RESULT:      -6.5      3.659      4.601
REMARK  Name = 
REMARK  3 active torsions:
REMARK  status: ('A' for Active; 'I' for Inactive)
REMARK    1  A    between atoms: C_2  and  C_15
REMARK    2  A    between atoms: N_3  and  S_4
REMARK    3  A    between atoms: S_4  and  C_7
REMARK                            x       y       z     vdW  Elec       q    Type
REMARK                         _______ _______ _______ _____ _____    ______ ____
ROOT
ATOM      1  O   UNL     1       5.275   6.380  15.019  0.00  0.00    +0.000 OA
ATOM      2  C   UNL     1       6.163   5.543  15.069  0.00  0.00    +0.000 C 
ATOM      3  N   UNL     1       7.005   5.398  16.175  0.00  0.00    +0.000 N 
ATOM      4  H   UNL     1       7.634   4.607  16.282  0.00  0.00    +0.000 HD
ENDROOT
BRANCH   2   5
ATOM      5  C   UNL     1       6.393   4.649  13.905  0.00  0.00    +0.000 A 
ATOM      6  C   UNL     1       5.471   3.593  13.770  0.00  0.00    +0.000 A 
ATOM      7  C   UNL     1       5.554   2.696  12.704  0.00  0.00    +0.000 A 
ATOM      8  C   UNL     1       6.566   2.842  11.763  0.00  0.00    +0.000 A 
ATOM      9 CL   UNL     1       6.670   1.741  10.447  0.00  0.00    +0.000 Cl
ATOM     10  C   UNL     1       7.498   3.871  11.885  0.00  0.00    +0.000 A 
ATOM     11  C   UNL     1       7.417   4.776  12.955  0.00  0.00    +0.000 A 
ATOM     12 CL   UNL     1       8.663   5.969  13.053  0.00  0.00    +0.000 Cl
ENDBRANCH   2   5
BRANCH   3  13
ATOM     13  S   UNL     1       6.904   6.346  17.544  0.00  0.00    +0.000 S 
ATOM     14  O   UNL     1       7.994   5.928  18.402  0.00  0.00    +0.000 OA
ATOM     15  O   UNL     1       6.756   7.723  17.137  0.00  0.00    +0.000 OA
BRANCH  13  16
ATOM     16  C   UNL     1       5.402   5.791  18.309  0.00  0.00    +0.000 A 
ATOM     17  C   UNL     1       4.250   6.578  18.240  0.00  0.00    +0.000 A 
ATOM     18  C   UNL     1       3.052   6.079  18.752  0.00  0.00    +0.000 A 
ATOM     19  C   UNL     1       3.004   4.800  19.323  0.00  0.00    +0.000 A 
ATOM     20 BR   UNL     1       1.314   4.190  19.938  0.00  0.00    +0.000 Br
ATOM     21  C   UNL     1       4.169   4.025  19.404  0.00  0.00    +0.000 A 
ATOM     22 BR   UNL     1       4.203   2.273  20.134  0.00  0.00    +0.000 Br
ATOM     23  C   UNL     1       5.375   4.527  18.906  0.00  0.00    +0.000 A 
ENDBRANCH  13  16
ENDBRANCH   3  13
TORSDOF 3
ENDMDL
MODEL 5
REMARK VINA RESULT:      -6.4      4.600      7.342
REMARK  Name = 
REMARK  3 active torsions:
REMARK  status: ('A' for Active; 'I' for Inactive)
REMARK    1  A    between atoms: C_2  and  C_15
REMARK    2  A    between atoms: N_3  and  S_4
REMARK    3  A    between atoms: S_4  and  C_7
REMARK                            x       y       z     vdW  Elec       q    Type
REMARK                         _______ _______ _______ _____ _____    ______ ____
ROOT
ATOM      1  O   UNL     1       2.139   5.203  17.603  0.00  0.00    +0.000 OA
ATOM      2  C   UNL     1       2.843   5.977  18.233  0.00  0.00    +0.000 C 
ATOM      3  N   UNL     1       4.158   5.677  18.598  0.00  0.00    +0.000 N 
ATOM      4  H   UNL     1       4.790   6.374  18.981  0.00  0.00    +0.000 HD
ENDROOT
BRANCH   2   5
ATOM      5  C   UNL     1       2.288   7.287  18.664  0.00  0.00    +0.000 A 
ATOM      6  C   UNL     1       2.397   8.323  17.716  0.00  0.00    +0.000 A 
ATOM      7  C   UNL     1       1.891   9.595  17.980  0.00  0.00    +0.000 A 
ATOM      8  C   UNL     1       1.275   9.849  19.200  0.00  0.00    +0.000 A 
ATOM      9 CL   UNL     1       0.648  11.415  19.528  0.00  0.00    +0.000 Cl
ATOM     10  C   UNL     1       1.170   8.843  20.159  0.00  0.00    +0.000 A 
ATOM     11  C   UNL     1       1.677   7.560  19.895  0.00  0.00    +0.000 A 
ATOM     12 CL   UNL     1       1.560   6.406  21.177  0.00  0.00    +0.000 Cl
ENDBRANCH   2   5
BRANCH   3  13
ATOM     13  S   UNL     1       4.915   4.238  18.227  0.00  0.00    +0.000 S 
ATOM     14  O   UNL     1       5.971   4.077  19.206  0.00  0.00    +0.000 OA
ATOM     15  O   UNL     1       3.905   3.223  18.040  0.00  0.00    +0.000 OA
BRANCH  13  16
ATOM     16  C   UNL     1       5.700   4.583  16.674  0.00  0.00    +0.000 A 
ATOM     17  C   UNL     1       6.901   5.296  16.640  0.00  0.00    +0.000 A 
ATOM     18  C   UNL     1       7.559   5.464  15.421  0.00  0.00    +0.000 A 
ATOM     19  C   UNL     1       7.025   4.919  14.246  0.00  0.00    +0.000 A 
ATOM     20 BR   UNL     1       8.027   5.153  12.650  0.00  0.00    +0.000 Br
ATOM     21  C   UNL     1       5.810   4.220  14.288  0.00  0.00    +0.000 A 
ATOM     22 BR   UNL     1       5.018   3.422  12.757  0.00  0.00    +0.000 Br
ATOM     23  C   UNL     1       5.139   4.061  15.503  0.00  0.00    +0.000 A 
ENDBRANCH  13  16
ENDBRANCH   3  13
TORSDOF 3
ENDMDL
MODEL 6
REMARK VINA RESULT:      -6.4      4.764      6.308
REMARK  Name = 
REMARK  3 active torsions:
REMARK  status: ('A' for Active; 'I' for Inactive)
REMARK    1  A    between atoms: C_2  and  C_15
REMARK    2  A    between atoms: N_3  and  S_4
REMARK    3  A    between atoms: S_4  and  C_7
REMARK                            x       y       z     vdW  Elec       q    Type
REMARK                         _______ _______ _______ _____ _____    ______ ____
ROOT
ATOM      1  O   UNL     1       1.720   8.789  21.694  0.00  0.00    +0.000 OA
ATOM      2  C   UNL     1       1.466   8.525  20.529  0.00  0.00    +0.000 C 
ATOM      3  N   UNL     1       0.835   9.428  19.669  0.00  0.00    +0.000 N 
ATOM      4  H   UNL     1       0.766   9.270  18.667  0.00  0.00    +0.000 HD
ENDROOT
BRANCH   2   5
ATOM      5  C   UNL     1       1.808   7.183  19.991  0.00  0.00    +0.000 A 
ATOM      6  C   UNL     1       1.457   6.098  20.818  0.00  0.00    +0.000 A 
ATOM      7  C   UNL     1       1.695   4.783  20.421  0.00  0.00    +0.000 A 
ATOM      8  C   UNL     1       2.295   4.536  19.192  0.00  0.00    +0.000 A 
ATOM      9 CL   UNL     1       2.589   2.916  18.698  0.00  0.00    +0.000 Cl
ATOM     10  C   UNL     1       2.666   5.594  18.363  0.00  0.00    +0.000 A 
ATOM     11  C   UNL     1       2.425   6.919  18.759  0.00  0.00    +0.000 A 
ATOM     12 CL   UNL     1       2.987   8.158  17.693  0.00  0.00    +0.000 Cl
ENDBRANCH   2   5
BRANCH   3  13
ATOM     13  S   UNL     1       0.352  10.957  20.127  0.00  0.00    +0.000 S 
ATOM     14  O   UNL     1       0.124  10.895  21.556  0.00  0.00    +0.000 OA
ATOM     15  O   UNL     1       1.267  11.916  19.554  0.00  0.00    +0.000 OA
BRANCH  13  16
ATOM     16  C   UNL     1      -1.238  11.125  19.357  0.00  0.00    +0.000 A 
ATOM     17  C   UNL     1      -2.222  11.919  19.951  0.00  0.00    +0.000 A 
ATOM     18  C   UNL     1      -3.427  12.128  19.279  0.00  0.00    +0.000 A 
ATOM     19  C   UNL     1      -3.644  11.554  18.020  0.00  0.00    +0.000 A 
ATOM     20 BR   UNL     1      -5.293  11.947  17.163  0.00  0.00    +0.000 Br
ATOM     21  C   UNL     1      -2.658  10.744  17.439  0.00  0.00    +0.000 A 
ATOM     22 BR   UNL     1      -2.845   9.942  15.728  0.00  0.00    +0.000 Br
ATOM     23  C   UNL     1      -1.455  10.520  18.115  0.00  0.00    +0.000 A 
ENDBRANCH  13  16
ENDBRANCH   3  13
TORSDOF 3
ENDMDL
MODEL 7
REMARK VINA RESULT:      -6.3      4.494      7.398
REMARK  Name = 
REMARK  3 active torsions:
REMARK  status: ('A' for Active; 'I' for Inactive)
REMARK    1  A    between atoms: C_2  and  C_15
REMARK    2  A    between atoms: N_3  and  S_4
REMARK    3  A    between atoms: S_4  and  C_7
REMARK                            x       y       z     vdW  Elec       q    Type
REMARK                         _______ _______ _______ _____ _____    ______ ____
ROOT
ATOM      1  O   UNL     1       0.971   6.837  21.234  0.00  0.00    +0.000 OA
ATOM      2  C   UNL     1       1.475   7.421  20.287  0.00  0.00    +0.000 C 
ATOM      3  N   UNL     1       2.260   6.773  19.330  0.00  0.00    +0.000 N 
ATOM      4  H   UNL     1       2.546   7.223  18.464  0.00  0.00    +0.000 HD
ENDROOT
BRANCH   2   5
ATOM      5  C   UNL     1       1.280   8.887  20.144  0.00  0.00    +0.000 A 
ATOM      6  C   UNL     1       1.490   9.394  18.847  0.00  0.00    +0.000 A 
ATOM      7  C   UNL     1       1.313  10.749  18.567  0.00  0.00    +0.000 A 
ATOM      8  C   UNL     1       0.929  11.615  19.584  0.00  0.00    +0.000 A 
ATOM      9 CL   UNL     1       0.707  13.285  19.242  0.00  0.00    +0.000 Cl
ATOM     10  C   UNL     1       0.731  11.138  20.878  0.00  0.00    +0.000 A 
ATOM     11  C   UNL     1       0.906   9.775  21.163  0.00  0.00    +0.000 A 
ATOM     12 CL   UNL     1       0.706   9.299  22.813  0.00  0.00    +0.000 Cl
ENDBRANCH   2   5
BRANCH   3  13
ATOM     13  S   UNL     1       2.606   5.142  19.367  0.00  0.00    +0.000 S 
ATOM     14  O   UNL     1       3.193   4.887  20.666  0.00  0.00    +0.000 OA
ATOM     15  O   UNL     1       1.442   4.417  18.914  0.00  0.00    +0.000 OA
BRANCH  13  16
ATOM     16  C   UNL     1       3.906   4.977  18.172  0.00  0.00    +0.000 A 
ATOM     17  C   UNL     1       3.787   4.053  17.131  0.00  0.00    +0.000 A 
ATOM     18  C   UNL     1       4.768   4.013  16.139  0.00  0.00    +0.000 A 
ATOM     19  C   UNL     1       5.856   4.894  16.183  0.00  0.00    +0.000 A 
ATOM     20 BR   UNL     1       7.105   4.798  14.756  0.00  0.00    +0.000 Br
ATOM     21  C   UNL     1       5.977   5.806  17.241  0.00  0.00    +0.000 A 
ATOM     22 BR   UNL     1       7.399   7.057  17.378  0.00  0.00    +0.000 Br
ATOM     23  C   UNL     1       5.005   5.840  18.245  0.00  0.00    +0.000 A 
ENDBRANCH  13  16
ENDBRANCH   3  13
TORSDOF 3
ENDMDL
MODEL 8
REMARK VINA RESULT:      -6.2      5.407      7.333
REMARK  Name = 
REMARK  3 active torsions:
REMARK  status: ('A' for Active; 'I' for Inactive)
REMARK    1  A    between atoms: C_2  and  C_15
REMARK    2  A    between atoms: N_3  and  S_4
REMARK    3  A    between atoms: S_4  and  C_7
REMARK                            x       y       z     vdW  Elec       q    Type
REMARK                         _______ _______ _______ _____ _____    ______ ____
ROOT
ATOM      1  O   UNL     1      -0.850  10.362  18.681  0.00  0.00    +0.000 OA
ATOM      2  C   UNL     1       0.306  10.442  19.067  0.00  0.00    +0.000 C 
ATOM      3  N   UNL     1       0.872  11.637  19.520  0.00  0.00    +0.000 N 
ATOM      4  H   UNL     1       1.775  11.670  19.985  0.00  0.00    +0.000 HD
ENDROOT
BRANCH   2   5
ATOM      5  C   UNL     1       1.173   9.235  19.036  0.00  0.00    +0.000 A 
ATOM      6  C   UNL     1       1.828   9.000  17.812  0.00  0.00    +0.000 A 
ATOM      7  C   UNL     1       2.694   7.917  17.656  0.00  0.00    +0.000 A 
ATOM      8  C   UNL     1       2.911   7.053  18.723  0.00  0.00    +0.000 A 
ATOM      9 CL   UNL     1       3.979   5.720  18.535  0.00  0.00    +0.000 Cl
ATOM     10  C   UNL     1       2.261   7.258  19.939  0.00  0.00    +0.000 A 
ATOM     11  C   UNL     1       1.390   8.347  20.100  0.00  0.00    +0.000 A 
ATOM     12 CL   UNL     1       0.581   8.470  21.623  0.00  0.00    +0.000 Cl
ENDBRANCH   2   5
BRANCH   3  13
ATOM     13  S   UNL     1       0.048  13.085  19.581  0.00  0.00    +0.000 S 
ATOM     14  O   UNL     1       0.995  14.065  20.071  0.00  0.00    +0.000 OA
ATOM     15  O   UNL     1      -0.644  13.272  18.327  0.00  0.00    +0.000 OA
BRANCH  13  16
ATOM     16  C   UNL     1      -1.138  12.821  20.875  0.00  0.00    +0.000 A 
ATOM     17  C   UNL     1      -0.706  12.597  22.184  0.00  0.00    +0.000 A 
ATOM     18  C   UNL     1      -1.651  12.500  23.206  0.00  0.00    +0.000 A 
ATOM     19  C   UNL     1      -3.016  12.633  22.923  0.00  0.00    +0.000 A 
ATOM     20 BR   UNL     1      -4.217  12.544  24.392  0.00  0.00    +0.000 Br
ATOM     21  C   UNL     1      -3.441  12.841  21.603  0.00  0.00    +0.000 A 
ATOM     22 BR   UNL     1      -5.265  13.059  21.121  0.00  0.00    +0.000 Br
ATOM     23  C   UNL     1      -2.500  12.924  20.574  0.00  0.00    +0.000 A 
ENDBRANCH  13  16
ENDBRANCH   3  13
TORSDOF 3
ENDMDL
MODEL 9
REMARK VINA RESULT:      -6.2      5.141      7.611
REMARK  Name = 
REMARK  3 active torsions:
REMARK  status: ('A' for Active; 'I' for Inactive)
REMARK    1  A    between atoms: C_2  and  C_15
REMARK    2  A    between atoms: N_3  and  S_4
REMARK    3  A    between atoms: S_4  and  C_7
REMARK                            x       y       z     vdW  Elec       q    Type
REMARK                         _______ _______ _______ _____ _____    ______ ____
ROOT
ATOM      1  O   UNL     1       3.889   6.357  17.450  0.00  0.00    +0.000 OA
ATOM      2  C   UNL     1       4.374   5.663  18.329  0.00  0.00    +0.000 C 
ATOM      3  N   UNL     1       5.751   5.465  18.464  0.00  0.00    +0.000 N 
ATOM      4  H   UNL     1       6.161   5.020  19.281  0.00  0.00    +0.000 HD
ENDROOT
BRANCH   2   5
ATOM      5  C   UNL     1       3.479   4.968  19.290  0.00  0.00    +0.000 A 
ATOM      6  C   UNL     1       3.677   3.577  19.394  0.00  0.00    +0.000 A 
ATOM      7  C   UNL     1       2.924   2.807  20.281  0.00  0.00    +0.000 A 
ATOM      8  C   UNL     1       1.958   3.420  21.071  0.00  0.00    +0.000 A 
ATOM      9 CL   UNL     1       1.029   2.475  22.166  0.00  0.00    +0.000 Cl
ATOM     10  C   UNL     1       1.734   4.792  20.973  0.00  0.00    +0.000 A 
ATOM     11  C   UNL     1       2.492   5.570  20.084  0.00  0.00    +0.000 A 
ATOM     12 CL   UNL     1       2.087   7.248  19.989  0.00  0.00    +0.000 Cl
ENDBRANCH   2   5
BRANCH   3  13
ATOM     13  S   UNL     1       6.886   6.141  17.447  0.00  0.00    +0.000 S 
ATOM     14  O   UNL     1       6.413   7.477  17.149  0.00  0.00    +0.000 OA
ATOM     15  O   UNL     1       8.197   5.918  18.011  0.00  0.00    +0.000 OA
BRANCH  13  16
ATOM     16  C   UNL     1       6.714   5.189  15.959  0.00  0.00    +0.000 A 
ATOM     17  C   UNL     1       5.889   4.062  15.942  0.00  0.00    +0.000 A 
ATOM     18  C   UNL     1       5.679   3.389  14.737  0.00  0.00    +0.000 A 
ATOM     19  C   UNL     1       6.285   3.842  13.558  0.00  0.00    +0.000 A 
ATOM     20 BR   UNL     1       5.891   2.892  11.962  0.00  0.00    +0.000 Br
ATOM     21  C   UNL     1       7.126   4.964  13.589  0.00  0.00    +0.000 A 
ATOM     22 BR   UNL     1       7.973   5.671  12.044  0.00  0.00    +0.000 Br
ATOM     23  C   UNL     1       7.351   5.632  14.796  0.00  0.00    +0.000 A 
ENDBRANCH  13  16
ENDBRANCH   3  13
TORSDOF 3
ENDMDL
