MODEL 1
REMARK VINA RESULT:      -8.4      0.000      0.000
REMARK  Name = 
REMARK  10 active torsions:
REMARK  status: ('A' for Active; 'I' for Inactive)
REMARK    1  A    between atoms: C_1  and  C_2
REMARK    2  A    between atoms: C_2  and  N_3
REMARK    3  A    between atoms: C_4  and  S_5
REMARK    4  A    between atoms: S_5  and  C_6
REMARK    5  A    between atoms: C_6  and  C_7
REMARK    6  A    between atoms: N_9  and  C_10
REMARK    7  A    between atoms: C_12  and  C_13
REMARK    8  A    between atoms: C_15  and  C_16
REMARK    9  A    between atoms: C_19  and  O_20
REMARK   10  A    between atoms: C_24  and  C_25
REMARK                            x       y       z     vdW  Elec       q    Type
REMARK                         _______ _______ _______ _____ _____    ______ ____
ROOT
ATOM      1  C   UNL     1       8.318   8.801  18.304  0.00  0.00    +0.000 C 
ATOM      2  O   UNL     1       7.669   9.401  17.447  0.00  0.00    +0.000 OA
ATOM      3  N   UNL     1       9.343   9.351  19.046  0.00  0.00    +0.000 N 
ATOM      4  H   UNL     1       9.902   8.731  19.625  0.00  0.00    +0.000 HD
ENDROOT
BRANCH   3   5
ATOM      5  C   UNL     1       9.732  10.671  19.009  0.00  0.00    +0.000 A 
ATOM      6  O   UNL     1      10.169  11.249  17.846  0.00  0.00    +0.000 OA
ATOM      7  C   UNL     1      10.462  12.575  18.097  0.00  0.00    +0.000 A 
ATOM      8  C   UNL     1      10.927  13.367  16.938  0.00  0.00    +0.000 C 
ATOM      9  C   UNL     1      10.233  12.844  19.427  0.00  0.00    +0.000 A 
ATOM     10  C   UNL     1      10.408  14.038  20.152  0.00  0.00    +0.000 A 
ATOM     11  C   UNL     1      10.909  15.375  19.730  0.00  0.00    +0.000 C 
ATOM     12  N   UNL     1      10.049  13.867  21.476  0.00  0.00    +0.000 NA
ATOM     13  N   UNL     1       9.543  12.611  22.057  0.00  0.00    +0.000 NA
ATOM     14  C   UNL     1       9.387  11.483  21.327  0.00  0.00    +0.000 A 
ATOM     15  C   UNL     1       9.745  11.623  19.996  0.00  0.00    +0.000 A 
BRANCH  14  16
ATOM     16  O   UNL     1       8.907  10.361  21.938  0.00  0.00    +0.000 OA
ATOM     17  H   UNL     1       8.943  10.634  22.874  0.00  0.00    +0.000 HD
ENDBRANCH  14  16
ENDBRANCH   3   5
BRANCH   1  18
ATOM     18  C   UNL     1       8.039   7.302  18.552  0.00  0.00    +0.000 C 
BRANCH  18  19
ATOM     19  S   UNL     1       6.933   6.554  17.314  0.00  0.00    +0.000 S 
BRANCH  19  21
ATOM     20  N   UNL     1       4.647   5.301  18.147  0.00  0.00    +0.000 N 
ATOM     21  C   UNL     1       6.019   5.384  18.212  0.00  0.00    +0.000 A 
ATOM     22  N   UNL     1       6.474   4.461  19.021  0.00  0.00    +0.000 NA
ATOM     23  N   UNL     1       5.389   3.742  19.496  0.00  0.00    +0.000 NA
ATOM     24  C   UNL     1       4.291   4.244  18.957  0.00  0.00    +0.000 A 
BRANCH  24  25
ATOM     25  C   UNL     1       2.964   3.745  19.195  0.00  0.00    +0.000 A 
ATOM     26  C   UNL     1       2.143   3.953  20.295  0.00  0.00    +0.000 A 
ATOM     27  C   UNL     1       0.924   3.261  20.064  0.00  0.00    +0.000 A 
ATOM     28  C   UNL     1       1.061   2.661  18.839  0.00  0.00    +0.000 A 
ATOM     29  O   UNL     1       2.280   2.939  18.312  0.00  0.00    +0.000 OA
ENDBRANCH  24  25
BRANCH  20  31
ATOM     30  C   UNL     1       3.040   7.168  18.267  0.00  0.00    +0.000 C 
ATOM     31  C   UNL     1       3.754   6.153  17.391  0.00  0.00    +0.000 C 
ENDBRANCH  20  31
ENDBRANCH  19  21
ENDBRANCH  18  19
ENDBRANCH   1  18
TORSDOF 7
ENDMDL
MODEL 2
REMARK VINA RESULT:      -8.2      5.422      8.028
REMARK  Name = 
REMARK  10 active torsions:
REMARK  status: ('A' for Active; 'I' for Inactive)
REMARK    1  A    between atoms: C_1  and  C_2
REMARK    2  A    between atoms: C_2  and  N_3
REMARK    3  A    between atoms: C_4  and  S_5
REMARK    4  A    between atoms: S_5  and  C_6
REMARK    5  A    between atoms: C_6  and  C_7
REMARK    6  A    between atoms: N_9  and  C_10
REMARK    7  A    between atoms: C_12  and  C_13
REMARK    8  A    between atoms: C_15  and  C_16
REMARK    9  A    between atoms: C_19  and  O_20
REMARK   10  A    between atoms: C_24  and  C_25
REMARK                            x       y       z     vdW  Elec       q    Type
REMARK                         _______ _______ _______ _____ _____    ______ ____
ROOT
ATOM      1  C   UNL     1       2.365   4.890  20.171  0.00  0.00    +0.000 C 
ATOM      2  O   UNL     1       1.194   4.555  20.349  0.00  0.00    +0.000 OA
ATOM      3  N   UNL     1       2.806   6.193  20.062  0.00  0.00    +0.000 N 
ATOM      4  H   UNL     1       3.768   6.352  19.778  0.00  0.00    +0.000 HD
ENDROOT
BRANCH   3   5
ATOM      5  C   UNL     1       2.024   7.313  20.230  0.00  0.00    +0.000 A 
ATOM      6  O   UNL     1       1.308   7.511  21.382  0.00  0.00    +0.000 OA
ATOM      7  C   UNL     1       0.645   8.720  21.286  0.00  0.00    +0.000 A 
ATOM      8  C   UNL     1      -0.163   9.111  22.460  0.00  0.00    +0.000 C 
ATOM      9  C   UNL     1       0.919   9.288  20.063  0.00  0.00    +0.000 A 
ATOM     10  C   UNL     1       0.460  10.496  19.503  0.00  0.00    +0.000 A 
ATOM     11  C   UNL     1      -0.474  11.527  20.033  0.00  0.00    +0.000 C 
ATOM     12  N   UNL     1       0.993  10.688  18.243  0.00  0.00    +0.000 NA
ATOM     13  N   UNL     1       1.923   9.763  17.570  0.00  0.00    +0.000 NA
ATOM     14  C   UNL     1       2.343   8.611  18.142  0.00  0.00    +0.000 A 
ATOM     15  C   UNL     1       1.820   8.390  19.405  0.00  0.00    +0.000 A 
BRANCH  14  16
ATOM     16  O   UNL     1       3.211   7.811  17.456  0.00  0.00    +0.000 OA
ATOM     17  H   UNL     1       3.663   7.359  18.192  0.00  0.00    +0.000 HD
ENDBRANCH  14  16
ENDBRANCH   3   5
BRANCH   1  18
ATOM     18  C   UNL     1       3.443   3.799  19.983  0.00  0.00    +0.000 C 
BRANCH  18  19
ATOM     19  S   UNL     1       5.051   4.454  19.433  0.00  0.00    +0.000 S 
BRANCH  19  21
ATOM     20  N   UNL     1       6.067   4.627  16.898  0.00  0.00    +0.000 N 
ATOM     21  C   UNL     1       4.993   4.327  17.704  0.00  0.00    +0.000 A 
ATOM     22  N   UNL     1       3.985   3.941  16.962  0.00  0.00    +0.000 NA
ATOM     23  N   UNL     1       4.397   3.973  15.639  0.00  0.00    +0.000 NA
ATOM     24  C   UNL     1       5.656   4.376  15.606  0.00  0.00    +0.000 A 
BRANCH  24  25
ATOM     25  C   UNL     1       6.438   4.514  14.408  0.00  0.00    +0.000 A 
ATOM     26  C   UNL     1       6.296   3.847  13.198  0.00  0.00    +0.000 A 
ATOM     27  C   UNL     1       7.300   4.330  12.316  0.00  0.00    +0.000 A 
ATOM     28  C   UNL     1       8.008   5.263  13.030  0.00  0.00    +0.000 A 
ATOM     29  O   UNL     1       7.504   5.377  14.285  0.00  0.00    +0.000 OA
ENDBRANCH  24  25
BRANCH  20  31
ATOM     30  C   UNL     1       7.396   6.630  17.451  0.00  0.00    +0.000 C 
ATOM     31  C   UNL     1       7.363   5.118  17.315  0.00  0.00    +0.000 C 
ENDBRANCH  20  31
ENDBRANCH  19  21
ENDBRANCH  18  19
ENDBRANCH   1  18
TORSDOF 7
ENDMDL
MODEL 3
REMARK VINA RESULT:      -8.0      6.430      7.838
REMARK  Name = 
REMARK  10 active torsions:
REMARK  status: ('A' for Active; 'I' for Inactive)
REMARK    1  A    between atoms: C_1  and  C_2
REMARK    2  A    between atoms: C_2  and  N_3
REMARK    3  A    between atoms: C_4  and  S_5
REMARK    4  A    between atoms: S_5  and  C_6
REMARK    5  A    between atoms: C_6  and  C_7
REMARK    6  A    between atoms: N_9  and  C_10
REMARK    7  A    between atoms: C_12  and  C_13
REMARK    8  A    between atoms: C_15  and  C_16
REMARK    9  A    between atoms: C_19  and  O_20
REMARK   10  A    between atoms: C_24  and  C_25
REMARK                            x       y       z     vdW  Elec       q    Type
REMARK                         _______ _______ _______ _____ _____    ______ ____
ROOT
ATOM      1  C   UNL     1       1.556   5.032  20.886  0.00  0.00    +0.000 C 
ATOM      2  O   UNL     1       0.435   4.872  20.404  0.00  0.00    +0.000 OA
ATOM      3  N   UNL     1       2.196   6.248  21.011  0.00  0.00    +0.000 N 
ATOM      4  H   UNL     1       3.171   6.250  21.295  0.00  0.00    +0.000 HD
ENDROOT
BRANCH   3   5
ATOM      5  C   UNL     1       1.644   7.472  20.705  0.00  0.00    +0.000 A 
ATOM      6  O   UNL     1       0.883   8.155  21.618  0.00  0.00    +0.000 OA
ATOM      7  C   UNL     1       0.489   9.352  21.054  0.00  0.00    +0.000 A 
ATOM      8  C   UNL     1      -0.324  10.237  21.914  0.00  0.00    +0.000 C 
ATOM      9  C   UNL     1       0.980   9.430  19.770  0.00  0.00    +0.000 A 
ATOM     10  C   UNL     1       0.826  10.440  18.801  0.00  0.00    +0.000 A 
ATOM     11  C   UNL     1       0.075  11.725  18.839  0.00  0.00    +0.000 C 
ATOM     12  N   UNL     1       1.496  10.113  17.638  0.00  0.00    +0.000 NA
ATOM     13  N   UNL     1       2.276   8.880  17.433  0.00  0.00    +0.000 NA
ATOM     14  C   UNL     1       2.403   7.931  18.389  0.00  0.00    +0.000 A 
ATOM     15  C   UNL     1       1.736   8.230  19.566  0.00  0.00    +0.000 A 
BRANCH  14  16
ATOM     16  O   UNL     1       3.149   6.820  18.123  0.00  0.00    +0.000 OA
ATOM     17  H   UNL     1       2.854   6.227  18.840  0.00  0.00    +0.000 HD
ENDBRANCH  14  16
ENDBRANCH   3   5
BRANCH   1  18
ATOM     18  C   UNL     1       2.368   3.797  21.337  0.00  0.00    +0.000 C 
BRANCH  18  19
ATOM     19  S   UNL     1       2.143   2.346  20.259  0.00  0.00    +0.000 S 
BRANCH  19  21
ATOM     20  N   UNL     1       3.817   3.348  18.341  0.00  0.00    +0.000 N 
ATOM     21  C   UNL     1       2.552   2.926  18.676  0.00  0.00    +0.000 A 
ATOM     22  N   UNL     1       1.767   3.028  17.633  0.00  0.00    +0.000 NA
ATOM     23  N   UNL     1       2.524   3.516  16.580  0.00  0.00    +0.000 NA
ATOM     24  C   UNL     1       3.762   3.697  17.008  0.00  0.00    +0.000 A 
BRANCH  24  25
ATOM     25  C   UNL     1       4.846   4.174  16.193  0.00  0.00    +0.000 A 
ATOM     26  C   UNL     1       5.084   5.462  15.735  0.00  0.00    +0.000 A 
ATOM     27  C   UNL     1       6.284   5.437  14.973  0.00  0.00    +0.000 A 
ATOM     28  C   UNL     1       6.715   4.136  14.999  0.00  0.00    +0.000 A 
ATOM     29  O   UNL     1       5.860   3.369  15.721  0.00  0.00    +0.000 OA
ENDBRANCH  24  25
BRANCH  20  31
ATOM     30  C   UNL     1       5.435   4.852  19.438  0.00  0.00    +0.000 C 
ATOM     31  C   UNL     1       4.973   3.424  19.209  0.00  0.00    +0.000 C 
ENDBRANCH  20  31
ENDBRANCH  19  21
ENDBRANCH  18  19
ENDBRANCH   1  18
TORSDOF 7
ENDMDL
MODEL 4
REMARK VINA RESULT:      -7.6      1.702      2.643
REMARK  Name = 
REMARK  10 active torsions:
REMARK  status: ('A' for Active; 'I' for Inactive)
REMARK    1  A    between atoms: C_1  and  C_2
REMARK    2  A    between atoms: C_2  and  N_3
REMARK    3  A    between atoms: C_4  and  S_5
REMARK    4  A    between atoms: S_5  and  C_6
REMARK    5  A    between atoms: C_6  and  C_7
REMARK    6  A    between atoms: N_9  and  C_10
REMARK    7  A    between atoms: C_12  and  C_13
REMARK    8  A    between atoms: C_15  and  C_16
REMARK    9  A    between atoms: C_19  and  O_20
REMARK   10  A    between atoms: C_24  and  C_25
REMARK                            x       y       z     vdW  Elec       q    Type
REMARK                         _______ _______ _______ _____ _____    ______ ____
ROOT
ATOM      1  C   UNL     1       8.867   9.754  18.814  0.00  0.00    +0.000 C 
ATOM      2  O   UNL     1       8.298  10.485  18.005  0.00  0.00    +0.000 OA
ATOM      3  N   UNL     1       9.702  10.191  19.822  0.00  0.00    +0.000 N 
ATOM      4  H   UNL     1      10.228   9.498  20.345  0.00  0.00    +0.000 HD
ENDROOT
BRANCH   3   5
ATOM      5  C   UNL     1       9.949  11.510  20.134  0.00  0.00    +0.000 A 
ATOM      6  O   UNL     1       9.321  12.118  21.190  0.00  0.00    +0.000 OA
ATOM      7  C   UNL     1       9.778  13.418  21.284  0.00  0.00    +0.000 A 
ATOM      8  C   UNL     1       9.222  14.221  22.392  0.00  0.00    +0.000 C 
ATOM      9  C   UNL     1      10.684  13.652  20.275  0.00  0.00    +0.000 A 
ATOM     10  C   UNL     1      11.395  14.823  19.950  0.00  0.00    +0.000 A 
ATOM     11  C   UNL     1      11.384  16.177  20.567  0.00  0.00    +0.000 C 
ATOM     12  N   UNL     1      12.211  14.616  18.854  0.00  0.00    +0.000 NA
ATOM     13  N   UNL     1      12.333  13.342  18.122  0.00  0.00    +0.000 NA
ATOM     14  C   UNL     1      11.634  12.236  18.466  0.00  0.00    +0.000 A 
ATOM     15  C   UNL     1      10.802  12.416  19.559  0.00  0.00    +0.000 A 
BRANCH  14  16
ATOM     16  O   UNL     1      11.807  11.092  17.741  0.00  0.00    +0.000 OA
ATOM     17  H   UNL     1      12.495  10.644  18.269  0.00  0.00    +0.000 HD
ENDBRANCH  14  16
ENDBRANCH   3   5
BRANCH   1  18
ATOM     18  C   UNL     1       8.716   8.222  18.687  0.00  0.00    +0.000 C 
BRANCH  18  19
ATOM     19  S   UNL     1       7.551   7.713  17.382  0.00  0.00    +0.000 S 
BRANCH  19  21
ATOM     20  N   UNL     1       5.508   5.901  17.549  0.00  0.00    +0.000 N 
ATOM     21  C   UNL     1       6.675   6.391  18.086  0.00  0.00    +0.000 A 
ATOM     22  N   UNL     1       6.986   5.703  19.156  0.00  0.00    +0.000 NA
ATOM     23  N   UNL     1       6.015   4.730  19.330  0.00  0.00    +0.000 NA
ATOM     24  C   UNL     1       5.132   4.845  18.352  0.00  0.00    +0.000 A 
BRANCH  24  25
ATOM     25  C   UNL     1       3.986   3.994  18.183  0.00  0.00    +0.000 A 
ATOM     26  C   UNL     1       3.949   2.627  17.947  0.00  0.00    +0.000 A 
ATOM     27  C   UNL     1       2.585   2.238  17.859  0.00  0.00    +0.000 A 
ATOM     28  C   UNL     1       1.857   3.386  18.040  0.00  0.00    +0.000 A 
ATOM     29  O   UNL     1       2.685   4.445  18.229  0.00  0.00    +0.000 OA
ENDBRANCH  24  25
BRANCH  20  31
ATOM     30  C   UNL     1       5.280   5.740  15.098  0.00  0.00    +0.000 C 
ATOM     31  C   UNL     1       4.806   6.395  16.383  0.00  0.00    +0.000 C 
ENDBRANCH  20  31
ENDBRANCH  19  21
ENDBRANCH  18  19
ENDBRANCH   1  18
TORSDOF 7
ENDMDL
MODEL 5
REMARK VINA RESULT:      -7.6      1.807      2.601
REMARK  Name = 
REMARK  10 active torsions:
REMARK  status: ('A' for Active; 'I' for Inactive)
REMARK    1  A    between atoms: C_1  and  C_2
REMARK    2  A    between atoms: C_2  and  N_3
REMARK    3  A    between atoms: C_4  and  S_5
REMARK    4  A    between atoms: S_5  and  C_6
REMARK    5  A    between atoms: C_6  and  C_7
REMARK    6  A    between atoms: N_9  and  C_10
REMARK    7  A    between atoms: C_12  and  C_13
REMARK    8  A    between atoms: C_15  and  C_16
REMARK    9  A    between atoms: C_19  and  O_20
REMARK   10  A    between atoms: C_24  and  C_25
REMARK                            x       y       z     vdW  Elec       q    Type
REMARK                         _______ _______ _______ _____ _____    ______ ____
ROOT
ATOM      1  C   UNL     1       8.668  10.041  18.464  0.00  0.00    +0.000 C 
ATOM      2  O   UNL     1       7.993  10.555  17.573  0.00  0.00    +0.000 OA
ATOM      3  N   UNL     1       9.527  10.725  19.299  0.00  0.00    +0.000 N 
ATOM      4  H   UNL     1      10.137  10.186  19.906  0.00  0.00    +0.000 HD
ENDROOT
BRANCH   3   5
ATOM      5  C   UNL     1       9.687  12.092  19.327  0.00  0.00    +0.000 A 
ATOM      6  O   UNL     1       8.877  12.886  20.098  0.00  0.00    +0.000 OA
ATOM      7  C   UNL     1       9.282  14.198  19.954  0.00  0.00    +0.000 A 
ATOM      8  C   UNL     1       8.530  15.198  20.740  0.00  0.00    +0.000 C 
ATOM      9  C   UNL     1      10.339  14.251  19.075  0.00  0.00    +0.000 A 
ATOM     10  C   UNL     1      11.068  15.359  18.600  0.00  0.00    +0.000 A 
ATOM     11  C   UNL     1      10.922  16.815  18.872  0.00  0.00    +0.000 C 
ATOM     12  N   UNL     1      12.060  14.957  17.726  0.00  0.00    +0.000 NA
ATOM     13  N   UNL     1      12.332  13.560  17.343  0.00  0.00    +0.000 NA
ATOM     14  C   UNL     1      11.611  12.521  17.822  0.00  0.00    +0.000 A 
ATOM     15  C   UNL     1      10.604  12.895  18.697  0.00  0.00    +0.000 A 
BRANCH  14  16
ATOM     16  O   UNL     1      11.930  11.255  17.424  0.00  0.00    +0.000 OA
ATOM     17  H   UNL     1      11.414  11.188  16.598  0.00  0.00    +0.000 HD
ENDBRANCH  14  16
ENDBRANCH   3   5
BRANCH   1  18
ATOM     18  C   UNL     1       8.630   8.508  18.651  0.00  0.00    +0.000 C 
BRANCH  18  19
ATOM     19  S   UNL     1       7.603   7.650  17.415  0.00  0.00    +0.000 S 
BRANCH  19  21
ATOM     20  N   UNL     1       5.584   5.909  18.030  0.00  0.00    +0.000 N 
ATOM     21  C   UNL     1       6.853   6.364  18.304  0.00  0.00    +0.000 A 
ATOM     22  N   UNL     1       7.358   5.674  19.297  0.00  0.00    +0.000 NA
ATOM     23  N   UNL     1       6.415   4.736  19.683  0.00  0.00    +0.000 NA
ATOM     24  C   UNL     1       5.351   4.873  18.909  0.00  0.00    +0.000 A 
BRANCH  24  25
ATOM     25  C   UNL     1       4.169   4.060  18.994  0.00  0.00    +0.000 A 
ATOM     26  C   UNL     1       3.906   2.845  18.376  0.00  0.00    +0.000 A 
ATOM     27  C   UNL     1       2.607   2.429  18.773  0.00  0.00    +0.000 A 
ATOM     28  C   UNL     1       2.139   3.410  19.609  0.00  0.00    +0.000 A 
ATOM     29  O   UNL     1       3.063   4.394  19.744  0.00  0.00    +0.000 OA
ENDBRANCH  24  25
BRANCH  20  31
ATOM     30  C   UNL     1       3.626   7.351  17.617  0.00  0.00    +0.000 C 
ATOM     31  C   UNL     1       4.670   6.418  17.029  0.00  0.00    +0.000 C 
ENDBRANCH  20  31
ENDBRANCH  19  21
ENDBRANCH  18  19
ENDBRANCH   1  18
TORSDOF 7
ENDMDL
MODEL 6
REMARK VINA RESULT:      -7.5      1.120      1.266
REMARK  Name = 
REMARK  10 active torsions:
REMARK  status: ('A' for Active; 'I' for Inactive)
REMARK    1  A    between atoms: C_1  and  C_2
REMARK    2  A    between atoms: C_2  and  N_3
REMARK    3  A    between atoms: C_4  and  S_5
REMARK    4  A    between atoms: S_5  and  C_6
REMARK    5  A    between atoms: C_6  and  C_7
REMARK    6  A    between atoms: N_9  and  C_10
REMARK    7  A    between atoms: C_12  and  C_13
REMARK    8  A    between atoms: C_15  and  C_16
REMARK    9  A    between atoms: C_19  and  O_20
REMARK   10  A    between atoms: C_24  and  C_25
REMARK                            x       y       z     vdW  Elec       q    Type
REMARK                         _______ _______ _______ _____ _____    ______ ____
ROOT
ATOM      1  C   UNL     1       8.868   9.857  18.557  0.00  0.00    +0.000 C 
ATOM      2  O   UNL     1       8.189  10.543  17.794  0.00  0.00    +0.000 OA
ATOM      3  N   UNL     1       9.954  10.314  19.275  0.00  0.00    +0.000 N 
ATOM      4  H   UNL     1      10.525   9.633  19.767  0.00  0.00    +0.000 HD
ENDROOT
BRANCH   3   5
ATOM      5  C   UNL     1      10.384  11.621  19.321  0.00  0.00    +0.000 A 
ATOM      6  O   UNL     1      11.092  12.171  18.284  0.00  0.00    +0.000 OA
ATOM      7  C   UNL     1      11.363  13.491  18.588  0.00  0.00    +0.000 A 
ATOM      8  C   UNL     1      12.104  14.253  17.562  0.00  0.00    +0.000 C 
ATOM      9  C   UNL     1      10.848  13.783  19.830  0.00  0.00    +0.000 A 
ATOM     10  C   UNL     1      10.892  14.980  20.570  0.00  0.00    +0.000 A 
ATOM     11  C   UNL     1      11.520  16.295  20.266  0.00  0.00    +0.000 C 
ATOM     12  N   UNL     1      10.237  14.837  21.779  0.00  0.00    +0.000 NA
ATOM     13  N   UNL     1       9.572  13.604  22.237  0.00  0.00    +0.000 NA
ATOM     14  C   UNL     1       9.549  12.472  21.496  0.00  0.00    +0.000 A 
ATOM     15  C   UNL     1      10.204  12.585  20.280  0.00  0.00    +0.000 A 
BRANCH  14  16
ATOM     16  O   UNL     1       8.907  11.373  21.988  0.00  0.00    +0.000 OA
ATOM     17  H   UNL     1       7.994  11.545  21.688  0.00  0.00    +0.000 HD
ENDBRANCH  14  16
ENDBRANCH   3   5
BRANCH   1  18
ATOM     18  C   UNL     1       8.554   8.351  18.701  0.00  0.00    +0.000 C 
BRANCH  18  19
ATOM     19  S   UNL     1       7.474   7.705  17.384  0.00  0.00    +0.000 S 
BRANCH  19  21
ATOM     20  N   UNL     1       5.479   5.874  17.781  0.00  0.00    +0.000 N 
ATOM     21  C   UNL     1       6.757   6.287  18.080  0.00  0.00    +0.000 A 
ATOM     22  N   UNL     1       7.299   5.449  18.929  0.00  0.00    +0.000 NA
ATOM     23  N   UNL     1       6.371   4.455  19.192  0.00  0.00    +0.000 NA
ATOM     24  C   UNL     1       5.280   4.708  18.489  0.00  0.00    +0.000 A 
BRANCH  24  25
ATOM     25  C   UNL     1       4.102   3.884  18.483  0.00  0.00    +0.000 A 
ATOM     26  C   UNL     1       3.171   3.696  19.495  0.00  0.00    +0.000 A 
ATOM     27  C   UNL     1       2.182   2.796  19.013  0.00  0.00    +0.000 A 
ATOM     28  C   UNL     1       2.561   2.474  17.735  0.00  0.00    +0.000 A 
ATOM     29  O   UNL     1       3.712   3.115  17.409  0.00  0.00    +0.000 OA
ENDBRANCH  24  25
BRANCH  20  31
ATOM     30  C   UNL     1       3.488   7.326  17.679  0.00  0.00    +0.000 C 
ATOM     31  C   UNL     1       4.529   6.532  16.910  0.00  0.00    +0.000 C 
ENDBRANCH  20  31
ENDBRANCH  19  21
ENDBRANCH  18  19
ENDBRANCH   1  18
TORSDOF 7
ENDMDL
MODEL 7
REMARK VINA RESULT:      -7.4      6.086      8.030
REMARK  Name = 
REMARK  10 active torsions:
REMARK  status: ('A' for Active; 'I' for Inactive)
REMARK    1  A    between atoms: C_1  and  C_2
REMARK    2  A    between atoms: C_2  and  N_3
REMARK    3  A    between atoms: C_4  and  S_5
REMARK    4  A    between atoms: S_5  and  C_6
REMARK    5  A    between atoms: C_6  and  C_7
REMARK    6  A    between atoms: N_9  and  C_10
REMARK    7  A    between atoms: C_12  and  C_13
REMARK    8  A    between atoms: C_15  and  C_16
REMARK    9  A    between atoms: C_19  and  O_20
REMARK   10  A    between atoms: C_24  and  C_25
REMARK                            x       y       z     vdW  Elec       q    Type
REMARK                         _______ _______ _______ _____ _____    ______ ____
ROOT
ATOM      1  C   UNL     1       2.665   5.668  19.309  0.00  0.00    +0.000 C 
ATOM      2  O   UNL     1       1.586   5.337  18.819  0.00  0.00    +0.000 OA
ATOM      3  N   UNL     1       2.899   6.854  19.974  0.00  0.00    +0.000 N 
ATOM      4  H   UNL     1       3.857   7.088  20.217  0.00  0.00    +0.000 HD
ENDROOT
BRANCH   3   5
ATOM      5  C   UNL     1       1.944   7.801  20.272  0.00  0.00    +0.000 A 
ATOM      6  O   UNL     1       1.371   7.862  21.516  0.00  0.00    +0.000 OA
ATOM      7  C   UNL     1       0.478   8.916  21.537  0.00  0.00    +0.000 A 
ATOM      8  C   UNL     1      -0.219   9.148  22.819  0.00  0.00    +0.000 C 
ATOM      9  C   UNL     1       0.463   9.519  20.300  0.00  0.00    +0.000 A 
ATOM     10  C   UNL     1      -0.297  10.609  19.835  0.00  0.00    +0.000 A 
ATOM     11  C   UNL     1      -1.331  11.440  20.509  0.00  0.00    +0.000 C 
ATOM     12  N   UNL     1       0.007  10.894  18.517  0.00  0.00    +0.000 NA
ATOM     13  N   UNL     1       0.997  10.166  17.703  0.00  0.00    +0.000 NA
ATOM     14  C   UNL     1       1.710   9.123  18.187  0.00  0.00    +0.000 A 
ATOM     15  C   UNL     1       1.421   8.811  19.506  0.00  0.00    +0.000 A 
BRANCH  14  16
ATOM     16  O   UNL     1       2.613   8.504  17.372  0.00  0.00    +0.000 OA
ATOM     17  H   UNL     1       2.021   8.143  16.685  0.00  0.00    +0.000 HD
ENDBRANCH  14  16
ENDBRANCH   3   5
BRANCH   1  18
ATOM     18  C   UNL     1       3.891   4.746  19.132  0.00  0.00    +0.000 C 
BRANCH  18  19
ATOM     19  S   UNL     1       5.484   5.619  19.270  0.00  0.00    +0.000 S 
BRANCH  19  21
ATOM     20  N   UNL     1       5.970   5.103  16.627  0.00  0.00    +0.000 N 
ATOM     21  C   UNL     1       6.411   5.028  17.928  0.00  0.00    +0.000 A 
ATOM     22  N   UNL     1       7.595   4.469  17.956  0.00  0.00    +0.000 NA
ATOM     23  N   UNL     1       7.956   4.178  16.651  0.00  0.00    +0.000 NA
ATOM     24  C   UNL     1       6.979   4.572  15.852  0.00  0.00    +0.000 A 
BRANCH  24  25
ATOM     25  C   UNL     1       6.998   4.456  14.419  0.00  0.00    +0.000 A 
ATOM     26  C   UNL     1       7.721   5.201  13.498  0.00  0.00    +0.000 A 
ATOM     27  C   UNL     1       7.412   4.708  12.202  0.00  0.00    +0.000 A 
ATOM     28  C   UNL     1       6.513   3.690  12.394  0.00  0.00    +0.000 A 
ATOM     29  O   UNL     1       6.253   3.534  13.717  0.00  0.00    +0.000 OA
ENDBRANCH  24  25
BRANCH  20  31
ATOM     30  C   UNL     1       4.839   6.986  15.506  0.00  0.00    +0.000 C 
ATOM     31  C   UNL     1       4.702   5.624  16.162  0.00  0.00    +0.000 C 
ENDBRANCH  20  31
ENDBRANCH  19  21
ENDBRANCH  18  19
ENDBRANCH   1  18
TORSDOF 7
ENDMDL
MODEL 8
REMARK VINA RESULT:      -7.4      1.270      2.246
REMARK  Name = 
REMARK  10 active torsions:
REMARK  status: ('A' for Active; 'I' for Inactive)
REMARK    1  A    between atoms: C_1  and  C_2
REMARK    2  A    between atoms: C_2  and  N_3
REMARK    3  A    between atoms: C_4  and  S_5
REMARK    4  A    between atoms: S_5  and  C_6
REMARK    5  A    between atoms: C_6  and  C_7
REMARK    6  A    between atoms: N_9  and  C_10
REMARK    7  A    between atoms: C_12  and  C_13
REMARK    8  A    between atoms: C_15  and  C_16
REMARK    9  A    between atoms: C_19  and  O_20
REMARK   10  A    between atoms: C_24  and  C_25
REMARK                            x       y       z     vdW  Elec       q    Type
REMARK                         _______ _______ _______ _____ _____    ______ ____
ROOT
ATOM      1  C   UNL     1       8.279   9.141  18.393  0.00  0.00    +0.000 C 
ATOM      2  O   UNL     1       7.617   9.974  17.774  0.00  0.00    +0.000 OA
ATOM      3  N   UNL     1       9.191   9.435  19.386  0.00  0.00    +0.000 N 
ATOM      4  H   UNL     1       9.781   8.686  19.733  0.00  0.00    +0.000 HD
ENDROOT
BRANCH   3   5
ATOM      5  C   UNL     1       9.429  10.691  19.899  0.00  0.00    +0.000 A 
ATOM      6  O   UNL     1       8.941  11.059  21.126  0.00  0.00    +0.000 OA
ATOM      7  C   UNL     1       9.356  12.349  21.395  0.00  0.00    +0.000 A 
ATOM      8  C   UNL     1       8.939  12.905  22.699  0.00  0.00    +0.000 C 
ATOM      9  C   UNL     1      10.093  12.817  20.331  0.00  0.00    +0.000 A 
ATOM     10  C   UNL     1      10.702  14.071  20.134  0.00  0.00    +0.000 A 
ATOM     11  C   UNL     1      10.730  15.290  20.987  0.00  0.00    +0.000 C 
ATOM     12  N   UNL     1      11.354  14.116  18.917  0.00  0.00    +0.000 NA
ATOM     13  N   UNL     1      11.417  13.003  17.952  0.00  0.00    +0.000 NA
ATOM     14  C   UNL     1      10.820  11.810  18.178  0.00  0.00    +0.000 A 
ATOM     15  C   UNL     1      10.152  11.739  19.390  0.00  0.00    +0.000 A 
BRANCH  14  16
ATOM     16  O   UNL     1      10.929  10.828  17.237  0.00  0.00    +0.000 OA
ATOM     17  H   UNL     1      10.260  10.193  17.557  0.00  0.00    +0.000 HD
ENDBRANCH  14  16
ENDBRANCH   3   5
BRANCH   1  18
ATOM     18  C   UNL     1       8.158   7.648  18.015  0.00  0.00    +0.000 C 
BRANCH  18  19
ATOM     19  S   UNL     1       6.565   7.222  17.240  0.00  0.00    +0.000 S 
BRANCH  19  21
ATOM     20  N   UNL     1       4.683   5.740  18.564  0.00  0.00    +0.000 N 
ATOM     21  C   UNL     1       5.993   5.868  18.162  0.00  0.00    +0.000 A 
ATOM     22  N   UNL     1       6.679   4.831  18.574  0.00  0.00    +0.000 NA
ATOM     23  N   UNL     1       5.809   3.992  19.252  0.00  0.00    +0.000 NA
ATOM     24  C   UNL     1       4.605   4.538  19.233  0.00  0.00    +0.000 A 
BRANCH  24  25
ATOM     25  C   UNL     1       3.432   3.948  19.819  0.00  0.00    +0.000 A 
ATOM     26  C   UNL     1       2.691   4.389  20.907  0.00  0.00    +0.000 A 
ATOM     27  C   UNL     1       1.619   3.476  21.100  0.00  0.00    +0.000 A 
ATOM     28  C   UNL     1       1.761   2.522  20.125  0.00  0.00    +0.000 A 
ATOM     29  O   UNL     1       2.846   2.791  19.356  0.00  0.00    +0.000 OA
ENDBRANCH  24  25
BRANCH  20  31
ATOM     30  C   UNL     1       2.385   6.025  17.716  0.00  0.00    +0.000 C 
ATOM     31  C   UNL     1       3.604   6.679  18.341  0.00  0.00    +0.000 C 
ENDBRANCH  20  31
ENDBRANCH  19  21
ENDBRANCH  18  19
ENDBRANCH   1  18
TORSDOF 7
ENDMDL
MODEL 9
REMARK VINA RESULT:      -7.3      6.435     10.379
REMARK  Name = 
REMARK  10 active torsions:
REMARK  status: ('A' for Active; 'I' for Inactive)
REMARK    1  A    between atoms: C_1  and  C_2
REMARK    2  A    between atoms: C_2  and  N_3
REMARK    3  A    between atoms: C_4  and  S_5
REMARK    4  A    between atoms: S_5  and  C_6
REMARK    5  A    between atoms: C_6  and  C_7
REMARK    6  A    between atoms: N_9  and  C_10
REMARK    7  A    between atoms: C_12  and  C_13
REMARK    8  A    between atoms: C_15  and  C_16
REMARK    9  A    between atoms: C_19  and  O_20
REMARK   10  A    between atoms: C_24  and  C_25
REMARK                            x       y       z     vdW  Elec       q    Type
REMARK                         _______ _______ _______ _____ _____    ______ ____
ROOT
ATOM      1  C   UNL     1       1.802   8.521  18.753  0.00  0.00    +0.000 C 
ATOM      2  O   UNL     1       1.346   8.204  17.654  0.00  0.00    +0.000 OA
ATOM      3  N   UNL     1       2.273   7.632  19.697  0.00  0.00    +0.000 N 
ATOM      4  H   UNL     1       2.498   7.988  20.621  0.00  0.00    +0.000 HD
ENDROOT
BRANCH   3   5
ATOM      5  C   UNL     1       2.394   6.272  19.520  0.00  0.00    +0.000 A 
ATOM      6  O   UNL     1       1.647   5.392  20.258  0.00  0.00    +0.000 OA
ATOM      7  C   UNL     1       1.951   4.107  19.851  0.00  0.00    +0.000 A 
ATOM      8  C   UNL     1       1.213   3.021  20.529  0.00  0.00    +0.000 C 
ATOM      9  C   UNL     1       2.910   4.161  18.865  0.00  0.00    +0.000 A 
ATOM     10  C   UNL     1       3.547   3.120  18.164  0.00  0.00    +0.000 A 
ATOM     11  C   UNL     1       3.411   1.642  18.272  0.00  0.00    +0.000 C 
ATOM     12  N   UNL     1       4.450   3.624  17.247  0.00  0.00    +0.000 NA
ATOM     13  N   UNL     1       4.712   5.057  17.021  0.00  0.00    +0.000 NA
ATOM     14  C   UNL     1       4.077   6.030  17.715  0.00  0.00    +0.000 A 
ATOM     15  C   UNL     1       3.170   5.553  18.646  0.00  0.00    +0.000 A 
BRANCH  14  16
ATOM     16  O   UNL     1       4.371   7.335  17.442  0.00  0.00    +0.000 OA
ATOM     17  H   UNL     1       4.763   7.615  18.290  0.00  0.00    +0.000 HD
ENDBRANCH  14  16
ENDBRANCH   3   5
BRANCH   1  18
ATOM     18  C   UNL     1       1.803  10.008  19.171  0.00  0.00    +0.000 C 
BRANCH  18  19
ATOM     19  S   UNL     1       0.162  10.791  19.074  0.00  0.00    +0.000 S 
BRANCH  19  21
ATOM     20  N   UNL     1      -1.325  11.866  21.104  0.00  0.00    +0.000 N 
ATOM     21  C   UNL     1      -0.287  11.045  20.731  0.00  0.00    +0.000 A 
ATOM     22  N   UNL     1       0.257  10.516  21.798  0.00  0.00    +0.000 NA
ATOM     23  N   UNL     1      -0.438  10.983  22.902  0.00  0.00    +0.000 NA
ATOM     24  C   UNL     1      -1.398  11.787  22.478  0.00  0.00    +0.000 A 
BRANCH  24  25
ATOM     25  C   UNL     1      -2.345  12.449  23.334  0.00  0.00    +0.000 A 
ATOM     26  C   UNL     1      -2.336  13.762  23.785  0.00  0.00    +0.000 A 
ATOM     27  C   UNL     1      -3.485  13.949  24.599  0.00  0.00    +0.000 A 
ATOM     28  C   UNL     1      -4.137  12.742  24.609  0.00  0.00    +0.000 A 
ATOM     29  O   UNL     1      -3.460  11.835  23.860  0.00  0.00    +0.000 OA
ENDBRANCH  24  25
BRANCH  20  31
ATOM     30  C   UNL     1      -1.676  14.093  20.103  0.00  0.00    +0.000 C 
ATOM     31  C   UNL     1      -2.167  12.662  20.236  0.00  0.00    +0.000 C 
ENDBRANCH  20  31
ENDBRANCH  19  21
ENDBRANCH  18  19
ENDBRANCH   1  18
TORSDOF 7
ENDMDL
