MODEL 1
REMARK VINA RESULT:      -9.6      0.000      0.000
REMARK  Name = 
REMARK  5 active torsions:
REMARK  status: ('A' for Active; 'I' for Inactive)
REMARK    1  A    between atoms: C_14  and  C_15
REMARK    2  A    between atoms: C_16  and  C_17
REMARK    3  A    between atoms: C_21  and  C_22
REMARK    4  A    between atoms: C_22  and  C_23
REMARK    5  A    between atoms: C_23  and  N_24
REMARK                            x       y       z     vdW  Elec       q    Type
REMARK                         _______ _______ _______ _____ _____    ______ ____
ROOT
ATOM      1  O   UNL     1       1.588   1.970  19.290  0.00  0.00    +0.000 OA
ATOM      2  C   UNL     1       1.664   3.152  19.550  0.00  0.00    +0.000 C 
ATOM      3  N   UNL     1       1.181   3.794  20.716  0.00  0.00    +0.000 N 
ATOM      4  C   UNL     1       1.360   5.257  20.672  0.00  0.00    +0.000 C 
ATOM      5  C   UNL     1       2.371   5.310  19.621  0.00  0.00    +0.000 A 
ATOM      6  N   UNL     1       3.356   6.151  19.254  0.00  0.00    +0.000 N 
ATOM      7  C   UNL     1       4.075   5.546  18.228  0.00  0.00    +0.000 A 
ATOM      8  C   UNL     1       3.411   4.355  17.886  0.00  0.00    +0.000 A 
ATOM      9  C   UNL     1       3.832   3.621  16.766  0.00  0.00    +0.000 A 
ATOM     10  C   UNL     1       4.936   4.083  16.029  0.00  0.00    +0.000 A 
ATOM     11  C   UNL     1       5.689   5.188  16.462  0.00  0.00    +0.000 A 
ATOM     12  C   UNL     1       6.872   5.604  15.849  0.00  0.00    +0.000 A 
ATOM     13  N   UNL     1       7.676   6.612  16.287  0.00  0.00    +0.000 NA
ATOM     14  C   UNL     1       7.295   7.273  17.404  0.00  0.00    +0.000 A 
ATOM     15  C   UNL     1       6.100   6.983  18.063  0.00  0.00    +0.000 A 
ATOM     16  C   UNL     1       5.285   5.932  17.586  0.00  0.00    +0.000 A 
ATOM     17  C   UNL     1       2.466   4.151  18.904  0.00  0.00    +0.000 A 
ATOM     18  H   UNL     1       1.538   3.336  21.546  0.00  0.00    +0.000 HD
ATOM     19  H   UNL     1       3.577   7.042  19.673  0.00  0.00    +0.000 HD
ENDROOT
BRANCH  14  20
ATOM     20  C   UNL     1       8.187   8.333  17.922  0.00  0.00    +0.000 C 
ATOM     21  C   UNL     1       8.024   9.662  17.760  0.00  0.00    +0.000 C 
BRANCH  21  22
ATOM     22  C   UNL     1       8.898  10.700  18.360  0.00  0.00    +0.000 A 
ATOM     23  C   UNL     1       9.784  10.386  19.398  0.00  0.00    +0.000 A 
ATOM     24  C   UNL     1      10.530  11.375  20.036  0.00  0.00    +0.000 A 
ATOM     25  C   UNL     1      10.388  12.705  19.659  0.00  0.00    +0.000 A 
ATOM     26  C   UNL     1       9.526  13.071  18.617  0.00  0.00    +0.000 A 
ATOM     27  C   UNL     1       8.779  12.053  17.980  0.00  0.00    +0.000 A 
BRANCH  26  28
ATOM     28  C   UNL     1       9.298  14.533  18.252  0.00  0.00    +0.000 C 
BRANCH  28  29
ATOM     29  C   UNL     1       8.003  15.158  18.828  0.00  0.00    +0.000 C 
BRANCH  29  30
ATOM     30  N   UNL     1       7.521  16.388  18.166  0.00  0.00    +0.000 NA
ATOM     31  C   UNL     1       8.592  17.423  18.160  0.00  0.00    +0.000 C 
ATOM     32  C   UNL     1       8.851  18.078  19.532  0.00  0.00    +0.000 C 
ATOM     33  O   UNL     1       7.652  18.627  20.090  0.00  0.00    +0.000 OA
ATOM     34  C   UNL     1       6.632  17.626  20.194  0.00  0.00    +0.000 C 
ATOM     35  C   UNL     1       6.338  16.988  18.826  0.00  0.00    +0.000 C 
ENDBRANCH  29  30
ENDBRANCH  28  29
ENDBRANCH  26  28
ENDBRANCH  21  22
ENDBRANCH  14  20
TORSDOF 5
ENDMDL
MODEL 2
REMARK VINA RESULT:      -9.5      0.781      1.183
REMARK  Name = 
REMARK  5 active torsions:
REMARK  status: ('A' for Active; 'I' for Inactive)
REMARK    1  A    between atoms: C_14  and  C_15
REMARK    2  A    between atoms: C_16  and  C_17
REMARK    3  A    between atoms: C_21  and  C_22
REMARK    4  A    between atoms: C_22  and  C_23
REMARK    5  A    between atoms: C_23  and  N_24
REMARK                            x       y       z     vdW  Elec       q    Type
REMARK                         _______ _______ _______ _____ _____    ______ ____
ROOT
ATOM      1  O   UNL     1       1.119   2.382  19.393  0.00  0.00    +0.000 OA
ATOM      2  C   UNL     1       1.288   3.558  19.638  0.00  0.00    +0.000 C 
ATOM      3  N   UNL     1       0.855   4.251  20.795  0.00  0.00    +0.000 N 
ATOM      4  C   UNL     1       1.148   5.695  20.733  0.00  0.00    +0.000 C 
ATOM      5  C   UNL     1       2.161   5.655  19.684  0.00  0.00    +0.000 A 
ATOM      6  N   UNL     1       3.209   6.412  19.308  0.00  0.00    +0.000 N 
ATOM      7  C   UNL     1       3.879   5.739  18.290  0.00  0.00    +0.000 A 
ATOM      8  C   UNL     1       3.125   4.600  17.963  0.00  0.00    +0.000 A 
ATOM      9  C   UNL     1       3.488   3.821  16.853  0.00  0.00    +0.000 A 
ATOM     10  C   UNL     1       4.625   4.185  16.112  0.00  0.00    +0.000 A 
ATOM     11  C   UNL     1       5.462   5.234  16.533  0.00  0.00    +0.000 A 
ATOM     12  C   UNL     1       6.674   5.549  15.916  0.00  0.00    +0.000 A 
ATOM     13  N   UNL     1       7.554   6.496  16.344  0.00  0.00    +0.000 NA
ATOM     14  C   UNL     1       7.225   7.199  17.451  0.00  0.00    +0.000 A 
ATOM     15  C   UNL     1       6.011   7.011  18.111  0.00  0.00    +0.000 A 
ATOM     16  C   UNL     1       5.117   6.022  17.647  0.00  0.00    +0.000 A 
ATOM     17  C   UNL     1       2.166   4.483  18.982  0.00  0.00    +0.000 A 
ATOM     18  H   UNL     1       1.174   3.777  21.632  0.00  0.00    +0.000 HD
ATOM     19  H   UNL     1       3.499   7.288  19.716  0.00  0.00    +0.000 HD
ENDROOT
BRANCH  14  20
ATOM     20  C   UNL     1       8.197   8.192  17.958  0.00  0.00    +0.000 C 
ATOM     21  C   UNL     1       8.079   9.534  17.881  0.00  0.00    +0.000 C 
BRANCH  21  22
ATOM     22  C   UNL     1       9.038  10.501  18.470  0.00  0.00    +0.000 A 
ATOM     23  C   UNL     1       9.506  10.348  19.780  0.00  0.00    +0.000 A 
ATOM     24  C   UNL     1      10.322  11.309  20.374  0.00  0.00    +0.000 A 
ATOM     25  C   UNL     1      10.672  12.455  19.669  0.00  0.00    +0.000 A 
ATOM     26  C   UNL     1      10.243  12.649  18.350  0.00  0.00    +0.000 A 
ATOM     27  C   UNL     1       9.416  11.662  17.765  0.00  0.00    +0.000 A 
BRANCH  26  28
ATOM     28  C   UNL     1      10.549  13.939  17.598  0.00  0.00    +0.000 C 
BRANCH  28  29
ATOM     29  C   UNL     1       9.524  15.081  17.811  0.00  0.00    +0.000 C 
BRANCH  29  30
ATOM     30  N   UNL     1       8.944  15.196  19.165  0.00  0.00    +0.000 NA
ATOM     31  C   UNL     1       7.548  15.707  19.085  0.00  0.00    +0.000 C 
ATOM     32  C   UNL     1       7.439  17.207  18.744  0.00  0.00    +0.000 C 
ATOM     33  O   UNL     1       8.197  18.012  19.655  0.00  0.00    +0.000 OA
ATOM     34  C   UNL     1       9.569  17.599  19.680  0.00  0.00    +0.000 C 
ATOM     35  C   UNL     1       9.696  16.112  20.053  0.00  0.00    +0.000 C 
ENDBRANCH  29  30
ENDBRANCH  28  29
ENDBRANCH  26  28
ENDBRANCH  21  22
ENDBRANCH  14  20
TORSDOF 5
ENDMDL
MODEL 3
REMARK VINA RESULT:      -9.4      1.546      1.933
REMARK  Name = 
REMARK  5 active torsions:
REMARK  status: ('A' for Active; 'I' for Inactive)
REMARK    1  A    between atoms: C_14  and  C_15
REMARK    2  A    between atoms: C_16  and  C_17
REMARK    3  A    between atoms: C_21  and  C_22
REMARK    4  A    between atoms: C_22  and  C_23
REMARK    5  A    between atoms: C_23  and  N_24
REMARK                            x       y       z     vdW  Elec       q    Type
REMARK                         _______ _______ _______ _____ _____    ______ ____
ROOT
ATOM      1  O   UNL     1       1.519   1.813  19.209  0.00  0.00    +0.000 OA
ATOM      2  C   UNL     1       1.615   2.981  19.520  0.00  0.00    +0.000 C 
ATOM      3  N   UNL     1       1.136   3.581  20.711  0.00  0.00    +0.000 N 
ATOM      4  C   UNL     1       1.342   5.041  20.731  0.00  0.00    +0.000 C 
ATOM      5  C   UNL     1       2.361   5.120  19.690  0.00  0.00    +0.000 A 
ATOM      6  N   UNL     1       3.363   5.958  19.365  0.00  0.00    +0.000 N 
ATOM      7  C   UNL     1       4.078   5.385  18.318  0.00  0.00    +0.000 A 
ATOM      8  C   UNL     1       3.395   4.223  17.921  0.00  0.00    +0.000 A 
ATOM      9  C   UNL     1       3.810   3.530  16.773  0.00  0.00    +0.000 A 
ATOM     10  C   UNL     1       4.927   4.003  16.063  0.00  0.00    +0.000 A 
ATOM     11  C   UNL     1       5.697   5.074  16.548  0.00  0.00    +0.000 A 
ATOM     12  C   UNL     1       6.891   5.495  15.961  0.00  0.00    +0.000 A 
ATOM     13  N   UNL     1       7.710   6.468  16.447  0.00  0.00    +0.000 NA
ATOM     14  C   UNL     1       7.334   7.086  17.589  0.00  0.00    +0.000 A 
ATOM     15  C   UNL     1       6.130   6.790  18.228  0.00  0.00    +0.000 A 
ATOM     16  C   UNL     1       5.299   5.776  17.701  0.00  0.00    +0.000 A 
ATOM     17  C   UNL     1       2.440   3.992  18.924  0.00  0.00    +0.000 A 
ATOM     18  H   UNL     1       1.479   3.080  21.523  0.00  0.00    +0.000 HD
ATOM     19  H   UNL     1       3.597   6.826  19.824  0.00  0.00    +0.000 HD
ENDROOT
BRANCH  14  20
ATOM     20  C   UNL     1       8.242   8.106  18.158  0.00  0.00    +0.000 C 
ATOM     21  C   UNL     1       8.283   9.413  17.823  0.00  0.00    +0.000 C 
BRANCH  21  22
ATOM     22  C   UNL     1       9.155  10.424  18.471  0.00  0.00    +0.000 A 
ATOM     23  C   UNL     1      10.289  10.922  17.819  0.00  0.00    +0.000 A 
ATOM     24  C   UNL     1      11.170  11.790  18.463  0.00  0.00    +0.000 A 
ATOM     25  C   UNL     1      10.939  12.162  19.782  0.00  0.00    +0.000 A 
ATOM     26  C   UNL     1       9.811  11.704  20.474  0.00  0.00    +0.000 A 
ATOM     27  C   UNL     1       8.928  10.825  19.804  0.00  0.00    +0.000 A 
BRANCH  26  28
ATOM     28  C   UNL     1       9.593  12.036  21.945  0.00  0.00    +0.000 C 
BRANCH  28  29
ATOM     29  C   UNL     1       9.025  13.451  22.221  0.00  0.00    +0.000 C 
BRANCH  29  30
ATOM     30  N   UNL     1       7.854  13.854  21.417  0.00  0.00    +0.000 NA
ATOM     31  C   UNL     1       8.241  14.903  20.434  0.00  0.00    +0.000 C 
ATOM     32  C   UNL     1       8.488  16.294  21.053  0.00  0.00    +0.000 C 
ATOM     33  O   UNL     1       7.361  16.740  21.816  0.00  0.00    +0.000 OA
ATOM     34  C   UNL     1       7.025  15.788  22.833  0.00  0.00    +0.000 C 
ATOM     35  C   UNL     1       6.741  14.403  22.226  0.00  0.00    +0.000 C 
ENDBRANCH  29  30
ENDBRANCH  28  29
ENDBRANCH  26  28
ENDBRANCH  21  22
ENDBRANCH  14  20
TORSDOF 5
ENDMDL
MODEL 4
REMARK VINA RESULT:      -9.4      2.426      2.709
REMARK  Name = 
REMARK  5 active torsions:
REMARK  status: ('A' for Active; 'I' for Inactive)
REMARK    1  A    between atoms: C_14  and  C_15
REMARK    2  A    between atoms: C_16  and  C_17
REMARK    3  A    between atoms: C_21  and  C_22
REMARK    4  A    between atoms: C_22  and  C_23
REMARK    5  A    between atoms: C_23  and  N_24
REMARK                            x       y       z     vdW  Elec       q    Type
REMARK                         _______ _______ _______ _____ _____    ______ ____
ROOT
ATOM      1  O   UNL     1       1.832   1.714  19.619  0.00  0.00    +0.000 OA
ATOM      2  C   UNL     1       1.942   2.881  19.929  0.00  0.00    +0.000 C 
ATOM      3  N   UNL     1       1.577   3.466  21.167  0.00  0.00    +0.000 N 
ATOM      4  C   UNL     1       1.764   4.929  21.178  0.00  0.00    +0.000 C 
ATOM      5  C   UNL     1       2.671   5.031  20.040  0.00  0.00    +0.000 A 
ATOM      6  N   UNL     1       3.623   5.885  19.623  0.00  0.00    +0.000 N 
ATOM      7  C   UNL     1       4.236   5.330  18.504  0.00  0.00    +0.000 A 
ATOM      8  C   UNL     1       3.534   4.160  18.169  0.00  0.00    +0.000 A 
ATOM      9  C   UNL     1       3.840   3.482  16.978  0.00  0.00    +0.000 A 
ATOM     10  C   UNL     1       4.872   3.976  16.164  0.00  0.00    +0.000 A 
ATOM     11  C   UNL     1       5.673   5.055  16.577  0.00  0.00    +0.000 A 
ATOM     12  C   UNL     1       6.795   5.497  15.875  0.00  0.00    +0.000 A 
ATOM     13  N   UNL     1       7.646   6.479  16.285  0.00  0.00    +0.000 NA
ATOM     14  C   UNL     1       7.378   7.084  17.464  0.00  0.00    +0.000 A 
ATOM     15  C   UNL     1       6.249   6.766  18.219  0.00  0.00    +0.000 A 
ATOM     16  C   UNL     1       5.384   5.744  17.770  0.00  0.00    +0.000 A 
ATOM     17  C   UNL     1       2.688   3.909  19.261  0.00  0.00    +0.000 A 
ATOM     18  H   UNL     1       2.008   2.965  21.936  0.00  0.00    +0.000 HD
ATOM     19  H   UNL     1       3.891   6.753  20.063  0.00  0.00    +0.000 HD
ENDROOT
BRANCH  14  20
ATOM     20  C   UNL     1       8.325   8.113  17.947  0.00  0.00    +0.000 C 
ATOM     21  C   UNL     1       8.115   9.447  17.958  0.00  0.00    +0.000 C 
BRANCH  21  22
ATOM     22  C   UNL     1       9.057  10.444  18.521  0.00  0.00    +0.000 A 
ATOM     23  C   UNL     1      10.198  10.842  17.813  0.00  0.00    +0.000 A 
ATOM     24  C   UNL     1      11.140  11.698  18.381  0.00  0.00    +0.000 A 
ATOM     25  C   UNL     1      10.967  12.158  19.681  0.00  0.00    +0.000 A 
ATOM     26  C   UNL     1       9.836  11.802  20.427  0.00  0.00    +0.000 A 
ATOM     27  C   UNL     1       8.890  10.934  19.833  0.00  0.00    +0.000 A 
BRANCH  26  28
ATOM     28  C   UNL     1       9.678  12.231  21.881  0.00  0.00    +0.000 C 
BRANCH  28  29
ATOM     29  C   UNL     1       8.215  12.314  22.384  0.00  0.00    +0.000 C 
BRANCH  29  30
ATOM     30  N   UNL     1       7.508  13.586  22.133  0.00  0.00    +0.000 NA
ATOM     31  C   UNL     1       8.222  14.711  22.798  0.00  0.00    +0.000 C 
ATOM     32  C   UNL     1       8.064  14.748  24.332  0.00  0.00    +0.000 C 
ATOM     33  O   UNL     1       6.685  14.754  24.720  0.00  0.00    +0.000 OA
ATOM     34  C   UNL     1       5.995  13.626  24.168  0.00  0.00    +0.000 C 
ATOM     35  C   UNL     1       6.114  13.596  22.635  0.00  0.00    +0.000 C 
ENDBRANCH  29  30
ENDBRANCH  28  29
ENDBRANCH  26  28
ENDBRANCH  21  22
ENDBRANCH  14  20
TORSDOF 5
ENDMDL
MODEL 5
REMARK VINA RESULT:      -9.2      2.768      3.362
REMARK  Name = 
REMARK  5 active torsions:
REMARK  status: ('A' for Active; 'I' for Inactive)
REMARK    1  A    between atoms: C_14  and  C_15
REMARK    2  A    between atoms: C_16  and  C_17
REMARK    3  A    between atoms: C_21  and  C_22
REMARK    4  A    between atoms: C_22  and  C_23
REMARK    5  A    between atoms: C_23  and  N_24
REMARK                            x       y       z     vdW  Elec       q    Type
REMARK                         _______ _______ _______ _____ _____    ______ ____
ROOT
ATOM      1  O   UNL     1       2.060   1.421  19.524  0.00  0.00    +0.000 OA
ATOM      2  C   UNL     1       1.882   2.620  19.578  0.00  0.00    +0.000 C 
ATOM      3  N   UNL     1       1.126   3.319  20.551  0.00  0.00    +0.000 N 
ATOM      4  C   UNL     1       1.040   4.763  20.271  0.00  0.00    +0.000 C 
ATOM      5  C   UNL     1       2.165   4.862  19.347  0.00  0.00    +0.000 A 
ATOM      6  N   UNL     1       3.022   5.821  18.949  0.00  0.00    +0.000 N 
ATOM      7  C   UNL     1       3.980   5.227  18.132  0.00  0.00    +0.000 A 
ATOM      8  C   UNL     1       3.601   3.889  17.934  0.00  0.00    +0.000 A 
ATOM      9  C   UNL     1       4.306   3.095  17.015  0.00  0.00    +0.000 A 
ATOM     10  C   UNL     1       5.401   3.655  16.336  0.00  0.00    +0.000 A 
ATOM     11  C   UNL     1       5.869   4.943  16.649  0.00  0.00    +0.000 A 
ATOM     12  C   UNL     1       7.032   5.494  16.108  0.00  0.00    +0.000 A 
ATOM     13  N   UNL     1       7.567   6.699  16.449  0.00  0.00    +0.000 NA
ATOM     14  C   UNL     1       6.915   7.429  17.382  0.00  0.00    +0.000 A 
ATOM     15  C   UNL     1       5.711   7.005  17.944  0.00  0.00    +0.000 A 
ATOM     16  C   UNL     1       5.179   5.750  17.572  0.00  0.00    +0.000 A 
ATOM     17  C   UNL     1       2.572   3.652  18.860  0.00  0.00    +0.000 A 
ATOM     18  H   UNL     1       1.437   3.073  21.484  0.00  0.00    +0.000 HD
ATOM     19  H   UNL     1       3.014   6.791  19.227  0.00  0.00    +0.000 HD
ENDROOT
BRANCH  14  20
ATOM     20  C   UNL     1       7.515   8.714  17.802  0.00  0.00    +0.000 C 
ATOM     21  C   UNL     1       8.685   8.872  18.457  0.00  0.00    +0.000 C 
BRANCH  21  22
ATOM     22  C   UNL     1       9.294  10.181  18.795  0.00  0.00    +0.000 A 
ATOM     23  C   UNL     1      10.113  10.854  17.881  0.00  0.00    +0.000 A 
ATOM     24  C   UNL     1      10.772  12.032  18.231  0.00  0.00    +0.000 A 
ATOM     25  C   UNL     1      10.637  12.549  19.514  0.00  0.00    +0.000 A 
ATOM     26  C   UNL     1       9.817  11.923  20.460  0.00  0.00    +0.000 A 
ATOM     27  C   UNL     1       9.155  10.730  20.087  0.00  0.00    +0.000 A 
BRANCH  26  28
ATOM     28  C   UNL     1       9.727  12.433  21.894  0.00  0.00    +0.000 C 
BRANCH  28  29
ATOM     29  C   UNL     1       8.483  11.956  22.683  0.00  0.00    +0.000 C 
BRANCH  29  30
ATOM     30  N   UNL     1       8.428  12.336  24.110  0.00  0.00    +0.000 NA
ATOM     31  C   UNL     1       7.184  11.808  24.736  0.00  0.00    +0.000 C 
ATOM     32  C   UNL     1       5.900  12.559  24.328  0.00  0.00    +0.000 C 
ATOM     33  O   UNL     1       6.008  13.965  24.579  0.00  0.00    +0.000 OA
ATOM     34  C   UNL     1       7.148  14.516  23.909  0.00  0.00    +0.000 C 
ATOM     35  C   UNL     1       8.442  13.800  24.333  0.00  0.00    +0.000 C 
ENDBRANCH  29  30
ENDBRANCH  28  29
ENDBRANCH  26  28
ENDBRANCH  21  22
ENDBRANCH  14  20
TORSDOF 5
ENDMDL
MODEL 6
REMARK VINA RESULT:      -9.1      4.207     11.060
REMARK  Name = 
REMARK  5 active torsions:
REMARK  status: ('A' for Active; 'I' for Inactive)
REMARK    1  A    between atoms: C_14  and  C_15
REMARK    2  A    between atoms: C_16  and  C_17
REMARK    3  A    between atoms: C_21  and  C_22
REMARK    4  A    between atoms: C_22  and  C_23
REMARK    5  A    between atoms: C_23  and  N_24
REMARK                            x       y       z     vdW  Elec       q    Type
REMARK                         _______ _______ _______ _____ _____    ______ ____
ROOT
ATOM      1  O   UNL     1       2.706  16.851  20.911  0.00  0.00    +0.000 OA
ATOM      2  C   UNL     1       3.028  16.336  19.862  0.00  0.00    +0.000 C 
ATOM      3  N   UNL     1       4.176  16.638  19.089  0.00  0.00    +0.000 N 
ATOM      4  C   UNL     1       4.220  15.887  17.821  0.00  0.00    +0.000 C 
ATOM      5  C   UNL     1       3.268  14.837  18.171  0.00  0.00    +0.000 A 
ATOM      6  N   UNL     1       3.031  13.567  17.793  0.00  0.00    +0.000 N 
ATOM      7  C   UNL     1       2.045  13.050  18.628  0.00  0.00    +0.000 A 
ATOM      8  C   UNL     1       1.588  14.095  19.448  0.00  0.00    +0.000 A 
ATOM      9  C   UNL     1       0.476  13.891  20.280  0.00  0.00    +0.000 A 
ATOM     10  C   UNL     1      -0.136  12.626  20.295  0.00  0.00    +0.000 A 
ATOM     11  C   UNL     1       0.415  11.543  19.590  0.00  0.00    +0.000 A 
ATOM     12  C   UNL     1      -0.069  10.237  19.679  0.00  0.00    +0.000 A 
ATOM     13  N   UNL     1       0.488   9.146  19.083  0.00  0.00    +0.000 NA
ATOM     14  C   UNL     1       1.597   9.343  18.335  0.00  0.00    +0.000 A 
ATOM     15  C   UNL     1       2.132  10.614  18.125  0.00  0.00    +0.000 A 
ATOM     16  C   UNL     1       1.534  11.728  18.755  0.00  0.00    +0.000 A 
ATOM     17  C   UNL     1       2.506  15.141  19.264  0.00  0.00    +0.000 A 
ATOM     18  H   UNL     1       5.012  16.580  19.659  0.00  0.00    +0.000 HD
ATOM     19  H   UNL     1       3.511  13.053  17.070  0.00  0.00    +0.000 HD
ENDROOT
BRANCH  14  20
ATOM     20  C   UNL     1       2.244   8.159  17.728  0.00  0.00    +0.000 C 
ATOM     21  C   UNL     1       3.566   7.885  17.728  0.00  0.00    +0.000 C 
BRANCH  21  22
ATOM     22  C   UNL     1       4.172   6.649  17.176  0.00  0.00    +0.000 A 
ATOM     23  C   UNL     1       4.956   6.684  16.017  0.00  0.00    +0.000 A 
ATOM     24  C   UNL     1       5.439   5.513  15.435  0.00  0.00    +0.000 A 
ATOM     25  C   UNL     1       5.130   4.279  15.995  0.00  0.00    +0.000 A 
ATOM     26  C   UNL     1       4.363   4.190  17.163  0.00  0.00    +0.000 A 
ATOM     27  C   UNL     1       3.882   5.389  17.740  0.00  0.00    +0.000 A 
BRANCH  26  28
ATOM     28  C   UNL     1       3.946   2.841  17.737  0.00  0.00    +0.000 C 
BRANCH  28  29
ATOM     29  C   UNL     1       4.036   2.729  19.280  0.00  0.00    +0.000 C 
BRANCH  29  30
ATOM     30  N   UNL     1       2.876   2.117  19.960  0.00  0.00    +0.000 NA
ATOM     31  C   UNL     1       1.641   2.317  19.152  0.00  0.00    +0.000 C 
ATOM     32  C   UNL     1       1.091   3.758  19.178  0.00  0.00    +0.000 C 
ATOM     33  O   UNL     1       0.871   4.215  20.517  0.00  0.00    +0.000 OA
ATOM     34  C   UNL     1       2.073   4.120  21.293  0.00  0.00    +0.000 C 
ATOM     35  C   UNL     1       2.614   2.680  21.304  0.00  0.00    +0.000 C 
ENDBRANCH  29  30
ENDBRANCH  28  29
ENDBRANCH  26  28
ENDBRANCH  21  22
ENDBRANCH  14  20
TORSDOF 5
ENDMDL
MODEL 7
REMARK VINA RESULT:      -9.0      4.138      7.002
REMARK  Name = 
REMARK  5 active torsions:
REMARK  status: ('A' for Active; 'I' for Inactive)
REMARK    1  A    between atoms: C_14  and  C_15
REMARK    2  A    between atoms: C_16  and  C_17
REMARK    3  A    between atoms: C_21  and  C_22
REMARK    4  A    between atoms: C_22  and  C_23
REMARK    5  A    between atoms: C_23  and  N_24
REMARK                            x       y       z     vdW  Elec       q    Type
REMARK                         _______ _______ _______ _____ _____    ______ ____
ROOT
ATOM      1  O   UNL     1       6.316   3.549  14.467  0.00  0.00    +0.000 OA
ATOM      2  C   UNL     1       6.529   4.360  15.343  0.00  0.00    +0.000 C 
ATOM      3  N   UNL     1       7.320   5.531  15.237  0.00  0.00    +0.000 N 
ATOM      4  C   UNL     1       7.442   6.249  16.519  0.00  0.00    +0.000 C 
ATOM      5  C   UNL     1       6.305   5.644  17.204  0.00  0.00    +0.000 A 
ATOM      6  N   UNL     1       5.469   5.988  18.201  0.00  0.00    +0.000 N 
ATOM      7  C   UNL     1       4.481   5.010  18.288  0.00  0.00    +0.000 A 
ATOM      8  C   UNL     1       4.819   3.982  17.393  0.00  0.00    +0.000 A 
ATOM      9  C   UNL     1       4.078   2.790  17.391  0.00  0.00    +0.000 A 
ATOM     10  C   UNL     1       2.988   2.669  18.269  0.00  0.00    +0.000 A 
ATOM     11  C   UNL     1       2.561   3.755  19.053  0.00  0.00    +0.000 A 
ATOM     12  C   UNL     1       1.405   3.735  19.835  0.00  0.00    +0.000 A 
ATOM     13  N   UNL     1       0.910   4.791  20.538  0.00  0.00    +0.000 NA
ATOM     14  C   UNL     1       1.597   5.954  20.483  0.00  0.00    +0.000 A 
ATOM     15  C   UNL     1       2.798   6.071  19.783  0.00  0.00    +0.000 A 
ATOM     16  C   UNL     1       3.288   4.960  19.062  0.00  0.00    +0.000 A 
ATOM     17  C   UNL     1       5.856   4.503  16.602  0.00  0.00    +0.000 A 
ATOM     18  H   UNL     1       7.017   6.092  14.449  0.00  0.00    +0.000 HD
ATOM     19  H   UNL     1       5.508   6.827  18.760  0.00  0.00    +0.000 HD
ENDROOT
BRANCH  14  20
ATOM     20  C   UNL     1       1.040   7.125  21.196  0.00  0.00    +0.000 C 
ATOM     21  C   UNL     1       1.159   8.416  20.824  0.00  0.00    +0.000 C 
BRANCH  21  22
ATOM     22  C   UNL     1       0.522   9.559  21.523  0.00  0.00    +0.000 A 
ATOM     23  C   UNL     1      -0.341   9.353  22.605  0.00  0.00    +0.000 A 
ATOM     24  C   UNL     1      -1.025  10.413  23.197  0.00  0.00    +0.000 A 
ATOM     25  C   UNL     1      -0.870  11.703  22.703  0.00  0.00    +0.000 A 
ATOM     26  C   UNL     1      -0.007  11.965  21.632  0.00  0.00    +0.000 A 
ATOM     27  C   UNL     1       0.679  10.876  21.044  0.00  0.00    +0.000 A 
BRANCH  26  28
ATOM     28  C   UNL     1       0.106  13.360  21.026  0.00  0.00    +0.000 C 
BRANCH  28  29
ATOM     29  C   UNL     1       1.245  13.534  19.990  0.00  0.00    +0.000 C 
BRANCH  29  30
ATOM     30  N   UNL     1       2.257  14.565  20.299  0.00  0.00    +0.000 NA
ATOM     31  C   UNL     1       1.664  15.925  20.165  0.00  0.00    +0.000 C 
ATOM     32  C   UNL     1       1.426  16.374  18.708  0.00  0.00    +0.000 C 
ATOM     33  O   UNL     1       2.624  16.290  17.928  0.00  0.00    +0.000 OA
ATOM     34  C   UNL     1       3.165  14.964  17.964  0.00  0.00    +0.000 C 
ATOM     35  C   UNL     1       3.441  14.515  19.410  0.00  0.00    +0.000 C 
ENDBRANCH  29  30
ENDBRANCH  28  29
ENDBRANCH  26  28
ENDBRANCH  21  22
ENDBRANCH  14  20
TORSDOF 5
ENDMDL
MODEL 8
REMARK VINA RESULT:      -8.9      2.693      3.222
REMARK  Name = 
REMARK  5 active torsions:
REMARK  status: ('A' for Active; 'I' for Inactive)
REMARK    1  A    between atoms: C_14  and  C_15
REMARK    2  A    between atoms: C_16  and  C_17
REMARK    3  A    between atoms: C_21  and  C_22
REMARK    4  A    between atoms: C_22  and  C_23
REMARK    5  A    between atoms: C_23  and  N_24
REMARK                            x       y       z     vdW  Elec       q    Type
REMARK                         _______ _______ _______ _____ _____    ______ ____
ROOT
ATOM      1  O   UNL     1       2.116   1.918  19.729  0.00  0.00    +0.000 OA
ATOM      2  C   UNL     1       1.976   3.122  19.758  0.00  0.00    +0.000 C 
ATOM      3  N   UNL     1       1.259   3.866  20.727  0.00  0.00    +0.000 N 
ATOM      4  C   UNL     1       1.213   5.306  20.414  0.00  0.00    +0.000 C 
ATOM      5  C   UNL     1       2.324   5.348  19.470  0.00  0.00    +0.000 A 
ATOM      6  N   UNL     1       3.203   6.270  19.035  0.00  0.00    +0.000 N 
ATOM      7  C   UNL     1       4.128   5.628  18.217  0.00  0.00    +0.000 A 
ATOM      8  C   UNL     1       3.705   4.298  18.057  0.00  0.00    +0.000 A 
ATOM      9  C   UNL     1       4.368   3.462  17.145  0.00  0.00    +0.000 A 
ATOM     10  C   UNL     1       5.468   3.972  16.435  0.00  0.00    +0.000 A 
ATOM     11  C   UNL     1       5.982   5.252  16.710  0.00  0.00    +0.000 A 
ATOM     12  C   UNL     1       7.151   5.754  16.137  0.00  0.00    +0.000 A 
ATOM     13  N   UNL     1       7.729   6.949  16.441  0.00  0.00    +0.000 NA
ATOM     14  C   UNL     1       7.116   7.720  17.367  0.00  0.00    +0.000 A 
ATOM     15  C   UNL     1       5.910   7.347  17.959  0.00  0.00    +0.000 A 
ATOM     16  C   UNL     1       5.332   6.101  17.625  0.00  0.00    +0.000 A 
ATOM     17  C   UNL     1       2.685   4.115  19.005  0.00  0.00    +0.000 A 
ATOM     18  H   UNL     1       1.579   3.633  21.660  0.00  0.00    +0.000 HD
ATOM     19  H   UNL     1       3.230   7.246  19.291  0.00  0.00    +0.000 HD
ENDROOT
BRANCH  14  20
ATOM     20  C   UNL     1       7.763   8.995  17.747  0.00  0.00    +0.000 C 
ATOM     21  C   UNL     1       8.786   9.143  18.614  0.00  0.00    +0.000 C 
BRANCH  21  22
ATOM     22  C   UNL     1       9.461  10.430  18.913  0.00  0.00    +0.000 A 
ATOM     23  C   UNL     1      10.486  10.915  18.093  0.00  0.00    +0.000 A 
ATOM     24  C   UNL     1      11.195  12.069  18.427  0.00  0.00    +0.000 A 
ATOM     25  C   UNL     1      10.900  12.749  19.603  0.00  0.00    +0.000 A 
ATOM     26  C   UNL     1       9.873  12.314  20.450  0.00  0.00    +0.000 A 
ATOM     27  C   UNL     1       9.165  11.142  20.094  0.00  0.00    +0.000 A 
BRANCH  26  28
ATOM     28  C   UNL     1       9.598  13.002  21.782  0.00  0.00    +0.000 C 
BRANCH  28  29
ATOM     29  C   UNL     1       8.221  13.704  21.885  0.00  0.00    +0.000 C 
BRANCH  29  30
ATOM     30  N   UNL     1       7.727  13.976  23.251  0.00  0.00    +0.000 NA
ATOM     31  C   UNL     1       8.478  13.158  24.242  0.00  0.00    +0.000 C 
ATOM     32  C   UNL     1       8.109  11.660  24.241  0.00  0.00    +0.000 C 
ATOM     33  O   UNL     1       6.702  11.463  24.419  0.00  0.00    +0.000 OA
ATOM     34  C   UNL     1       5.957  12.166  23.417  0.00  0.00    +0.000 C 
ATOM     35  C   UNL     1       6.289  13.669  23.430  0.00  0.00    +0.000 C 
ENDBRANCH  29  30
ENDBRANCH  28  29
ENDBRANCH  26  28
ENDBRANCH  21  22
ENDBRANCH  14  20
TORSDOF 5
ENDMDL
MODEL 9
REMARK VINA RESULT:      -8.8      4.029      6.917
REMARK  Name = 
REMARK  5 active torsions:
REMARK  status: ('A' for Active; 'I' for Inactive)
REMARK    1  A    between atoms: C_14  and  C_15
REMARK    2  A    between atoms: C_16  and  C_17
REMARK    3  A    between atoms: C_21  and  C_22
REMARK    4  A    between atoms: C_22  and  C_23
REMARK    5  A    between atoms: C_23  and  N_24
REMARK                            x       y       z     vdW  Elec       q    Type
REMARK                         _______ _______ _______ _____ _____    ______ ____
ROOT
ATOM      1  O   UNL     1       6.285   3.580  14.315  0.00  0.00    +0.000 OA
ATOM      2  C   UNL     1       6.510   4.372  15.205  0.00  0.00    +0.000 C 
ATOM      3  N   UNL     1       7.310   5.538  15.117  0.00  0.00    +0.000 N 
ATOM      4  C   UNL     1       7.446   6.230  16.412  0.00  0.00    +0.000 C 
ATOM      5  C   UNL     1       6.308   5.621  17.093  0.00  0.00    +0.000 A 
ATOM      6  N   UNL     1       5.481   5.952  18.101  0.00  0.00    +0.000 N 
ATOM      7  C   UNL     1       4.486   4.982  18.175  0.00  0.00    +0.000 A 
ATOM      8  C   UNL     1       4.810   3.968  17.258  0.00  0.00    +0.000 A 
ATOM      9  C   UNL     1       4.058   2.782  17.237  0.00  0.00    +0.000 A 
ATOM     10  C   UNL     1       2.972   2.653  18.119  0.00  0.00    +0.000 A 
ATOM     11  C   UNL     1       2.559   3.727  18.927  0.00  0.00    +0.000 A 
ATOM     12  C   UNL     1       1.408   3.702  19.716  0.00  0.00    +0.000 A 
ATOM     13  N   UNL     1       0.926   4.748  20.443  0.00  0.00    +0.000 NA
ATOM     14  C   UNL     1       1.623   5.906  20.406  0.00  0.00    +0.000 A 
ATOM     15  C   UNL     1       2.820   6.026  19.701  0.00  0.00    +0.000 A 
ATOM     16  C   UNL     1       3.297   4.925  18.956  0.00  0.00    +0.000 A 
ATOM     17  C   UNL     1       5.846   4.496  16.471  0.00  0.00    +0.000 A 
ATOM     18  H   UNL     1       7.007   6.118  14.343  0.00  0.00    +0.000 HD
ATOM     19  H   UNL     1       5.530   6.780  18.677  0.00  0.00    +0.000 HD
ENDROOT
BRANCH  14  20
ATOM     20  C   UNL     1       1.080   7.066  21.146  0.00  0.00    +0.000 C 
ATOM     21  C   UNL     1       1.140   8.358  20.758  0.00  0.00    +0.000 C 
BRANCH  21  22
ATOM     22  C   UNL     1       0.517   9.488  21.489  0.00  0.00    +0.000 A 
ATOM     23  C   UNL     1      -0.286   9.266  22.614  0.00  0.00    +0.000 A 
ATOM     24  C   UNL     1      -0.959  10.314  23.241  0.00  0.00    +0.000 A 
ATOM     25  C   UNL     1      -0.855  11.606  22.738  0.00  0.00    +0.000 A 
ATOM     26  C   UNL     1      -0.052  11.884  21.625  0.00  0.00    +0.000 A 
ATOM     27  C   UNL     1       0.624  10.808  21.003  0.00  0.00    +0.000 A 
BRANCH  26  28
ATOM     28  C   UNL     1       0.002  13.280  21.014  0.00  0.00    +0.000 C 
BRANCH  28  29
ATOM     29  C   UNL     1       1.364  14.005  21.156  0.00  0.00    +0.000 C 
BRANCH  29  30
ATOM     30  N   UNL     1       2.142  14.184  19.913  0.00  0.00    +0.000 NA
ATOM     31  C   UNL     1       3.550  14.546  20.236  0.00  0.00    +0.000 C 
ATOM     32  C   UNL     1       3.734  15.992  20.742  0.00  0.00    +0.000 C 
ATOM     33  O   UNL     1       3.188  16.946  19.824  0.00  0.00    +0.000 OA
ATOM     34  C   UNL     1       1.804  16.674  19.569  0.00  0.00    +0.000 C 
ATOM     35  C   UNL     1       1.609  15.246  19.030  0.00  0.00    +0.000 C 
ENDBRANCH  29  30
ENDBRANCH  28  29
ENDBRANCH  26  28
ENDBRANCH  21  22
ENDBRANCH  14  20
TORSDOF 5
ENDMDL
