MODEL 1
REMARK VINA RESULT:      -9.8      0.000      0.000
REMARK  Name = 
REMARK  7 active torsions:
REMARK  status: ('A' for Active; 'I' for Inactive)
REMARK    1  A    between atoms: C_1  and  C_2
REMARK    2  A    between atoms: C_5  and  N_6
REMARK    3  A    between atoms: C_7  and  C_9
REMARK    4  A    between atoms: C_9  and  C_10
REMARK    5  A    between atoms: C_10  and  C_11
REMARK    6  A    between atoms: C_11  and  N_12
REMARK    7  A    between atoms: C_23  and  C_24
REMARK                            x       y       z     vdW  Elec       q    Type
REMARK                         _______ _______ _______ _____ _____    ______ ____
ROOT
ATOM      1  N   UNL     1       3.301   5.790  18.519  0.00  0.00    +0.000 N 
ATOM      2  C   UNL     1       2.639   4.769  19.256  0.00  0.00    +0.000 A 
ATOM      3  C   UNL     1       1.791   5.003  20.353  0.00  0.00    +0.000 A 
ATOM      4  C   UNL     1       1.182   3.949  21.058  0.00  0.00    +0.000 A 
ATOM      5  C   UNL     1       1.391   2.628  20.683  0.00  0.00    +0.000 A 
ATOM      6  C   UNL     1       2.212   2.358  19.600  0.00  0.00    +0.000 A 
ATOM      7  C   UNL     1       2.824   3.417  18.902  0.00  0.00    +0.000 A 
ATOM      8  C   UNL     1       3.685   3.074  17.758  0.00  0.00    +0.000 A 
ATOM      9  O   UNL     1       3.863   1.903  17.437  0.00  0.00    +0.000 OA
ATOM     10  C   UNL     1       4.324   4.163  16.999  0.00  0.00    +0.000 A 
ATOM     11  C   UNL     1       5.124   3.817  15.897  0.00  0.00    +0.000 A 
ATOM     12  C   UNL     1       5.748   4.804  15.140  0.00  0.00    +0.000 A 
ATOM     13  C   UNL     1       6.615   4.444  13.971  0.00  0.00    +0.000 C 
ATOM     14  C   UNL     1       5.553   6.136  15.499  0.00  0.00    +0.000 A 
ATOM     15  C   UNL     1       4.751   6.475  16.601  0.00  0.00    +0.000 A 
ATOM     16  C   UNL     1       4.115   5.498  17.390  0.00  0.00    +0.000 A 
ENDROOT
BRANCH   1  17
ATOM     17  C   UNL     1       3.056   7.215  18.851  0.00  0.00    +0.000 C 
BRANCH  17  18
ATOM     18  C   UNL     1       2.053   7.830  17.867  0.00  0.00    +0.000 C 
BRANCH  18  19
ATOM     19  C   UNL     1       1.987   9.355  17.924  0.00  0.00    +0.000 C 
BRANCH  19  21
ATOM     20  N   UNL     1      -0.246  10.274  17.630  0.00  0.00    +0.000 N 
ATOM     21  C   UNL     1       0.659   9.763  18.543  0.00  0.00    +0.000 C 
ATOM     22  O   UNL     1       0.462   9.568  19.738  0.00  0.00    +0.000 OA
ATOM     23  H   UNL     1       0.084  10.465  16.690  0.00  0.00    +0.000 HD
BRANCH  20  28
ATOM     24  C   UNL     1      -5.766  11.685  18.493  0.00  0.00    +0.000 C 
ATOM     25  C   UNL     1      -4.329  11.308  18.277  0.00  0.00    +0.000 A 
ATOM     26  C   UNL     1      -3.994  10.092  17.677  0.00  0.00    +0.000 A 
ATOM     27  C   UNL     1      -2.657   9.737  17.469  0.00  0.00    +0.000 A 
ATOM     28  C   UNL     1      -1.614  10.585  17.853  0.00  0.00    +0.000 A 
ATOM     29  C   UNL     1      -1.955  11.809  18.460  0.00  0.00    +0.000 A 
ATOM     30 BR   UNL     1      -0.619  13.044  19.019  0.00  0.00    +0.000 Br
ATOM     31  C   UNL     1      -3.298  12.167  18.672  0.00  0.00    +0.000 A 
ENDBRANCH  20  28
ENDBRANCH  19  21
ENDBRANCH  18  19
ENDBRANCH  17  18
ENDBRANCH   1  17
TORSDOF 5
ENDMDL
MODEL 2
REMARK VINA RESULT:      -9.8      1.970      2.390
REMARK  Name = 
REMARK  7 active torsions:
REMARK  status: ('A' for Active; 'I' for Inactive)
REMARK    1  A    between atoms: C_1  and  C_2
REMARK    2  A    between atoms: C_5  and  N_6
REMARK    3  A    between atoms: C_7  and  C_9
REMARK    4  A    between atoms: C_9  and  C_10
REMARK    5  A    between atoms: C_10  and  C_11
REMARK    6  A    between atoms: C_11  and  N_12
REMARK    7  A    between atoms: C_23  and  C_24
REMARK                            x       y       z     vdW  Elec       q    Type
REMARK                         _______ _______ _______ _____ _____    ______ ____
ROOT
ATOM      1  N   UNL     1       3.314   5.760  18.653  0.00  0.00    +0.000 N 
ATOM      2  C   UNL     1       2.646   4.729  19.369  0.00  0.00    +0.000 A 
ATOM      3  C   UNL     1       1.818   4.943  20.486  0.00  0.00    +0.000 A 
ATOM      4  C   UNL     1       1.202   3.879  21.169  0.00  0.00    +0.000 A 
ATOM      5  C   UNL     1       1.382   2.566  20.751  0.00  0.00    +0.000 A 
ATOM      6  C   UNL     1       2.182   2.316  19.647  0.00  0.00    +0.000 A 
ATOM      7  C   UNL     1       2.802   3.384  18.972  0.00  0.00    +0.000 A 
ATOM      8  C   UNL     1       3.639   3.063  17.804  0.00  0.00    +0.000 A 
ATOM      9  O   UNL     1       3.792   1.898  17.446  0.00  0.00    +0.000 OA
ATOM     10  C   UNL     1       4.285   4.163  17.068  0.00  0.00    +0.000 A 
ATOM     11  C   UNL     1       5.062   3.837  15.944  0.00  0.00    +0.000 A 
ATOM     12  C   UNL     1       5.692   4.836  15.208  0.00  0.00    +0.000 A 
ATOM     13  C   UNL     1       6.534   4.497  14.015  0.00  0.00    +0.000 C 
ATOM     14  C   UNL     1       5.525   6.160  15.609  0.00  0.00    +0.000 A 
ATOM     15  C   UNL     1       4.746   6.478  16.734  0.00  0.00    +0.000 A 
ATOM     16  C   UNL     1       4.105   5.489  17.503  0.00  0.00    +0.000 A 
ENDROOT
BRANCH   1  17
ATOM     17  C   UNL     1       3.099   7.178  19.031  0.00  0.00    +0.000 C 
BRANCH  17  18
ATOM     18  C   UNL     1       1.872   7.747  18.307  0.00  0.00    +0.000 C 
BRANCH  18  19
ATOM     19  C   UNL     1       2.129   9.082  17.610  0.00  0.00    +0.000 C 
BRANCH  19  21
ATOM     20  N   UNL     1       0.383   9.766  19.159  0.00  0.00    +0.000 N 
ATOM     21  C   UNL     1       1.474  10.189  18.421  0.00  0.00    +0.000 C 
ATOM     22  O   UNL     1       1.965  11.313  18.419  0.00  0.00    +0.000 OA
ATOM     23  H   UNL     1       0.032   8.829  18.993  0.00  0.00    +0.000 HD
BRANCH  20  28
ATOM     24  C   UNL     1      -2.398  12.771  23.215  0.00  0.00    +0.000 C 
ATOM     25  C   UNL     1      -1.685  11.982  22.155  0.00  0.00    +0.000 A 
ATOM     26  C   UNL     1      -1.944  12.209  20.802  0.00  0.00    +0.000 A 
ATOM     27  C   UNL     1      -1.280  11.481  19.809  0.00  0.00    +0.000 A 
ATOM     28  C   UNL     1      -0.336  10.504  20.137  0.00  0.00    +0.000 A 
ATOM     29  C   UNL     1      -0.077  10.276  21.503  0.00  0.00    +0.000 A 
ATOM     30 BR   UNL     1       1.191   8.974  22.068  0.00  0.00    +0.000 Br
ATOM     31  C   UNL     1      -0.745  11.005  22.502  0.00  0.00    +0.000 A 
ENDBRANCH  20  28
ENDBRANCH  19  21
ENDBRANCH  18  19
ENDBRANCH  17  18
ENDBRANCH   1  17
TORSDOF 5
ENDMDL
MODEL 3
REMARK VINA RESULT:      -9.8      1.063      1.385
REMARK  Name = 
REMARK  7 active torsions:
REMARK  status: ('A' for Active; 'I' for Inactive)
REMARK    1  A    between atoms: C_1  and  C_2
REMARK    2  A    between atoms: C_5  and  N_6
REMARK    3  A    between atoms: C_7  and  C_9
REMARK    4  A    between atoms: C_9  and  C_10
REMARK    5  A    between atoms: C_10  and  C_11
REMARK    6  A    between atoms: C_11  and  N_12
REMARK    7  A    between atoms: C_23  and  C_24
REMARK                            x       y       z     vdW  Elec       q    Type
REMARK                         _______ _______ _______ _____ _____    ______ ____
ROOT
ATOM      1  N   UNL     1       3.289   5.756  18.514  0.00  0.00    +0.000 N 
ATOM      2  C   UNL     1       2.637   4.736  19.260  0.00  0.00    +0.000 A 
ATOM      3  C   UNL     1       1.798   4.970  20.364  0.00  0.00    +0.000 A 
ATOM      4  C   UNL     1       1.199   3.917  21.078  0.00  0.00    +0.000 A 
ATOM      5  C   UNL     1       1.409   2.595  20.706  0.00  0.00    +0.000 A 
ATOM      6  C   UNL     1       2.221   2.325  19.617  0.00  0.00    +0.000 A 
ATOM      7  C   UNL     1       2.824   3.382  18.910  0.00  0.00    +0.000 A 
ATOM      8  C   UNL     1       3.676   3.039  17.759  0.00  0.00    +0.000 A 
ATOM      9  O   UNL     1       3.856   1.867  17.441  0.00  0.00    +0.000 OA
ATOM     10  C   UNL     1       4.304   4.127  16.991  0.00  0.00    +0.000 A 
ATOM     11  C   UNL     1       5.096   3.779  15.883  0.00  0.00    +0.000 A 
ATOM     12  C   UNL     1       5.710   4.767  15.118  0.00  0.00    +0.000 A 
ATOM     13  C   UNL     1       6.568   4.405  13.942  0.00  0.00    +0.000 C 
ATOM     14  C   UNL     1       5.514   6.099  15.473  0.00  0.00    +0.000 A 
ATOM     15  C   UNL     1       4.720   6.439  16.581  0.00  0.00    +0.000 A 
ATOM     16  C   UNL     1       4.094   5.463  17.379  0.00  0.00    +0.000 A 
ENDROOT
BRANCH   1  17
ATOM     17  C   UNL     1       3.042   7.181  18.843  0.00  0.00    +0.000 C 
BRANCH  17  18
ATOM     18  C   UNL     1       1.847   7.717  18.045  0.00  0.00    +0.000 C 
BRANCH  18  19
ATOM     19  C   UNL     1       1.865   9.231  17.844  0.00  0.00    +0.000 C 
BRANCH  19  21
ATOM     20  N   UNL     1      -0.112  10.634  18.039  0.00  0.00    +0.000 N 
ATOM     21  C   UNL     1       0.798   9.854  18.730  0.00  0.00    +0.000 C 
ATOM     22  O   UNL     1       0.775   9.590  19.928  0.00  0.00    +0.000 OA
ATOM     23  H   UNL     1       0.083  10.840  17.065  0.00  0.00    +0.000 HD
BRANCH  20  28
ATOM     24  C   UNL     1      -5.052  12.832  20.030  0.00  0.00    +0.000 C 
ATOM     25  C   UNL     1      -3.761  12.272  19.509  0.00  0.00    +0.000 A 
ATOM     26  C   UNL     1      -2.561  12.498  20.186  0.00  0.00    +0.000 A 
ATOM     27  C   UNL     1      -1.355  11.975  19.708  0.00  0.00    +0.000 A 
ATOM     28  C   UNL     1      -1.311  11.209  18.539  0.00  0.00    +0.000 A 
ATOM     29  C   UNL     1      -2.522  10.984  17.857  0.00  0.00    +0.000 A 
ATOM     30 BR   UNL     1      -2.583   9.953  16.258  0.00  0.00    +0.000 Br
ATOM     31  C   UNL     1      -3.735  11.511  18.335  0.00  0.00    +0.000 A 
ENDBRANCH  20  28
ENDBRANCH  19  21
ENDBRANCH  18  19
ENDBRANCH  17  18
ENDBRANCH   1  17
TORSDOF 5
ENDMDL
MODEL 4
REMARK VINA RESULT:      -9.6      1.769      2.238
REMARK  Name = 
REMARK  7 active torsions:
REMARK  status: ('A' for Active; 'I' for Inactive)
REMARK    1  A    between atoms: C_1  and  C_2
REMARK    2  A    between atoms: C_5  and  N_6
REMARK    3  A    between atoms: C_7  and  C_9
REMARK    4  A    between atoms: C_9  and  C_10
REMARK    5  A    between atoms: C_10  and  C_11
REMARK    6  A    between atoms: C_11  and  N_12
REMARK    7  A    between atoms: C_23  and  C_24
REMARK                            x       y       z     vdW  Elec       q    Type
REMARK                         _______ _______ _______ _____ _____    ______ ____
ROOT
ATOM      1  N   UNL     1       3.264   5.770  18.630  0.00  0.00    +0.000 N 
ATOM      2  C   UNL     1       2.604   4.729  19.339  0.00  0.00    +0.000 A 
ATOM      3  C   UNL     1       1.756   4.932  20.443  0.00  0.00    +0.000 A 
ATOM      4  C   UNL     1       1.149   3.859  21.120  0.00  0.00    +0.000 A 
ATOM      5  C   UNL     1       1.358   2.549  20.709  0.00  0.00    +0.000 A 
ATOM      6  C   UNL     1       2.178   2.309  19.618  0.00  0.00    +0.000 A 
ATOM      7  C   UNL     1       2.789   3.386  18.949  0.00  0.00    +0.000 A 
ATOM      8  C   UNL     1       3.650   3.076  17.795  0.00  0.00    +0.000 A 
ATOM      9  O   UNL     1       3.829   1.914  17.442  0.00  0.00    +0.000 OA
ATOM     10  C   UNL     1       4.287   4.186  17.065  0.00  0.00    +0.000 A 
ATOM     11  C   UNL     1       5.086   3.870  15.953  0.00  0.00    +0.000 A 
ATOM     12  C   UNL     1       5.709   4.878  15.224  0.00  0.00    +0.000 A 
ATOM     13  C   UNL     1       6.575   4.551  14.044  0.00  0.00    +0.000 C 
ATOM     14  C   UNL     1       5.513   6.200  15.618  0.00  0.00    +0.000 A 
ATOM     15  C   UNL     1       4.712   6.508  16.730  0.00  0.00    +0.000 A 
ATOM     16  C   UNL     1       4.078   5.509  17.492  0.00  0.00    +0.000 A 
ENDROOT
BRANCH   1  17
ATOM     17  C   UNL     1       3.019   7.185  19.001  0.00  0.00    +0.000 C 
BRANCH  17  18
ATOM     18  C   UNL     1       1.814   7.740  18.231  0.00  0.00    +0.000 C 
BRANCH  18  19
ATOM     19  C   UNL     1       2.072   9.091  17.568  0.00  0.00    +0.000 C 
BRANCH  19  21
ATOM     20  N   UNL     1       0.395   9.775  19.193  0.00  0.00    +0.000 N 
ATOM     21  C   UNL     1       1.485  10.185  18.446  0.00  0.00    +0.000 C 
ATOM     22  O   UNL     1       2.023  11.287  18.481  0.00  0.00    +0.000 OA
ATOM     23  H   UNL     1       0.001   8.861  18.994  0.00  0.00    +0.000 HD
BRANCH  20  28
ATOM     24  C   UNL     1      -2.426  12.682  23.291  0.00  0.00    +0.000 C 
ATOM     25  C   UNL     1      -1.680  11.931  22.226  0.00  0.00    +0.000 A 
ATOM     26  C   UNL     1      -0.683  11.014  22.566  0.00  0.00    +0.000 A 
ATOM     27  C   UNL     1       0.013  10.308  21.579  0.00  0.00    +0.000 A 
ATOM     28  C   UNL     1      -0.266  10.495  20.222  0.00  0.00    +0.000 A 
ATOM     29  C   UNL     1      -1.271  11.422  19.882  0.00  0.00    +0.000 A 
ATOM     30 BR   UNL     1      -1.739  11.755  18.067  0.00  0.00    +0.000 Br
ATOM     31  C   UNL     1      -1.970  12.134  20.873  0.00  0.00    +0.000 A 
ENDBRANCH  20  28
ENDBRANCH  19  21
ENDBRANCH  18  19
ENDBRANCH  17  18
ENDBRANCH   1  17
TORSDOF 5
ENDMDL
MODEL 5
REMARK VINA RESULT:      -9.5      2.301      2.601
REMARK  Name = 
REMARK  7 active torsions:
REMARK  status: ('A' for Active; 'I' for Inactive)
REMARK    1  A    between atoms: C_1  and  C_2
REMARK    2  A    between atoms: C_5  and  N_6
REMARK    3  A    between atoms: C_7  and  C_9
REMARK    4  A    between atoms: C_9  and  C_10
REMARK    5  A    between atoms: C_10  and  C_11
REMARK    6  A    between atoms: C_11  and  N_12
REMARK    7  A    between atoms: C_23  and  C_24
REMARK                            x       y       z     vdW  Elec       q    Type
REMARK                         _______ _______ _______ _____ _____    ______ ____
ROOT
ATOM      1  N   UNL     1       3.189   5.850  18.580  0.00  0.00    +0.000 N 
ATOM      2  C   UNL     1       2.554   4.792  19.287  0.00  0.00    +0.000 A 
ATOM      3  C   UNL     1       1.678   4.973  20.372  0.00  0.00    +0.000 A 
ATOM      4  C   UNL     1       1.097   3.885  21.048  0.00  0.00    +0.000 A 
ATOM      5  C   UNL     1       1.363   2.580  20.655  0.00  0.00    +0.000 A 
ATOM      6  C   UNL     1       2.213   2.361  19.582  0.00  0.00    +0.000 A 
ATOM      7  C   UNL     1       2.797   3.454  18.915  0.00  0.00    +0.000 A 
ATOM      8  C   UNL     1       3.691   3.165  17.781  0.00  0.00    +0.000 A 
ATOM      9  O   UNL     1       3.920   2.006  17.443  0.00  0.00    +0.000 OA
ATOM     10  C   UNL     1       4.301   4.290  17.052  0.00  0.00    +0.000 A 
ATOM     11  C   UNL     1       5.134   3.994  15.959  0.00  0.00    +0.000 A 
ATOM     12  C   UNL     1       5.733   5.018  15.231  0.00  0.00    +0.000 A 
ATOM     13  C   UNL     1       6.633   4.712  14.073  0.00  0.00    +0.000 C 
ATOM     14  C   UNL     1       5.480   6.335  15.609  0.00  0.00    +0.000 A 
ATOM     15  C   UNL     1       4.646   6.623  16.702  0.00  0.00    +0.000 A 
ATOM     16  C   UNL     1       4.034   5.609  17.462  0.00  0.00    +0.000 A 
ENDROOT
BRANCH   1  17
ATOM     17  C   UNL     1       2.884   7.258  18.932  0.00  0.00    +0.000 C 
BRANCH  17  18
ATOM     18  C   UNL     1       1.835   7.835  17.972  0.00  0.00    +0.000 C 
BRANCH  18  19
ATOM     19  C   UNL     1       1.880   9.357  17.849  0.00  0.00    +0.000 C 
BRANCH  19  21
ATOM     20  N   UNL     1       1.201  10.411  19.934  0.00  0.00    +0.000 N 
ATOM     21  C   UNL     1       0.770   9.948  18.703  0.00  0.00    +0.000 C 
ATOM     22  O   UNL     1      -0.367  10.030  18.249  0.00  0.00    +0.000 OA
ATOM     23  H   UNL     1       2.152  10.194  20.215  0.00  0.00    +0.000 HD
BRANCH  20  28
ATOM     24  C   UNL     1      -1.839  13.567  23.676  0.00  0.00    +0.000 C 
ATOM     25  C   UNL     1      -1.040  12.739  22.711  0.00  0.00    +0.000 A 
ATOM     26  C   UNL     1      -1.192  11.352  22.667  0.00  0.00    +0.000 A 
ATOM     27  C   UNL     1      -0.454  10.576  21.767  0.00  0.00    +0.000 A 
ATOM     28  C   UNL     1       0.457  11.161  20.883  0.00  0.00    +0.000 A 
ATOM     29  C   UNL     1       0.610  12.560  20.932  0.00  0.00    +0.000 A 
ATOM     30 BR   UNL     1       1.818  13.467  19.773  0.00  0.00    +0.000 Br
ATOM     31  C   UNL     1      -0.129  13.342  21.837  0.00  0.00    +0.000 A 
ENDBRANCH  20  28
ENDBRANCH  19  21
ENDBRANCH  18  19
ENDBRANCH  17  18
ENDBRANCH   1  17
TORSDOF 5
ENDMDL
MODEL 6
REMARK VINA RESULT:      -9.3      1.203      4.084
REMARK  Name = 
REMARK  7 active torsions:
REMARK  status: ('A' for Active; 'I' for Inactive)
REMARK    1  A    between atoms: C_1  and  C_2
REMARK    2  A    between atoms: C_5  and  N_6
REMARK    3  A    between atoms: C_7  and  C_9
REMARK    4  A    between atoms: C_9  and  C_10
REMARK    5  A    between atoms: C_10  and  C_11
REMARK    6  A    between atoms: C_11  and  N_12
REMARK    7  A    between atoms: C_23  and  C_24
REMARK                            x       y       z     vdW  Elec       q    Type
REMARK                         _______ _______ _______ _____ _____    ______ ____
ROOT
ATOM      1  N   UNL     1       3.698   6.106  17.893  0.00  0.00    +0.000 N 
ATOM      2  C   UNL     1       4.498   5.560  16.851  0.00  0.00    +0.000 A 
ATOM      3  C   UNL     1       5.160   6.324  15.873  0.00  0.00    +0.000 A 
ATOM      4  C   UNL     1       5.919   5.726  14.851  0.00  0.00    +0.000 A 
ATOM      5  C   UNL     1       6.053   4.345  14.780  0.00  0.00    +0.000 A 
ATOM      6  C   UNL     1       5.424   3.559  15.732  0.00  0.00    +0.000 A 
ATOM      7  C   UNL     1       4.660   4.163  16.748  0.00  0.00    +0.000 A 
ATOM      8  C   UNL     1       4.015   3.281  17.736  0.00  0.00    +0.000 A 
ATOM      9  O   UNL     1       4.139   2.062  17.661  0.00  0.00    +0.000 OA
ATOM     10  C   UNL     1       3.224   3.888  18.820  0.00  0.00    +0.000 A 
ATOM     11  C   UNL     1       2.635   3.030  19.765  0.00  0.00    +0.000 A 
ATOM     12  C   UNL     1       1.881   3.549  20.814  0.00  0.00    +0.000 A 
ATOM     13  C   UNL     1       1.238   2.642  21.819  0.00  0.00    +0.000 C 
ATOM     14  C   UNL     1       1.734   4.931  20.905  0.00  0.00    +0.000 A 
ATOM     15  C   UNL     1       2.326   5.782  19.957  0.00  0.00    +0.000 A 
ATOM     16  C   UNL     1       3.086   5.287  18.881  0.00  0.00    +0.000 A 
ENDROOT
BRANCH   1  17
ATOM     17  C   UNL     1       3.581   7.577  18.038  0.00  0.00    +0.000 C 
BRANCH  17  18
ATOM     18  C   UNL     1       2.121   8.017  17.875  0.00  0.00    +0.000 C 
BRANCH  18  19
ATOM     19  C   UNL     1       1.939   9.529  17.756  0.00  0.00    +0.000 C 
BRANCH  19  21
ATOM     20  N   UNL     1       0.024  10.979  18.140  0.00  0.00    +0.000 N 
ATOM     21  C   UNL     1       0.795   9.956  18.662  0.00  0.00    +0.000 C 
ATOM     22  O   UNL     1       0.599   9.357  19.715  0.00  0.00    +0.000 OA
ATOM     23  H   UNL     1       0.357  11.443  17.301  0.00  0.00    +0.000 HD
BRANCH  20  28
ATOM     24  C   UNL     1      -5.013  12.887  20.186  0.00  0.00    +0.000 C 
ATOM     25  C   UNL     1      -3.698  12.403  19.649  0.00  0.00    +0.000 A 
ATOM     26  C   UNL     1      -2.500  12.756  20.274  0.00  0.00    +0.000 A 
ATOM     27  C   UNL     1      -1.271  12.304  19.782  0.00  0.00    +0.000 A 
ATOM     28  C   UNL     1      -1.201  11.485  18.651  0.00  0.00    +0.000 A 
ATOM     29  C   UNL     1      -2.410  11.132  18.022  0.00  0.00    +0.000 A 
ATOM     30 BR   UNL     1      -2.437  10.018  16.479  0.00  0.00    +0.000 Br
ATOM     31  C   UNL     1      -3.647  11.587  18.514  0.00  0.00    +0.000 A 
ENDBRANCH  20  28
ENDBRANCH  19  21
ENDBRANCH  18  19
ENDBRANCH  17  18
ENDBRANCH   1  17
TORSDOF 5
ENDMDL
MODEL 7
REMARK VINA RESULT:      -9.3      0.584      3.824
REMARK  Name = 
REMARK  7 active torsions:
REMARK  status: ('A' for Active; 'I' for Inactive)
REMARK    1  A    between atoms: C_1  and  C_2
REMARK    2  A    between atoms: C_5  and  N_6
REMARK    3  A    between atoms: C_7  and  C_9
REMARK    4  A    between atoms: C_9  and  C_10
REMARK    5  A    between atoms: C_10  and  C_11
REMARK    6  A    between atoms: C_11  and  N_12
REMARK    7  A    between atoms: C_23  and  C_24
REMARK                            x       y       z     vdW  Elec       q    Type
REMARK                         _______ _______ _______ _____ _____    ______ ____
ROOT
ATOM      1  N   UNL     1       3.764   6.011  17.801  0.00  0.00    +0.000 N 
ATOM      2  C   UNL     1       4.566   5.428  16.782  0.00  0.00    +0.000 A 
ATOM      3  C   UNL     1       5.253   6.157  15.795  0.00  0.00    +0.000 A 
ATOM      4  C   UNL     1       6.013   5.522  14.797  0.00  0.00    +0.000 A 
ATOM      5  C   UNL     1       6.123   4.138  14.758  0.00  0.00    +0.000 A 
ATOM      6  C   UNL     1       5.469   3.386  15.721  0.00  0.00    +0.000 A 
ATOM      7  C   UNL     1       4.704   4.026  16.713  0.00  0.00    +0.000 A 
ATOM      8  C   UNL     1       4.032   3.179  17.713  0.00  0.00    +0.000 A 
ATOM      9  O   UNL     1       4.135   1.956  17.668  0.00  0.00    +0.000 OA
ATOM     10  C   UNL     1       3.239   3.824  18.774  0.00  0.00    +0.000 A 
ATOM     11  C   UNL     1       2.624   2.999  19.730  0.00  0.00    +0.000 A 
ATOM     12  C   UNL     1       1.867   3.554  20.758  0.00  0.00    +0.000 A 
ATOM     13  C   UNL     1       1.195   2.682  21.775  0.00  0.00    +0.000 C 
ATOM     14  C   UNL     1       1.743   4.940  20.815  0.00  0.00    +0.000 A 
ATOM     15  C   UNL     1       2.362   5.759  19.855  0.00  0.00    +0.000 A 
ATOM     16  C   UNL     1       3.125   5.226  18.801  0.00  0.00    +0.000 A 
ENDROOT
BRANCH   1  17
ATOM     17  C   UNL     1       3.670   7.487  17.911  0.00  0.00    +0.000 C 
BRANCH  17  18
ATOM     18  C   UNL     1       2.205   7.938  17.859  0.00  0.00    +0.000 C 
BRANCH  18  19
ATOM     19  C   UNL     1       2.023   9.454  17.866  0.00  0.00    +0.000 C 
BRANCH  19  21
ATOM     20  N   UNL     1      -0.229  10.340  17.624  0.00  0.00    +0.000 N 
ATOM     21  C   UNL     1       0.682   9.782  18.503  0.00  0.00    +0.000 C 
ATOM     22  O   UNL     1       0.481   9.489  19.677  0.00  0.00    +0.000 OA
ATOM     23  H   UNL     1       0.103  10.611  16.705  0.00  0.00    +0.000 HD
BRANCH  20  28
ATOM     24  C   UNL     1      -5.788  11.548  18.541  0.00  0.00    +0.000 C 
ATOM     25  C   UNL     1      -4.341  11.223  18.311  0.00  0.00    +0.000 A 
ATOM     26  C   UNL     1      -3.971  10.056  17.639  0.00  0.00    +0.000 A 
ATOM     27  C   UNL     1      -2.624   9.750  17.417  0.00  0.00    +0.000 A 
ATOM     28  C   UNL     1      -1.606  10.600  17.858  0.00  0.00    +0.000 A 
ATOM     29  C   UNL     1      -1.982  11.775  18.537  0.00  0.00    +0.000 A 
ATOM     30 BR   UNL     1      -0.682  13.008  19.180  0.00  0.00    +0.000 Br
ATOM     31  C   UNL     1      -3.335  12.084  18.763  0.00  0.00    +0.000 A 
ENDBRANCH  20  28
ENDBRANCH  19  21
ENDBRANCH  18  19
ENDBRANCH  17  18
ENDBRANCH   1  17
TORSDOF 5
ENDMDL
MODEL 8
REMARK VINA RESULT:      -9.2      2.469      4.702
REMARK  Name = 
REMARK  7 active torsions:
REMARK  status: ('A' for Active; 'I' for Inactive)
REMARK    1  A    between atoms: C_1  and  C_2
REMARK    2  A    between atoms: C_5  and  N_6
REMARK    3  A    between atoms: C_7  and  C_9
REMARK    4  A    between atoms: C_9  and  C_10
REMARK    5  A    between atoms: C_10  and  C_11
REMARK    6  A    between atoms: C_11  and  N_12
REMARK    7  A    between atoms: C_23  and  C_24
REMARK                            x       y       z     vdW  Elec       q    Type
REMARK                         _______ _______ _______ _____ _____    ______ ____
ROOT
ATOM      1  N   UNL     1       3.663   6.043  17.944  0.00  0.00    +0.000 N 
ATOM      2  C   UNL     1       4.445   5.496  16.889  0.00  0.00    +0.000 A 
ATOM      3  C   UNL     1       5.103   6.260  15.908  0.00  0.00    +0.000 A 
ATOM      4  C   UNL     1       5.843   5.661  14.874  0.00  0.00    +0.000 A 
ATOM      5  C   UNL     1       5.961   4.280  14.791  0.00  0.00    +0.000 A 
ATOM      6  C   UNL     1       5.336   3.494  15.746  0.00  0.00    +0.000 A 
ATOM      7  C   UNL     1       4.590   4.098  16.775  0.00  0.00    +0.000 A 
ATOM      8  C   UNL     1       3.948   3.217  17.764  0.00  0.00    +0.000 A 
ATOM      9  O   UNL     1       4.058   1.997  17.680  0.00  0.00    +0.000 OA
ATOM     10  C   UNL     1       3.176   3.824  18.862  0.00  0.00    +0.000 A 
ATOM     11  C   UNL     1       2.590   2.966  19.808  0.00  0.00    +0.000 A 
ATOM     12  C   UNL     1       1.854   3.484  20.869  0.00  0.00    +0.000 A 
ATOM     13  C   UNL     1       1.213   2.577  21.876  0.00  0.00    +0.000 C 
ATOM     14  C   UNL     1       1.722   4.867  20.971  0.00  0.00    +0.000 A 
ATOM     15  C   UNL     1       2.312   5.719  20.022  0.00  0.00    +0.000 A 
ATOM     16  C   UNL     1       3.054   5.223  18.934  0.00  0.00    +0.000 A 
ENDROOT
BRANCH   1  17
ATOM     17  C   UNL     1       3.562   7.515  18.101  0.00  0.00    +0.000 C 
BRANCH  17  18
ATOM     18  C   UNL     1       2.105   7.971  17.956  0.00  0.00    +0.000 C 
BRANCH  18  19
ATOM     19  C   UNL     1       1.950   9.463  17.668  0.00  0.00    +0.000 C 
BRANCH  19  21
ATOM     20  N   UNL     1       1.176  10.486  19.734  0.00  0.00    +0.000 N 
ATOM     21  C   UNL     1       0.795  10.002  18.496  0.00  0.00    +0.000 C 
ATOM     22  O   UNL     1      -0.334  10.030  18.016  0.00  0.00    +0.000 OA
ATOM     23  H   UNL     1       2.130  10.314  20.037  0.00  0.00    +0.000 HD
BRANCH  20  28
ATOM     24  C   UNL     1      -2.011  13.292  23.629  0.00  0.00    +0.000 C 
ATOM     25  C   UNL     1      -1.189  12.564  22.605  0.00  0.00    +0.000 A 
ATOM     26  C   UNL     1      -0.544  13.262  21.582  0.00  0.00    +0.000 A 
ATOM     27  C   UNL     1       0.227  12.590  20.628  0.00  0.00    +0.000 A 
ATOM     28  C   UNL     1       0.377  11.201  20.666  0.00  0.00    +0.000 A 
ATOM     29  C   UNL     1      -0.277  10.500  21.697  0.00  0.00    +0.000 A 
ATOM     30 BR   UNL     1      -0.140   8.607  21.851  0.00  0.00    +0.000 Br
ATOM     31  C   UNL     1      -1.054  11.173  22.657  0.00  0.00    +0.000 A 
ENDBRANCH  20  28
ENDBRANCH  19  21
ENDBRANCH  18  19
ENDBRANCH  17  18
ENDBRANCH   1  17
TORSDOF 5
ENDMDL
MODEL 9
REMARK VINA RESULT:      -9.0      1.236      1.640
REMARK  Name = 
REMARK  7 active torsions:
REMARK  status: ('A' for Active; 'I' for Inactive)
REMARK    1  A    between atoms: C_1  and  C_2
REMARK    2  A    between atoms: C_5  and  N_6
REMARK    3  A    between atoms: C_7  and  C_9
REMARK    4  A    between atoms: C_9  and  C_10
REMARK    5  A    between atoms: C_10  and  C_11
REMARK    6  A    between atoms: C_11  and  N_12
REMARK    7  A    between atoms: C_23  and  C_24
REMARK                            x       y       z     vdW  Elec       q    Type
REMARK                         _______ _______ _______ _____ _____    ______ ____
ROOT
ATOM      1  N   UNL     1       3.350   5.785  18.452  0.00  0.00    +0.000 N 
ATOM      2  C   UNL     1       2.664   4.798  19.213  0.00  0.00    +0.000 A 
ATOM      3  C   UNL     1       1.836   5.077  20.315  0.00  0.00    +0.000 A 
ATOM      4  C   UNL     1       1.202   4.056  21.045  0.00  0.00    +0.000 A 
ATOM      5  C   UNL     1       1.365   2.723  20.692  0.00  0.00    +0.000 A 
ATOM      6  C   UNL     1       2.165   2.408  19.605  0.00  0.00    +0.000 A 
ATOM      7  C   UNL     1       2.803   3.434  18.883  0.00  0.00    +0.000 A 
ATOM      8  C   UNL     1       3.640   3.045  17.735  0.00  0.00    +0.000 A 
ATOM      9  O   UNL     1       3.778   1.863  17.434  0.00  0.00    +0.000 OA
ATOM     10  C   UNL     1       4.304   4.100  16.950  0.00  0.00    +0.000 A 
ATOM     11  C   UNL     1       5.081   3.708  15.846  0.00  0.00    +0.000 A 
ATOM     12  C   UNL     1       5.728   4.662  15.066  0.00  0.00    +0.000 A 
ATOM     13  C   UNL     1       6.569   4.255  13.894  0.00  0.00    +0.000 C 
ATOM     14  C   UNL     1       5.578   6.006  15.402  0.00  0.00    +0.000 A 
ATOM     15  C   UNL     1       4.800   6.389  16.507  0.00  0.00    +0.000 A 
ATOM     16  C   UNL     1       4.142   5.447  17.320  0.00  0.00    +0.000 A 
ENDROOT
BRANCH   1  17
ATOM     17  C   UNL     1       3.154   7.222  18.761  0.00  0.00    +0.000 C 
BRANCH  17  18
ATOM     18  C   UNL     1       1.951   7.777  17.987  0.00  0.00    +0.000 C 
BRANCH  18  19
ATOM     19  C   UNL     1       1.973   9.295  17.817  0.00  0.00    +0.000 C 
BRANCH  19  21
ATOM     20  N   UNL     1       0.523  11.133  18.477  0.00  0.00    +0.000 N 
ATOM     21  C   UNL     1       1.057   9.916  18.860  0.00  0.00    +0.000 C 
ATOM     22  O   UNL     1       0.813   9.303  19.895  0.00  0.00    +0.000 OA
ATOM     23  H   UNL     1       0.884  11.566  17.633  0.00  0.00    +0.000 HD
BRANCH  20  28
ATOM     24  C   UNL     1      -3.498  14.298  21.128  0.00  0.00    +0.000 C 
ATOM     25  C   UNL     1      -2.453  13.463  20.446  0.00  0.00    +0.000 A 
ATOM     26  C   UNL     1      -2.811  12.325  19.721  0.00  0.00    +0.000 A 
ATOM     27  C   UNL     1      -1.843  11.546  19.080  0.00  0.00    +0.000 A 
ATOM     28  C   UNL     1      -0.487  11.880  19.141  0.00  0.00    +0.000 A 
ATOM     29  C   UNL     1      -0.128  13.027  19.874  0.00  0.00    +0.000 A 
ATOM     30 BR   UNL     1       1.687  13.582  20.024  0.00  0.00    +0.000 Br
ATOM     31  C   UNL     1      -1.100  13.811  20.522  0.00  0.00    +0.000 A 
ENDBRANCH  20  28
ENDBRANCH  19  21
ENDBRANCH  18  19
ENDBRANCH  17  18
ENDBRANCH   1  17
TORSDOF 5
ENDMDL
