MODEL 1
REMARK VINA RESULT:      -7.9      0.000      0.000
REMARK  Name = 
REMARK  7 active torsions:
REMARK  status: ('A' for Active; 'I' for Inactive)
REMARK    1  A    between atoms: C_1  and  C_2
REMARK    2  A    between atoms: C_7  and  C_8
REMARK    3  A    between atoms: C_8  and  S_9
REMARK    4  A    between atoms: S_9  and  C_10
REMARK    5  A    between atoms: C_15  and  N_16
REMARK    6  A    between atoms: C_19  and  C_20
REMARK    7  A    between atoms: C_20  and  C_21
REMARK                            x       y       z     vdW  Elec       q    Type
REMARK                         _______ _______ _______ _____ _____    ______ ____
ROOT
ATOM      1  C   UNL     1       1.938   6.596  20.260  0.00  0.00    +0.000 A 
ATOM      2  N   UNL     1       1.181   5.590  20.727  0.00  0.00    +0.000 NA
ATOM      3  C   UNL     1       1.578   4.358  20.421  0.00  0.00    +0.000 A 
ATOM      4  N   UNL     1       0.815   3.297  20.915  0.00  0.00    +0.000 N 
ATOM      5  C   UNL     1       2.698   4.110  19.673  0.00  0.00    +0.000 A 
ATOM      6  C   UNL     1       3.418   5.196  19.204  0.00  0.00    +0.000 A 
ATOM      7  N   UNL     1       3.053   6.452  19.517  0.00  0.00    +0.000 NA
ATOM      8  H   UNL     1       0.014   3.693  21.400  0.00  0.00    +0.000 HD
ATOM      9  H   UNL     1       0.534   2.658  20.180  0.00  0.00    +0.000 HD
ENDROOT
BRANCH   6  10
ATOM     10  N   UNL     1       4.507   4.977  18.376  0.00  0.00    +0.000 N 
ATOM     11  C   UNL     1       5.860   4.937  18.917  0.00  0.00    +0.000 C 
ATOM     12  C   UNL     1       6.742   6.004  18.267  0.00  0.00    +0.000 C 
ATOM     13  C   UNL     1       6.657   6.003  16.729  0.00  0.00    +0.000 C 
ATOM     14  C   UNL     1       5.180   6.121  16.320  0.00  0.00    +0.000 C 
ATOM     15  C   UNL     1       4.322   5.012  16.931  0.00  0.00    +0.000 C 
BRANCH  13  16
ATOM     16  C   UNL     1       7.295   4.768  16.067  0.00  0.00    +0.000 C 
BRANCH  16  17
ATOM     17  C   UNL     1       7.163   4.717  14.564  0.00  0.00    +0.000 C 
ATOM     18  N   UNL     1       6.407   3.704  14.063  0.00  0.00    +0.000 N 
ATOM     19  O   UNL     1       7.726   5.512  13.820  0.00  0.00    +0.000 OA
ATOM     20  H   UNL     1       5.935   3.019  14.635  0.00  0.00    +0.000 HD
ATOM     21  H   UNL     1       6.329   3.636  13.056  0.00  0.00    +0.000 HD
ENDBRANCH  16  17
ENDBRANCH  13  16
ENDBRANCH   6  10
BRANCH   1  22
ATOM     22  S   UNL     1       1.367   8.228  20.680  0.00  0.00    +0.000 S 
BRANCH  22  23
ATOM     23  C   UNL     1       1.560   9.067  19.077  0.00  0.00    +0.000 C 
BRANCH  23  30
ATOM     24  C   UNL     1       1.189  11.792  20.402  0.00  0.00    +0.000 C 
ATOM     25  C   UNL     1       0.215  11.248  19.394  0.00  0.00    +0.000 A 
ATOM     26  C   UNL     1      -0.910  12.027  19.066  0.00  0.00    +0.000 A 
ATOM     27  C   UNL     1      -1.848  11.582  18.137  0.00  0.00    +0.000 A 
ATOM     28  C   UNL     1      -1.675  10.351  17.518  0.00  0.00    +0.000 A 
ATOM     29  C   UNL     1      -0.571   9.562  17.837  0.00  0.00    +0.000 A 
ATOM     30  C   UNL     1       0.387   9.985  18.780  0.00  0.00    +0.000 A 
ENDBRANCH  23  30
ENDBRANCH  22  23
ENDBRANCH   1  22
TORSDOF 6
ENDMDL
MODEL 2
REMARK VINA RESULT:      -7.9      3.162      4.596
REMARK  Name = 
REMARK  7 active torsions:
REMARK  status: ('A' for Active; 'I' for Inactive)
REMARK    1  A    between atoms: C_1  and  C_2
REMARK    2  A    between atoms: C_7  and  C_8
REMARK    3  A    between atoms: C_8  and  S_9
REMARK    4  A    between atoms: S_9  and  C_10
REMARK    5  A    between atoms: C_15  and  N_16
REMARK    6  A    between atoms: C_19  and  C_20
REMARK    7  A    between atoms: C_20  and  C_21
REMARK                            x       y       z     vdW  Elec       q    Type
REMARK                         _______ _______ _______ _____ _____    ______ ____
ROOT
ATOM      1  C   UNL     1       0.466  10.048  19.902  0.00  0.00    +0.000 A 
ATOM      2  N   UNL     1      -0.195  10.067  21.072  0.00  0.00    +0.000 NA
ATOM      3  C   UNL     1       0.008   9.034  21.884  0.00  0.00    +0.000 A 
ATOM      4  N   UNL     1      -0.654   9.044  23.114  0.00  0.00    +0.000 N 
ATOM      5  C   UNL     1       0.846   7.998  21.562  0.00  0.00    +0.000 A 
ATOM      6  C   UNL     1       1.477   8.034  20.330  0.00  0.00    +0.000 A 
ATOM      7  N   UNL     1       1.307   9.077  19.498  0.00  0.00    +0.000 NA
ATOM      8  H   UNL     1      -1.252   9.867  23.134  0.00  0.00    +0.000 HD
ATOM      9  H   UNL     1      -1.179   8.191  23.268  0.00  0.00    +0.000 HD
ENDROOT
BRANCH   6  10
ATOM     10  N   UNL     1       2.263   6.961  19.943  0.00  0.00    +0.000 N 
ATOM     11  C   UNL     1       2.823   6.893  18.598  0.00  0.00    +0.000 C 
ATOM     12  C   UNL     1       2.354   5.632  17.873  0.00  0.00    +0.000 C 
ATOM     13  C   UNL     1       2.525   4.352  18.714  0.00  0.00    +0.000 C 
ATOM     14  C   UNL     1       1.823   4.557  20.066  0.00  0.00    +0.000 C 
ATOM     15  C   UNL     1       2.345   5.789  20.806  0.00  0.00    +0.000 C 
BRANCH  13  16
ATOM     16  C   UNL     1       3.991   3.938  18.932  0.00  0.00    +0.000 C 
BRANCH  16  17
ATOM     17  C   UNL     1       4.189   2.490  19.312  0.00  0.00    +0.000 C 
ATOM     18  N   UNL     1       3.747   1.569  18.414  0.00  0.00    +0.000 N 
ATOM     19  O   UNL     1       4.685   2.144  20.378  0.00  0.00    +0.000 OA
ATOM     20  H   UNL     1       3.322   1.805  17.530  0.00  0.00    +0.000 HD
ATOM     21  H   UNL     1       3.845   0.592  18.663  0.00  0.00    +0.000 HD
ENDBRANCH  16  17
ENDBRANCH  13  16
ENDBRANCH   6  10
BRANCH   1  22
ATOM     22  S   UNL     1       0.157  11.441  18.839  0.00  0.00    +0.000 S 
BRANCH  22  23
ATOM     23  C   UNL     1      -1.591  11.768  19.224  0.00  0.00    +0.000 C 
BRANCH  23  30
ATOM     24  C   UNL     1      -4.608  12.235  19.248  0.00  0.00    +0.000 C 
ATOM     25  C   UNL     1      -3.896  11.626  18.071  0.00  0.00    +0.000 A 
ATOM     26  C   UNL     1      -4.661  11.251  16.952  0.00  0.00    +0.000 A 
ATOM     27  C   UNL     1      -4.063  10.685  15.828  0.00  0.00    +0.000 A 
ATOM     28  C   UNL     1      -2.689  10.486  15.805  0.00  0.00    +0.000 A 
ATOM     29  C   UNL     1      -1.917  10.844  16.908  0.00  0.00    +0.000 A 
ATOM     30  C   UNL     1      -2.498  11.409  18.060  0.00  0.00    +0.000 A 
ENDBRANCH  23  30
ENDBRANCH  22  23
ENDBRANCH   1  22
TORSDOF 6
ENDMDL
MODEL 3
REMARK VINA RESULT:      -7.8      2.587      4.417
REMARK  Name = 
REMARK  7 active torsions:
REMARK  status: ('A' for Active; 'I' for Inactive)
REMARK    1  A    between atoms: C_1  and  C_2
REMARK    2  A    between atoms: C_7  and  C_8
REMARK    3  A    between atoms: C_8  and  S_9
REMARK    4  A    between atoms: S_9  and  C_10
REMARK    5  A    between atoms: C_15  and  N_16
REMARK    6  A    between atoms: C_19  and  C_20
REMARK    7  A    between atoms: C_20  and  C_21
REMARK                            x       y       z     vdW  Elec       q    Type
REMARK                         _______ _______ _______ _____ _____    ______ ____
ROOT
ATOM      1  C   UNL     1       0.455  10.070  20.005  0.00  0.00    +0.000 A 
ATOM      2  N   UNL     1      -0.120  10.216  21.210  0.00  0.00    +0.000 NA
ATOM      3  C   UNL     1       0.088   9.240  22.089  0.00  0.00    +0.000 A 
ATOM      4  N   UNL     1      -0.484   9.382  23.355  0.00  0.00    +0.000 N 
ATOM      5  C   UNL     1       0.849   8.138  21.798  0.00  0.00    +0.000 A 
ATOM      6  C   UNL     1       1.393   8.042  20.528  0.00  0.00    +0.000 A 
ATOM      7  N   UNL     1       1.217   9.026  19.628  0.00  0.00    +0.000 NA
ATOM      8  H   UNL     1      -1.038  10.236  23.348  0.00  0.00    +0.000 HD
ATOM      9  H   UNL     1      -1.039   8.574  23.613  0.00  0.00    +0.000 HD
ENDROOT
BRANCH   6  10
ATOM     10  N   UNL     1       2.095   6.901  20.179  0.00  0.00    +0.000 N 
ATOM     11  C   UNL     1       2.909   6.866  18.969  0.00  0.00    +0.000 C 
ATOM     12  C   UNL     1       2.441   5.759  18.026  0.00  0.00    +0.000 C 
ATOM     13  C   UNL     1       2.265   4.399  18.730  0.00  0.00    +0.000 C 
ATOM     14  C   UNL     1       1.331   4.589  19.936  0.00  0.00    +0.000 C 
ATOM     15  C   UNL     1       1.844   5.660  20.900  0.00  0.00    +0.000 C 
BRANCH  13  16
ATOM     16  C   UNL     1       3.588   3.751  19.178  0.00  0.00    +0.000 C 
BRANCH  16  17
ATOM     17  C   UNL     1       4.644   3.661  18.103  0.00  0.00    +0.000 C 
ATOM     18  N   UNL     1       5.910   3.987  18.477  0.00  0.00    +0.000 N 
ATOM     19  O   UNL     1       4.389   3.348  16.946  0.00  0.00    +0.000 OA
ATOM     20  H   UNL     1       6.165   4.262  19.414  0.00  0.00    +0.000 HD
ATOM     21  H   UNL     1       6.627   3.960  17.763  0.00  0.00    +0.000 HD
ENDBRANCH  16  17
ENDBRANCH  13  16
ENDBRANCH   6  10
BRANCH   1  22
ATOM     22  S   UNL     1       0.142  11.391  18.855  0.00  0.00    +0.000 S 
BRANCH  22  23
ATOM     23  C   UNL     1      -1.608  11.734  19.216  0.00  0.00    +0.000 C 
BRANCH  23  30
ATOM     24  C   UNL     1      -4.621  12.219  19.200  0.00  0.00    +0.000 C 
ATOM     25  C   UNL     1      -3.899  11.599  18.036  0.00  0.00    +0.000 A 
ATOM     26  C   UNL     1      -4.653  11.223  16.909  0.00  0.00    +0.000 A 
ATOM     27  C   UNL     1      -4.045  10.647  15.795  0.00  0.00    +0.000 A 
ATOM     28  C   UNL     1      -2.672  10.440  15.790  0.00  0.00    +0.000 A 
ATOM     29  C   UNL     1      -1.911  10.799  16.901  0.00  0.00    +0.000 A 
ATOM     30  C   UNL     1      -2.503  11.374  18.043  0.00  0.00    +0.000 A 
ENDBRANCH  23  30
ENDBRANCH  22  23
ENDBRANCH   1  22
TORSDOF 6
ENDMDL
MODEL 4
REMARK VINA RESULT:      -7.8      3.210      7.355
REMARK  Name = 
REMARK  7 active torsions:
REMARK  status: ('A' for Active; 'I' for Inactive)
REMARK    1  A    between atoms: C_1  and  C_2
REMARK    2  A    between atoms: C_7  and  C_8
REMARK    3  A    between atoms: C_8  and  S_9
REMARK    4  A    between atoms: S_9  and  C_10
REMARK    5  A    between atoms: C_15  and  N_16
REMARK    6  A    between atoms: C_19  and  C_20
REMARK    7  A    between atoms: C_20  and  C_21
REMARK                            x       y       z     vdW  Elec       q    Type
REMARK                         _______ _______ _______ _____ _____    ______ ____
ROOT
ATOM      1  C   UNL     1       2.465   4.452  18.545  0.00  0.00    +0.000 A 
ATOM      2  N   UNL     1       2.417   3.700  19.657  0.00  0.00    +0.000 NA
ATOM      3  C   UNL     1       2.182   4.342  20.798  0.00  0.00    +0.000 A 
ATOM      4  N   UNL     1       2.108   3.575  21.963  0.00  0.00    +0.000 N 
ATOM      5  C   UNL     1       1.994   5.698  20.854  0.00  0.00    +0.000 A 
ATOM      6  C   UNL     1       2.080   6.414  19.672  0.00  0.00    +0.000 A 
ATOM      7  N   UNL     1       2.294   5.787  18.501  0.00  0.00    +0.000 NA
ATOM      8  H   UNL     1       2.319   2.612  21.712  0.00  0.00    +0.000 HD
ATOM      9  H   UNL     1       2.729   3.922  22.685  0.00  0.00    +0.000 HD
ENDROOT
BRANCH   6  10
ATOM     10  N   UNL     1       1.977   7.794  19.709  0.00  0.00    +0.000 N 
ATOM     11  C   UNL     1       1.414   8.469  20.873  0.00  0.00    +0.000 C 
ATOM     12  C   UNL     1       0.195   9.305  20.485  0.00  0.00    +0.000 C 
ATOM     13  C   UNL     1       0.448  10.213  19.267  0.00  0.00    +0.000 C 
ATOM     14  C   UNL     1       0.968   9.347  18.110  0.00  0.00    +0.000 C 
ATOM     15  C   UNL     1       2.223   8.562  18.495  0.00  0.00    +0.000 C 
BRANCH  13  16
ATOM     16  C   UNL     1       1.421  11.374  19.542  0.00  0.00    +0.000 C 
BRANCH  16  17
ATOM     17  C   UNL     1       1.441  12.448  18.481  0.00  0.00    +0.000 C 
ATOM     18  N   UNL     1       2.537  12.474  17.676  0.00  0.00    +0.000 N 
ATOM     19  O   UNL     1       0.549  13.278  18.359  0.00  0.00    +0.000 OA
ATOM     20  H   UNL     1       3.303  11.820  17.747  0.00  0.00    +0.000 HD
ATOM     21  H   UNL     1       2.583  13.205  16.977  0.00  0.00    +0.000 HD
ENDBRANCH  16  17
ENDBRANCH  13  16
ENDBRANCH   6  10
BRANCH   1  22
ATOM     22  S   UNL     1       2.794   3.557  17.043  0.00  0.00    +0.000 S 
BRANCH  22  23
ATOM     23  C   UNL     1       4.492   2.988  17.364  0.00  0.00    +0.000 C 
BRANCH  23  30
ATOM     24  C   UNL     1       5.723   4.259  14.877  0.00  0.00    +0.000 C 
ATOM     25  C   UNL     1       6.042   4.737  16.267  0.00  0.00    +0.000 A 
ATOM     26  C   UNL     1       6.950   5.801  16.414  0.00  0.00    +0.000 A 
ATOM     27  C   UNL     1       7.285   6.294  17.673  0.00  0.00    +0.000 A 
ATOM     28  C   UNL     1       6.714   5.730  18.807  0.00  0.00    +0.000 A 
ATOM     29  C   UNL     1       5.819   4.670  18.681  0.00  0.00    +0.000 A 
ATOM     30  C   UNL     1       5.472   4.148  17.419  0.00  0.00    +0.000 A 
ENDBRANCH  23  30
ENDBRANCH  22  23
ENDBRANCH   1  22
TORSDOF 6
ENDMDL
MODEL 5
REMARK VINA RESULT:      -7.8      2.633      4.524
REMARK  Name = 
REMARK  7 active torsions:
REMARK  status: ('A' for Active; 'I' for Inactive)
REMARK    1  A    between atoms: C_1  and  C_2
REMARK    2  A    between atoms: C_7  and  C_8
REMARK    3  A    between atoms: C_8  and  S_9
REMARK    4  A    between atoms: S_9  and  C_10
REMARK    5  A    between atoms: C_15  and  N_16
REMARK    6  A    between atoms: C_19  and  C_20
REMARK    7  A    between atoms: C_20  and  C_21
REMARK                            x       y       z     vdW  Elec       q    Type
REMARK                         _______ _______ _______ _____ _____    ______ ____
ROOT
ATOM      1  C   UNL     1       0.347  10.086  20.003  0.00  0.00    +0.000 A 
ATOM      2  N   UNL     1      -0.173  10.246  21.231  0.00  0.00    +0.000 NA
ATOM      3  C   UNL     1       0.110   9.301  22.122  0.00  0.00    +0.000 A 
ATOM      4  N   UNL     1      -0.406   9.459  23.411  0.00  0.00    +0.000 N 
ATOM      5  C   UNL     1       0.893   8.217  21.823  0.00  0.00    +0.000 A 
ATOM      6  C   UNL     1       1.377   8.104  20.531  0.00  0.00    +0.000 A 
ATOM      7  N   UNL     1       1.125   9.057  19.615  0.00  0.00    +0.000 NA
ATOM      8  H   UNL     1      -0.988  10.293  23.409  0.00  0.00    +0.000 HD
ATOM      9  H   UNL     1      -0.919   8.640  23.716  0.00  0.00    +0.000 HD
ENDROOT
BRANCH   6  10
ATOM     10  N   UNL     1       2.100   6.978  20.177  0.00  0.00    +0.000 N 
ATOM     11  C   UNL     1       2.886   6.950  18.948  0.00  0.00    +0.000 C 
ATOM     12  C   UNL     1       2.424   5.821  18.028  0.00  0.00    +0.000 C 
ATOM     13  C   UNL     1       2.300   4.465  18.750  0.00  0.00    +0.000 C 
ATOM     14  C   UNL     1       1.390   4.645  19.975  0.00  0.00    +0.000 C 
ATOM     15  C   UNL     1       1.897   5.738  20.916  0.00  0.00    +0.000 C 
BRANCH  13  16
ATOM     16  C   UNL     1       3.649   3.856  19.173  0.00  0.00    +0.000 C 
BRANCH  16  17
ATOM     17  C   UNL     1       4.657   3.716  18.058  0.00  0.00    +0.000 C 
ATOM     18  N   UNL     1       5.955   3.948  18.391  0.00  0.00    +0.000 N 
ATOM     19  O   UNL     1       4.340   3.446  16.905  0.00  0.00    +0.000 OA
ATOM     20  H   UNL     1       6.262   4.186  19.322  0.00  0.00    +0.000 HD
ATOM     21  H   UNL     1       6.643   3.888  17.650  0.00  0.00    +0.000 HD
ENDBRANCH  16  17
ENDBRANCH  13  16
ENDBRANCH   6  10
BRANCH   1  22
ATOM     22  S   UNL     1      -0.065  11.364  18.836  0.00  0.00    +0.000 S 
BRANCH  22  23
ATOM     23  C   UNL     1      -1.084  10.421  17.661  0.00  0.00    +0.000 C 
BRANCH  23  30
ATOM     24  C   UNL     1      -2.887  10.180  15.209  0.00  0.00    +0.000 C 
ATOM     25  C   UNL     1      -3.351  10.816  16.490  0.00  0.00    +0.000 A 
ATOM     26  C   UNL     1      -4.661  11.326  16.545  0.00  0.00    +0.000 A 
ATOM     27  C   UNL     1      -5.154  11.923  17.703  0.00  0.00    +0.000 A 
ATOM     28  C   UNL     1      -4.344  12.020  18.827  0.00  0.00    +0.000 A 
ATOM     29  C   UNL     1      -3.041  11.528  18.788  0.00  0.00    +0.000 A 
ATOM     30  C   UNL     1      -2.516  10.928  17.626  0.00  0.00    +0.000 A 
ENDBRANCH  23  30
ENDBRANCH  22  23
ENDBRANCH   1  22
TORSDOF 6
ENDMDL
MODEL 6
REMARK VINA RESULT:      -7.7      5.087      7.509
REMARK  Name = 
REMARK  7 active torsions:
REMARK  status: ('A' for Active; 'I' for Inactive)
REMARK    1  A    between atoms: C_1  and  C_2
REMARK    2  A    between atoms: C_7  and  C_8
REMARK    3  A    between atoms: C_8  and  S_9
REMARK    4  A    between atoms: S_9  and  C_10
REMARK    5  A    between atoms: C_15  and  N_16
REMARK    6  A    between atoms: C_19  and  C_20
REMARK    7  A    between atoms: C_20  and  C_21
REMARK                            x       y       z     vdW  Elec       q    Type
REMARK                         _______ _______ _______ _____ _____    ______ ____
ROOT
ATOM      1  C   UNL     1       7.185   6.567  17.590  0.00  0.00    +0.000 A 
ATOM      2  N   UNL     1       7.549   6.390  16.309  0.00  0.00    +0.000 NA
ATOM      3  C   UNL     1       6.777   5.592  15.578  0.00  0.00    +0.000 A 
ATOM      4  N   UNL     1       7.126   5.411  14.238  0.00  0.00    +0.000 N 
ATOM      5  C   UNL     1       5.663   4.978  16.087  0.00  0.00    +0.000 A 
ATOM      6  C   UNL     1       5.360   5.187  17.422  0.00  0.00    +0.000 A 
ATOM      7  N   UNL     1       6.112   6.007  18.179  0.00  0.00    +0.000 NA
ATOM      8  H   UNL     1       7.997   5.911  14.077  0.00  0.00    +0.000 HD
ATOM      9  H   UNL     1       7.203   4.430  13.996  0.00  0.00    +0.000 HD
ENDROOT
BRANCH   6  10
ATOM     10  N   UNL     1       4.289   4.513  17.985  0.00  0.00    +0.000 N 
ATOM     11  C   UNL     1       4.071   4.531  19.427  0.00  0.00    +0.000 C 
ATOM     12  C   UNL     1       4.084   3.114  20.001  0.00  0.00    +0.000 C 
ATOM     13  C   UNL     1       3.184   2.138  19.220  0.00  0.00    +0.000 C 
ATOM     14  C   UNL     1       3.584   2.183  17.737  0.00  0.00    +0.000 C 
ATOM     15  C   UNL     1       3.509   3.598  17.161  0.00  0.00    +0.000 C 
BRANCH  13  16
ATOM     16  C   UNL     1       1.678   2.415  19.374  0.00  0.00    +0.000 C 
BRANCH  16  17
ATOM     17  C   UNL     1       1.277   3.010  20.703  0.00  0.00    +0.000 C 
ATOM     18  N   UNL     1       0.688   4.235  20.658  0.00  0.00    +0.000 N 
ATOM     19  O   UNL     1       1.493   2.452  21.772  0.00  0.00    +0.000 OA
ATOM     20  H   UNL     1       0.502   4.738  19.803  0.00  0.00    +0.000 HD
ATOM     21  H   UNL     1       0.439   4.663  21.541  0.00  0.00    +0.000 HD
ENDBRANCH  16  17
ENDBRANCH  13  16
ENDBRANCH   6  10
BRANCH   1  22
ATOM     22  S   UNL     1       8.252   7.631  18.537  0.00  0.00    +0.000 S 
BRANCH  22  23
ATOM     23  C   UNL     1       7.916   9.230  17.738  0.00  0.00    +0.000 C 
BRANCH  23  30
ATOM     24  C   UNL     1       7.646  12.154  16.902  0.00  0.00    +0.000 C 
ATOM     25  C   UNL     1       8.564  11.714  18.009  0.00  0.00    +0.000 A 
ATOM     26  C   UNL     1       9.329  12.694  18.668  0.00  0.00    +0.000 A 
ATOM     27  C   UNL     1      10.195  12.354  19.705  0.00  0.00    +0.000 A 
ATOM     28  C   UNL     1      10.309  11.027  20.101  0.00  0.00    +0.000 A 
ATOM     29  C   UNL     1       9.565  10.043  19.454  0.00  0.00    +0.000 A 
ATOM     30  C   UNL     1       8.689  10.360  18.396  0.00  0.00    +0.000 A 
ENDBRANCH  23  30
ENDBRANCH  22  23
ENDBRANCH   1  22
TORSDOF 6
ENDMDL
MODEL 7
REMARK VINA RESULT:      -7.6      3.245      6.986
REMARK  Name = 
REMARK  7 active torsions:
REMARK  status: ('A' for Active; 'I' for Inactive)
REMARK    1  A    between atoms: C_1  and  C_2
REMARK    2  A    between atoms: C_7  and  C_8
REMARK    3  A    between atoms: C_8  and  S_9
REMARK    4  A    between atoms: S_9  and  C_10
REMARK    5  A    between atoms: C_15  and  N_16
REMARK    6  A    between atoms: C_19  and  C_20
REMARK    7  A    between atoms: C_20  and  C_21
REMARK                            x       y       z     vdW  Elec       q    Type
REMARK                         _______ _______ _______ _____ _____    ______ ____
ROOT
ATOM      1  C   UNL     1       3.185   3.881  18.925  0.00  0.00    +0.000 A 
ATOM      2  N   UNL     1       2.492   3.153  19.817  0.00  0.00    +0.000 NA
ATOM      3  C   UNL     1       1.678   3.824  20.625  0.00  0.00    +0.000 A 
ATOM      4  N   UNL     1       0.934   3.083  21.547  0.00  0.00    +0.000 N 
ATOM      5  C   UNL     1       1.538   5.186  20.564  0.00  0.00    +0.000 A 
ATOM      6  C   UNL     1       2.299   5.875  19.636  0.00  0.00    +0.000 A 
ATOM      7  N   UNL     1       3.115   5.219  18.790  0.00  0.00    +0.000 NA
ATOM      8  H   UNL     1       1.217   2.110  21.460  0.00  0.00    +0.000 HD
ATOM      9  H   UNL     1       1.052   3.428  22.493  0.00  0.00    +0.000 HD
ENDROOT
BRANCH   6  10
ATOM     10  N   UNL     1       2.241   7.258  19.608  0.00  0.00    +0.000 N 
ATOM     11  C   UNL     1       1.663   8.003  20.720  0.00  0.00    +0.000 C 
ATOM     12  C   UNL     1       0.485   8.858  20.253  0.00  0.00    +0.000 C 
ATOM     13  C   UNL     1       0.807   9.701  19.004  0.00  0.00    +0.000 C 
ATOM     14  C   UNL     1       1.336   8.766  17.906  0.00  0.00    +0.000 C 
ATOM     15  C   UNL     1       2.551   7.960  18.369  0.00  0.00    +0.000 C 
BRANCH  13  16
ATOM     16  C   UNL     1       1.808  10.842  19.260  0.00  0.00    +0.000 C 
BRANCH  16  17
ATOM     17  C   UNL     1       1.566  12.090  18.446  0.00  0.00    +0.000 C 
ATOM     18  N   UNL     1       2.555  12.444  17.582  0.00  0.00    +0.000 N 
ATOM     19  O   UNL     1       0.558  12.778  18.568  0.00  0.00    +0.000 OA
ATOM     20  H   UNL     1       3.407  11.917  17.457  0.00  0.00    +0.000 HD
ATOM     21  H   UNL     1       2.423  13.294  17.048  0.00  0.00    +0.000 HD
ENDBRANCH  16  17
ENDBRANCH  13  16
ENDBRANCH   6  10
BRANCH   1  22
ATOM     22  S   UNL     1       4.272   2.947  17.871  0.00  0.00    +0.000 S 
BRANCH  22  23
ATOM     23  C   UNL     1       4.704   4.213  16.638  0.00  0.00    +0.000 C 
BRANCH  23  30
ATOM     24  C   UNL     1       4.955   7.111  15.712  0.00  0.00    +0.000 C 
ATOM     25  C   UNL     1       5.881   6.509  16.732  0.00  0.00    +0.000 A 
ATOM     26  C   UNL     1       6.904   7.316  17.262  0.00  0.00    +0.000 A 
ATOM     27  C   UNL     1       7.793   6.820  18.213  0.00  0.00    +0.000 A 
ATOM     28  C   UNL     1       7.673   5.508  18.651  0.00  0.00    +0.000 A 
ATOM     29  C   UNL     1       6.671   4.691  18.131  0.00  0.00    +0.000 A 
ATOM     30  C   UNL     1       5.765   5.166  17.161  0.00  0.00    +0.000 A 
ENDBRANCH  23  30
ENDBRANCH  22  23
ENDBRANCH   1  22
TORSDOF 6
ENDMDL
MODEL 8
REMARK VINA RESULT:      -7.6      3.219      7.335
REMARK  Name = 
REMARK  7 active torsions:
REMARK  status: ('A' for Active; 'I' for Inactive)
REMARK    1  A    between atoms: C_1  and  C_2
REMARK    2  A    between atoms: C_7  and  C_8
REMARK    3  A    between atoms: C_8  and  S_9
REMARK    4  A    between atoms: S_9  and  C_10
REMARK    5  A    between atoms: C_15  and  N_16
REMARK    6  A    between atoms: C_19  and  C_20
REMARK    7  A    between atoms: C_20  and  C_21
REMARK                            x       y       z     vdW  Elec       q    Type
REMARK                         _______ _______ _______ _____ _____    ______ ____
ROOT
ATOM      1  C   UNL     1       2.401   4.396  18.609  0.00  0.00    +0.000 A 
ATOM      2  N   UNL     1       2.367   3.663  19.734  0.00  0.00    +0.000 NA
ATOM      3  C   UNL     1       2.161   4.326  20.867  0.00  0.00    +0.000 A 
ATOM      4  N   UNL     1       2.101   3.580  22.047  0.00  0.00    +0.000 N 
ATOM      5  C   UNL     1       1.987   5.685  20.904  0.00  0.00    +0.000 A 
ATOM      6  C   UNL     1       2.058   6.380  19.709  0.00  0.00    +0.000 A 
ATOM      7  N   UNL     1       2.243   5.732  18.545  0.00  0.00    +0.000 NA
ATOM      8  H   UNL     1       2.298   2.611  21.808  0.00  0.00    +0.000 HD
ATOM      9  H   UNL     1       2.740   3.932  22.750  0.00  0.00    +0.000 HD
ENDROOT
BRANCH   6  10
ATOM     10  N   UNL     1       1.970   7.762  19.726  0.00  0.00    +0.000 N 
ATOM     11  C   UNL     1       1.428   8.462  20.885  0.00  0.00    +0.000 C 
ATOM     12  C   UNL     1       0.213   9.304  20.498  0.00  0.00    +0.000 C 
ATOM     13  C   UNL     1       0.461  10.190  19.262  0.00  0.00    +0.000 C 
ATOM     14  C   UNL     1       0.957   9.299  18.113  0.00  0.00    +0.000 C 
ATOM     15  C   UNL     1       2.209   8.507  18.496  0.00  0.00    +0.000 C 
BRANCH  13  16
ATOM     16  C   UNL     1       1.449  11.344  19.507  0.00  0.00    +0.000 C 
BRANCH  16  17
ATOM     17  C   UNL     1       1.411  12.440  18.469  0.00  0.00    +0.000 C 
ATOM     18  N   UNL     1       2.505  12.544  17.667  0.00  0.00    +0.000 N 
ATOM     19  O   UNL     1       0.475  13.223  18.363  0.00  0.00    +0.000 OA
ATOM     20  H   UNL     1       3.305  11.931  17.726  0.00  0.00    +0.000 HD
ATOM     21  H   UNL     1       2.511  13.291  16.984  0.00  0.00    +0.000 HD
ENDBRANCH  16  17
ENDBRANCH  13  16
ENDBRANCH   6  10
BRANCH   1  22
ATOM     22  S   UNL     1       2.692   3.473  17.116  0.00  0.00    +0.000 S 
BRANCH  22  23
ATOM     23  C   UNL     1       4.404   2.926  17.395  0.00  0.00    +0.000 C 
BRANCH  23  30
ATOM     24  C   UNL     1       5.822   5.020  19.103  0.00  0.00    +0.000 C 
ATOM     25  C   UNL     1       6.066   4.888  17.625  0.00  0.00    +0.000 A 
ATOM     26  C   UNL     1       6.973   5.774  17.018  0.00  0.00    +0.000 A 
ATOM     27  C   UNL     1       7.247   5.702  15.653  0.00  0.00    +0.000 A 
ATOM     28  C   UNL     1       6.618   4.740  14.874  0.00  0.00    +0.000 A 
ATOM     29  C   UNL     1       5.709   3.859  15.458  0.00  0.00    +0.000 A 
ATOM     30  C   UNL     1       5.408   3.917  16.833  0.00  0.00    +0.000 A 
ENDBRANCH  23  30
ENDBRANCH  22  23
ENDBRANCH   1  22
TORSDOF 6
ENDMDL
MODEL 9
REMARK VINA RESULT:      -7.6      0.962      1.508
REMARK  Name = 
REMARK  7 active torsions:
REMARK  status: ('A' for Active; 'I' for Inactive)
REMARK    1  A    between atoms: C_1  and  C_2
REMARK    2  A    between atoms: C_7  and  C_8
REMARK    3  A    between atoms: C_8  and  S_9
REMARK    4  A    between atoms: S_9  and  C_10
REMARK    5  A    between atoms: C_15  and  N_16
REMARK    6  A    between atoms: C_19  and  C_20
REMARK    7  A    between atoms: C_20  and  C_21
REMARK                            x       y       z     vdW  Elec       q    Type
REMARK                         _______ _______ _______ _____ _____    ______ ____
ROOT
ATOM      1  C   UNL     1       2.142   6.753  20.151  0.00  0.00    +0.000 A 
ATOM      2  N   UNL     1       1.536   5.784  20.858  0.00  0.00    +0.000 NA
ATOM      3  C   UNL     1       2.018   4.554  20.712  0.00  0.00    +0.000 A 
ATOM      4  N   UNL     1       1.414   3.535  21.453  0.00  0.00    +0.000 N 
ATOM      5  C   UNL     1       3.078   4.271  19.890  0.00  0.00    +0.000 A 
ATOM      6  C   UNL     1       3.640   5.314  19.175  0.00  0.00    +0.000 A 
ATOM      7  N   UNL     1       3.187   6.572  19.320  0.00  0.00    +0.000 NA
ATOM      8  H   UNL     1       0.630   3.944  21.955  0.00  0.00    +0.000 HD
ATOM      9  H   UNL     1       1.125   2.761  20.867  0.00  0.00    +0.000 HD
ENDROOT
BRANCH   6  10
ATOM     10  N   UNL     1       4.657   5.044  18.274  0.00  0.00    +0.000 N 
ATOM     11  C   UNL     1       6.040   4.927  18.723  0.00  0.00    +0.000 C 
ATOM     12  C   UNL     1       6.932   5.950  18.020  0.00  0.00    +0.000 C 
ATOM     13  C   UNL     1       6.745   5.966  16.491  0.00  0.00    +0.000 C 
ATOM     14  C   UNL     1       5.253   6.166  16.183  0.00  0.00    +0.000 C 
ATOM     15  C   UNL     1       4.378   5.100  16.845  0.00  0.00    +0.000 C 
BRANCH  13  16
ATOM     16  C   UNL     1       7.270   4.704  15.783  0.00  0.00    +0.000 C 
BRANCH  16  17
ATOM     17  C   UNL     1       7.087   4.698  14.284  0.00  0.00    +0.000 C 
ATOM     18  N   UNL     1       6.330   3.688  13.777  0.00  0.00    +0.000 N 
ATOM     19  O   UNL     1       7.612   5.525  13.547  0.00  0.00    +0.000 OA
ATOM     20  H   UNL     1       5.890   2.978  14.342  0.00  0.00    +0.000 HD
ATOM     21  H   UNL     1       6.220   3.650  12.771  0.00  0.00    +0.000 HD
ENDBRANCH  16  17
ENDBRANCH  13  16
ENDBRANCH   6  10
BRANCH   1  22
ATOM     22  S   UNL     1       1.460   8.382  20.365  0.00  0.00    +0.000 S 
BRANCH  22  23
ATOM     23  C   UNL     1       1.504   8.985  18.649  0.00  0.00    +0.000 C 
BRANCH  23  30
ATOM     24  C   UNL     1      -1.286  10.195  18.908  0.00  0.00    +0.000 C 
ATOM     25  C   UNL     1      -0.060  11.038  18.693  0.00  0.00    +0.000 A 
ATOM     26  C   UNL     1      -0.219  12.433  18.597  0.00  0.00    +0.000 A 
ATOM     27  C   UNL     1       0.877  13.271  18.401  0.00  0.00    +0.000 A 
ATOM     28  C   UNL     1       2.151  12.727  18.300  0.00  0.00    +0.000 A 
ATOM     29  C   UNL     1       2.326  11.347  18.384  0.00  0.00    +0.000 A 
ATOM     30  C   UNL     1       1.233  10.478  18.572  0.00  0.00    +0.000 A 
ENDBRANCH  23  30
ENDBRANCH  22  23
ENDBRANCH   1  22
TORSDOF 6
ENDMDL
