MODEL 1
REMARK VINA RESULT:      -9.2      0.000      0.000
REMARK  Name = 
REMARK  3 active torsions:
REMARK  status: ('A' for Active; 'I' for Inactive)
REMARK    1  A    between atoms: C_5  and  C_6
REMARK    2  A    between atoms: C_12  and  C_13
REMARK    3  A    between atoms: C_17  and  N_18
REMARK                            x       y       z     vdW  Elec       q    Type
REMARK                         _______ _______ _______ _____ _____    ______ ____
ROOT
ATOM      1  C   UNL     1       5.138   4.612  17.097  0.00  0.00    +0.000 A 
ATOM      2  C   UNL     1       5.121   3.376  17.759  0.00  0.00    +0.000 A 
ATOM      3  C   UNL     1       4.325   3.153  18.885  0.00  0.00    +0.000 A 
ATOM      4  C   UNL     1       3.536   4.214  19.336  0.00  0.00    +0.000 A 
ATOM      5  N   UNL     1       2.665   4.273  20.400  0.00  0.00    +0.000 N 
ATOM      6  C   UNL     1       2.082   5.508  20.463  0.00  0.00    +0.000 A 
ATOM      7  C   UNL     1       2.572   6.281  19.423  0.00  0.00    +0.000 A 
ATOM      8  C   UNL     1       3.511   5.463  18.714  0.00  0.00    +0.000 A 
ATOM      9  C   UNL     1       4.327   5.657  17.578  0.00  0.00    +0.000 A 
ATOM     10  H   UNL     1       2.478   3.505  21.030  0.00  0.00    +0.000 HD
ENDROOT
BRANCH   1  15
ATOM     11  N   UNL     1       6.665   3.898  12.739  0.00  0.00    +0.000 N 
ATOM     12  C   UNL     1       6.669   4.461  13.949  0.00  0.00    +0.000 A 
ATOM     13  N   UNL     1       7.441   5.398  14.445  0.00  0.00    +0.000 NA
ATOM     14  N   UNL     1       7.000   5.619  15.735  0.00  0.00    +0.000 NA
ATOM     15  C   UNL     1       5.993   4.791  15.930  0.00  0.00    +0.000 A 
ATOM     16  O   UNL     1       5.737   4.009  14.832  0.00  0.00    +0.000 OA
ATOM     17  H   UNL     1       7.495   4.020  12.171  0.00  0.00    +0.000 HD
ATOM     18  H   UNL     1       6.192   3.011  12.628  0.00  0.00    +0.000 HD
ENDBRANCH   1  15
BRANCH   7  19
ATOM     19  C   UNL     1       2.118   7.637  19.144  0.00  0.00    +0.000 A 
ATOM     20  C   UNL     1       2.433   8.250  17.931  0.00  0.00    +0.000 A 
ATOM     21  N   UNL     1       2.078   9.515  17.625  0.00  0.00    +0.000 NA
ATOM     22  C   UNL     1       1.397  10.144  18.609  0.00  0.00    +0.000 A 
ATOM     23  C   UNL     1       1.076   9.570  19.852  0.00  0.00    +0.000 A 
ATOM     24  N   UNL     1       1.429   8.291  20.120  0.00  0.00    +0.000 NA
BRANCH  23  25
ATOM     25  N   UNL     1       0.376  10.354  20.769  0.00  0.00    +0.000 N 
ATOM     26  C   UNL     1      -0.303  11.549  20.282  0.00  0.00    +0.000 C 
ATOM     27  C   UNL     1      -0.451  12.490  21.489  0.00  0.00    +0.000 C 
ATOM     28  C   UNL     1      -1.152  11.807  22.671  0.00  0.00    +0.000 C 
ATOM     29  C   UNL     1      -0.550  10.436  22.992  0.00  0.00    +0.000 C 
ATOM     30  C   UNL     1      -0.412   9.583  21.733  0.00  0.00    +0.000 C 
ENDBRANCH  23  25
ENDBRANCH   7  19
TORSDOF 3
ENDMDL
MODEL 2
REMARK VINA RESULT:      -9.2      0.558      1.099
REMARK  Name = 
REMARK  3 active torsions:
REMARK  status: ('A' for Active; 'I' for Inactive)
REMARK    1  A    between atoms: C_5  and  C_6
REMARK    2  A    between atoms: C_12  and  C_13
REMARK    3  A    between atoms: C_17  and  N_18
REMARK                            x       y       z     vdW  Elec       q    Type
REMARK                         _______ _______ _______ _____ _____    ______ ____
ROOT
ATOM      1  C   UNL     1       5.024   4.740  17.453  0.00  0.00    +0.000 A 
ATOM      2  C   UNL     1       4.978   3.547  18.188  0.00  0.00    +0.000 A 
ATOM      3  C   UNL     1       4.156   3.401  19.308  0.00  0.00    +0.000 A 
ATOM      4  C   UNL     1       3.370   4.494  19.678  0.00  0.00    +0.000 A 
ATOM      5  N   UNL     1       2.478   4.627  20.717  0.00  0.00    +0.000 N 
ATOM      6  C   UNL     1       1.909   5.870  20.694  0.00  0.00    +0.000 A 
ATOM      7  C   UNL     1       2.430   6.573  19.619  0.00  0.00    +0.000 A 
ATOM      8  C   UNL     1       3.373   5.704  18.982  0.00  0.00    +0.000 A 
ATOM      9  C   UNL     1       4.215   5.821  17.853  0.00  0.00    +0.000 A 
ATOM     10  H   UNL     1       2.269   3.900  21.387  0.00  0.00    +0.000 HD
ENDROOT
BRANCH   1  15
ATOM     11  N   UNL     1       6.607   3.779  13.163  0.00  0.00    +0.000 N 
ATOM     12  C   UNL     1       6.606   4.398  14.346  0.00  0.00    +0.000 A 
ATOM     13  N   UNL     1       7.397   5.334  14.814  0.00  0.00    +0.000 NA
ATOM     14  N   UNL     1       6.939   5.628  16.083  0.00  0.00    +0.000 NA
ATOM     15  C   UNL     1       5.904   4.839  16.296  0.00  0.00    +0.000 A 
ATOM     16  O   UNL     1       5.645   4.015  15.230  0.00  0.00    +0.000 OA
ATOM     17  H   UNL     1       7.451   3.850  12.607  0.00  0.00    +0.000 HD
ATOM     18  H   UNL     1       6.110   2.902  13.085  0.00  0.00    +0.000 HD
ENDBRANCH   1  15
BRANCH   7  19
ATOM     19  C   UNL     1       1.997   7.915  19.250  0.00  0.00    +0.000 A 
ATOM     20  C   UNL     1       2.276   8.420  17.980  0.00  0.00    +0.000 A 
ATOM     21  N   UNL     1       1.940   9.666  17.587  0.00  0.00    +0.000 NA
ATOM     22  C   UNL     1       1.316  10.390  18.543  0.00  0.00    +0.000 A 
ATOM     23  C   UNL     1       1.033   9.926  19.840  0.00  0.00    +0.000 A 
ATOM     24  N   UNL     1       1.366   8.664  20.197  0.00  0.00    +0.000 NA
BRANCH  23  25
ATOM     25  N   UNL     1       0.391  10.799  20.718  0.00  0.00    +0.000 N 
ATOM     26  C   UNL     1       0.054  10.316  22.052  0.00  0.00    +0.000 C 
ATOM     27  C   UNL     1      -1.108  11.189  22.552  0.00  0.00    +0.000 C 
ATOM     28  C   UNL     1      -0.773  12.687  22.493  0.00  0.00    +0.000 C 
ATOM     29  C   UNL     1      -0.193  13.099  21.137  0.00  0.00    +0.000 C 
ATOM     30  C   UNL     1       0.932  12.160  20.706  0.00  0.00    +0.000 C 
ENDBRANCH  23  25
ENDBRANCH   7  19
TORSDOF 3
ENDMDL
MODEL 3
REMARK VINA RESULT:      -8.7      3.269      5.340
REMARK  Name = 
REMARK  3 active torsions:
REMARK  status: ('A' for Active; 'I' for Inactive)
REMARK    1  A    between atoms: C_5  and  C_6
REMARK    2  A    between atoms: C_12  and  C_13
REMARK    3  A    between atoms: C_17  and  N_18
REMARK                            x       y       z     vdW  Elec       q    Type
REMARK                         _______ _______ _______ _____ _____    ______ ____
ROOT
ATOM      1  C   UNL     1       2.593   6.201  19.341  0.00  0.00    +0.000 A 
ATOM      2  C   UNL     1       3.148   6.451  18.078  0.00  0.00    +0.000 A 
ATOM      3  C   UNL     1       3.003   7.685  17.439  0.00  0.00    +0.000 A 
ATOM      4  C   UNL     1       2.279   8.675  18.107  0.00  0.00    +0.000 A 
ATOM      5  N   UNL     1       1.988   9.964  17.723  0.00  0.00    +0.000 N 
ATOM      6  C   UNL     1       1.268  10.595  18.699  0.00  0.00    +0.000 A 
ATOM      7  C   UNL     1       1.079   9.711  19.749  0.00  0.00    +0.000 A 
ATOM      8  C   UNL     1       1.708   8.482  19.366  0.00  0.00    +0.000 A 
ATOM      9  C   UNL     1       1.872   7.224  19.986  0.00  0.00    +0.000 A 
ATOM     10  H   UNL     1       2.283  10.381  16.851  0.00  0.00    +0.000 HD
ENDROOT
BRANCH   1  15
ATOM     11  N   UNL     1       1.617   2.622  22.182  0.00  0.00    +0.000 N 
ATOM     12  C   UNL     1       2.310   3.275  21.248  0.00  0.00    +0.000 A 
ATOM     13  N   UNL     1       3.365   2.904  20.561  0.00  0.00    +0.000 NA
ATOM     14  N   UNL     1       3.665   3.954  19.716  0.00  0.00    +0.000 NA
ATOM     15  C   UNL     1       2.770   4.893  19.959  0.00  0.00    +0.000 A 
ATOM     16  O   UNL     1       1.883   4.529  20.940  0.00  0.00    +0.000 OA
ATOM     17  H   UNL     1       2.062   1.819  22.610  0.00  0.00    +0.000 HD
ATOM     18  H   UNL     1       1.018   3.161  22.793  0.00  0.00    +0.000 HD
ENDBRANCH   1  15
BRANCH   7  19
ATOM     19  C   UNL     1       0.407  10.069  20.992  0.00  0.00    +0.000 A 
ATOM     20  C   UNL     1       0.803   9.492  22.198  0.00  0.00    +0.000 A 
ATOM     21  N   UNL     1       0.199   9.749  23.377  0.00  0.00    +0.000 NA
ATOM     22  C   UNL     1      -0.838  10.611  23.282  0.00  0.00    +0.000 A 
ATOM     23  C   UNL     1      -1.281  11.200  22.084  0.00  0.00    +0.000 A 
ATOM     24  N   UNL     1      -0.641  10.937  20.922  0.00  0.00    +0.000 NA
BRANCH  23  25
ATOM     25  N   UNL     1      -2.375  12.063  22.150  0.00  0.00    +0.000 N 
ATOM     26  C   UNL     1      -2.497  12.938  23.311  0.00  0.00    +0.000 C 
ATOM     27  C   UNL     1      -3.987  13.298  23.430  0.00  0.00    +0.000 C 
ATOM     28  C   UNL     1      -4.543  13.897  22.131  0.00  0.00    +0.000 C 
ATOM     29  C   UNL     1      -4.179  13.059  20.902  0.00  0.00    +0.000 C 
ATOM     30  C   UNL     1      -2.690  12.723  20.881  0.00  0.00    +0.000 C 
ENDBRANCH  23  25
ENDBRANCH   7  19
TORSDOF 3
ENDMDL
MODEL 4
REMARK VINA RESULT:      -8.7      1.112      1.387
REMARK  Name = 
REMARK  3 active torsions:
REMARK  status: ('A' for Active; 'I' for Inactive)
REMARK    1  A    between atoms: C_5  and  C_6
REMARK    2  A    between atoms: C_12  and  C_13
REMARK    3  A    between atoms: C_17  and  N_18
REMARK                            x       y       z     vdW  Elec       q    Type
REMARK                         _______ _______ _______ _____ _____    ______ ____
ROOT
ATOM      1  C   UNL     1       4.950   4.579  18.501  0.00  0.00    +0.000 A 
ATOM      2  C   UNL     1       4.635   3.409  19.206  0.00  0.00    +0.000 A 
ATOM      3  C   UNL     1       3.546   3.344  20.079  0.00  0.00    +0.000 A 
ATOM      4  C   UNL     1       2.769   4.496  20.227  0.00  0.00    +0.000 A 
ATOM      5  N   UNL     1       1.653   4.712  21.002  0.00  0.00    +0.000 N 
ATOM      6  C   UNL     1       1.197   5.988  20.826  0.00  0.00    +0.000 A 
ATOM      7  C   UNL     1       2.023   6.630  19.917  0.00  0.00    +0.000 A 
ATOM      8  C   UNL     1       3.036   5.686  19.549  0.00  0.00    +0.000 A 
ATOM      9  C   UNL     1       4.144   5.720  18.674  0.00  0.00    +0.000 A 
ATOM     10  H   UNL     1       1.228   4.016  21.600  0.00  0.00    +0.000 HD
ENDROOT
BRANCH   1  15
ATOM     11  N   UNL     1       7.274   5.180  14.492  0.00  0.00    +0.000 N 
ATOM     12  C   UNL     1       7.143   4.876  15.785  0.00  0.00    +0.000 A 
ATOM     13  N   UNL     1       8.048   4.528  16.670  0.00  0.00    +0.000 NA
ATOM     14  N   UNL     1       7.373   4.347  17.861  0.00  0.00    +0.000 NA
ATOM     15  C   UNL     1       6.103   4.592  17.609  0.00  0.00    +0.000 A 
ATOM     16  O   UNL     1       5.883   4.922  16.295  0.00  0.00    +0.000 OA
ATOM     17  H   UNL     1       8.134   4.899  14.037  0.00  0.00    +0.000 HD
ATOM     18  H   UNL     1       6.447   5.149  13.911  0.00  0.00    +0.000 HD
ENDBRANCH   1  15
BRANCH   7  19
ATOM     19  C   UNL     1       1.795   7.988  19.441  0.00  0.00    +0.000 A 
ATOM     20  C   UNL     1       2.177   8.356  18.151  0.00  0.00    +0.000 A 
ATOM     21  N   UNL     1       2.031   9.605  17.662  0.00  0.00    +0.000 NA
ATOM     22  C   UNL     1       1.490  10.476  18.543  0.00  0.00    +0.000 A 
ATOM     23  C   UNL     1       1.109  10.152  19.857  0.00  0.00    +0.000 A 
ATOM     24  N   UNL     1       1.250   8.885  20.311  0.00  0.00    +0.000 NA
BRANCH  23  25
ATOM     25  N   UNL     1       0.573  11.167  20.649  0.00  0.00    +0.000 N 
ATOM     26  C   UNL     1       0.587  12.530  20.129  0.00  0.00    +0.000 C 
ATOM     27  C   UNL     1       0.523  13.463  21.349  0.00  0.00    +0.000 C 
ATOM     28  C   UNL     1      -0.675  13.149  22.255  0.00  0.00    +0.000 C 
ATOM     29  C   UNL     1      -0.784  11.656  22.579  0.00  0.00    +0.000 C 
ATOM     30  C   UNL     1      -0.680  10.806  21.315  0.00  0.00    +0.000 C 
ENDBRANCH  23  25
ENDBRANCH   7  19
TORSDOF 3
ENDMDL
MODEL 5
REMARK VINA RESULT:      -8.6      3.564      8.299
REMARK  Name = 
REMARK  3 active torsions:
REMARK  status: ('A' for Active; 'I' for Inactive)
REMARK    1  A    between atoms: C_5  and  C_6
REMARK    2  A    between atoms: C_12  and  C_13
REMARK    3  A    between atoms: C_17  and  N_18
REMARK                            x       y       z     vdW  Elec       q    Type
REMARK                         _______ _______ _______ _____ _____    ______ ____
ROOT
ATOM      1  C   UNL     1      -2.131  10.985  18.094  0.00  0.00    +0.000 A 
ATOM      2  C   UNL     1      -2.493  11.920  19.074  0.00  0.00    +0.000 A 
ATOM      3  C   UNL     1      -1.803  12.026  20.285  0.00  0.00    +0.000 A 
ATOM      4  C   UNL     1      -0.725  11.160  20.490  0.00  0.00    +0.000 A 
ATOM      5  N   UNL     1       0.122  11.049  21.568  0.00  0.00    +0.000 N 
ATOM      6  C   UNL     1       1.056  10.078  21.335  0.00  0.00    +0.000 A 
ATOM      7  C   UNL     1       0.826   9.537  20.080  0.00  0.00    +0.000 A 
ATOM      8  C   UNL     1      -0.320  10.214  19.548  0.00  0.00    +0.000 A 
ATOM      9  C   UNL     1      -1.038  10.132  18.334  0.00  0.00    +0.000 A 
ATOM     10  H   UNL     1       0.066  11.619  22.401  0.00  0.00    +0.000 HD
ENDROOT
BRANCH   1  15
ATOM     11  N   UNL     1      -2.941   9.980  13.604  0.00  0.00    +0.000 N 
ATOM     12  C   UNL     1      -3.245  10.446  14.816  0.00  0.00    +0.000 A 
ATOM     13  N   UNL     1      -4.364  10.957  15.272  0.00  0.00    +0.000 NA
ATOM     14  N   UNL     1      -4.138  11.259  16.601  0.00  0.00    +0.000 NA
ATOM     15  C   UNL     1      -2.890  10.915  16.852  0.00  0.00    +0.000 A 
ATOM     16  O   UNL     1      -2.256  10.402  15.750  0.00  0.00    +0.000 OA
ATOM     17  H   UNL     1      -3.554  10.243  12.842  0.00  0.00    +0.000 HD
ATOM     18  H   UNL     1      -1.963   9.888  13.361  0.00  0.00    +0.000 HD
ENDBRANCH   1  15
BRANCH   7  19
ATOM     19  C   UNL     1       1.674   8.519  19.474  0.00  0.00    +0.000 A 
ATOM     20  C   UNL     1       2.331   8.774  18.270  0.00  0.00    +0.000 A 
ATOM     21  N   UNL     1       3.098   7.863  17.637  0.00  0.00    +0.000 NA
ATOM     22  C   UNL     1       3.164   6.670  18.269  0.00  0.00    +0.000 A 
ATOM     23  C   UNL     1       2.503   6.365  19.473  0.00  0.00    +0.000 A 
ATOM     24  N   UNL     1       1.756   7.308  20.094  0.00  0.00    +0.000 NA
BRANCH  23  25
ATOM     25  N   UNL     1       2.662   5.083  19.996  0.00  0.00    +0.000 N 
ATOM     26  C   UNL     1       1.555   4.498  20.746  0.00  0.00    +0.000 C 
ATOM     27  C   UNL     1       2.168   3.433  21.669  0.00  0.00    +0.000 C 
ATOM     28  C   UNL     1       3.010   2.410  20.893  0.00  0.00    +0.000 C 
ATOM     29  C   UNL     1       3.999   3.080  19.935  0.00  0.00    +0.000 C 
ATOM     30  C   UNL     1       3.312   4.142  19.081  0.00  0.00    +0.000 C 
ENDBRANCH  23  25
ENDBRANCH   7  19
TORSDOF 3
ENDMDL
MODEL 6
REMARK VINA RESULT:      -8.6      0.765      1.379
REMARK  Name = 
REMARK  3 active torsions:
REMARK  status: ('A' for Active; 'I' for Inactive)
REMARK    1  A    between atoms: C_5  and  C_6
REMARK    2  A    between atoms: C_12  and  C_13
REMARK    3  A    between atoms: C_17  and  N_18
REMARK                            x       y       z     vdW  Elec       q    Type
REMARK                         _______ _______ _______ _____ _____    ______ ____
ROOT
ATOM      1  C   UNL     1       4.672   4.176  17.034  0.00  0.00    +0.000 A 
ATOM      2  C   UNL     1       4.655   2.964  17.740  0.00  0.00    +0.000 A 
ATOM      3  C   UNL     1       3.968   2.824  18.949  0.00  0.00    +0.000 A 
ATOM      4  C   UNL     1       3.290   3.943  19.438  0.00  0.00    +0.000 A 
ATOM      5  N   UNL     1       2.538   4.086  20.582  0.00  0.00    +0.000 N 
ATOM      6  C   UNL     1       2.035   5.355  20.658  0.00  0.00    +0.000 A 
ATOM      7  C   UNL     1       2.457   6.065  19.545  0.00  0.00    +0.000 A 
ATOM      8  C   UNL     1       3.271   5.171  18.776  0.00  0.00    +0.000 A 
ATOM      9  C   UNL     1       3.975   5.281  17.556  0.00  0.00    +0.000 A 
ATOM     10  H   UNL     1       2.374   3.350  21.254  0.00  0.00    +0.000 HD
ENDROOT
BRANCH   1  15
ATOM     11  N   UNL     1       8.071   5.555  14.140  0.00  0.00    +0.000 N 
ATOM     12  C   UNL     1       6.963   4.896  14.483  0.00  0.00    +0.000 A 
ATOM     13  N   UNL     1       6.210   4.080  13.782  0.00  0.00    +0.000 NA
ATOM     14  N   UNL     1       5.200   3.665  14.627  0.00  0.00    +0.000 NA
ATOM     15  C   UNL     1       5.411   4.268  15.781  0.00  0.00    +0.000 A 
ATOM     16  O   UNL     1       6.513   5.083  15.753  0.00  0.00    +0.000 OA
ATOM     17  H   UNL     1       8.267   5.644  13.150  0.00  0.00    +0.000 HD
ATOM     18  H   UNL     1       8.351   6.343  14.709  0.00  0.00    +0.000 HD
ENDBRANCH   1  15
BRANCH   7  19
ATOM     19  C   UNL     1       2.053   7.436  19.264  0.00  0.00    +0.000 A 
ATOM     20  C   UNL     1       2.424   8.049  18.067  0.00  0.00    +0.000 A 
ATOM     21  N   UNL     1       2.117   9.327  17.761  0.00  0.00    +0.000 NA
ATOM     22  C   UNL     1       1.425   9.968  18.729  0.00  0.00    +0.000 A 
ATOM     23  C   UNL     1       1.048   9.395  19.957  0.00  0.00    +0.000 A 
ATOM     24  N   UNL     1       1.354   8.104  20.224  0.00  0.00    +0.000 NA
BRANCH  23  25
ATOM     25  N   UNL     1       0.344  10.192  20.858  0.00  0.00    +0.000 N 
ATOM     26  C   UNL     1       0.479   9.911  22.283  0.00  0.00    +0.000 C 
ATOM     27  C   UNL     1      -0.780  10.475  22.961  0.00  0.00    +0.000 C 
ATOM     28  C   UNL     1      -0.999  11.958  22.631  0.00  0.00    +0.000 C 
ATOM     29  C   UNL     1      -0.892  12.242  21.131  0.00  0.00    +0.000 C 
ATOM     30  C   UNL     1       0.370  11.620  20.537  0.00  0.00    +0.000 C 
ENDBRANCH  23  25
ENDBRANCH   7  19
TORSDOF 3
ENDMDL
MODEL 7
REMARK VINA RESULT:      -8.5      3.110      5.035
REMARK  Name = 
REMARK  3 active torsions:
REMARK  status: ('A' for Active; 'I' for Inactive)
REMARK    1  A    between atoms: C_5  and  C_6
REMARK    2  A    between atoms: C_12  and  C_13
REMARK    3  A    between atoms: C_17  and  N_18
REMARK                            x       y       z     vdW  Elec       q    Type
REMARK                         _______ _______ _______ _____ _____    ______ ____
ROOT
ATOM      1  C   UNL     1       2.691   6.188  19.278  0.00  0.00    +0.000 A 
ATOM      2  C   UNL     1       3.227   6.447  18.009  0.00  0.00    +0.000 A 
ATOM      3  C   UNL     1       3.055   7.679  17.372  0.00  0.00    +0.000 A 
ATOM      4  C   UNL     1       2.323   8.658  18.050  0.00  0.00    +0.000 A 
ATOM      5  N   UNL     1       2.008   9.942  17.670  0.00  0.00    +0.000 N 
ATOM      6  C   UNL     1       1.290  10.561  18.654  0.00  0.00    +0.000 A 
ATOM      7  C   UNL     1       1.127   9.674  19.706  0.00  0.00    +0.000 A 
ATOM      8  C   UNL     1       1.770   8.455  19.314  0.00  0.00    +0.000 A 
ATOM      9  C   UNL     1       1.961   7.199  19.932  0.00  0.00    +0.000 A 
ATOM     10  H   UNL     1       2.286  10.364  16.794  0.00  0.00    +0.000 HD
ENDROOT
BRANCH   1  15
ATOM     11  N   UNL     1       4.751   2.059  20.009  0.00  0.00    +0.000 N 
ATOM     12  C   UNL     1       3.845   3.016  20.217  0.00  0.00    +0.000 A 
ATOM     13  N   UNL     1       2.868   3.084  21.091  0.00  0.00    +0.000 NA
ATOM     14  N   UNL     1       2.250   4.302  20.885  0.00  0.00    +0.000 NA
ATOM     15  C   UNL     1       2.896   4.883  19.893  0.00  0.00    +0.000 A 
ATOM     16  O   UNL     1       3.919   4.108  19.408  0.00  0.00    +0.000 OA
ATOM     17  H   UNL     1       4.556   1.146  20.404  0.00  0.00    +0.000 HD
ATOM     18  H   UNL     1       5.241   2.051  19.124  0.00  0.00    +0.000 HD
ENDBRANCH   1  15
BRANCH   7  19
ATOM     19  C   UNL     1       0.464  10.021  20.956  0.00  0.00    +0.000 A 
ATOM     20  C   UNL     1       0.874   9.439  22.156  0.00  0.00    +0.000 A 
ATOM     21  N   UNL     1       0.279   9.686  23.342  0.00  0.00    +0.000 NA
ATOM     22  C   UNL     1      -0.763  10.542  23.261  0.00  0.00    +0.000 A 
ATOM     23  C   UNL     1      -1.221  11.136  22.071  0.00  0.00    +0.000 A 
ATOM     24  N   UNL     1      -0.589  10.883  20.901  0.00  0.00    +0.000 NA
BRANCH  23  25
ATOM     25  N   UNL     1      -2.318  11.993  22.151  0.00  0.00    +0.000 N 
ATOM     26  C   UNL     1      -2.764  12.425  23.472  0.00  0.00    +0.000 C 
ATOM     27  C   UNL     1      -4.243  12.816  23.326  0.00  0.00    +0.000 C 
ATOM     28  C   UNL     1      -4.460  13.857  22.219  0.00  0.00    +0.000 C 
ATOM     29  C   UNL     1      -3.764  13.468  20.911  0.00  0.00    +0.000 C 
ATOM     30  C   UNL     1      -2.311  13.065  21.154  0.00  0.00    +0.000 C 
ENDBRANCH  23  25
ENDBRANCH   7  19
TORSDOF 3
ENDMDL
MODEL 8
REMARK VINA RESULT:      -8.5      3.111      4.987
REMARK  Name = 
REMARK  3 active torsions:
REMARK  status: ('A' for Active; 'I' for Inactive)
REMARK    1  A    between atoms: C_5  and  C_6
REMARK    2  A    between atoms: C_12  and  C_13
REMARK    3  A    between atoms: C_17  and  N_18
REMARK                            x       y       z     vdW  Elec       q    Type
REMARK                         _______ _______ _______ _____ _____    ______ ____
ROOT
ATOM      1  C   UNL     1       2.662   6.245  19.289  0.00  0.00    +0.000 A 
ATOM      2  C   UNL     1       3.185   6.504  18.014  0.00  0.00    +0.000 A 
ATOM      3  C   UNL     1       3.005   7.735  17.378  0.00  0.00    +0.000 A 
ATOM      4  C   UNL     1       2.280   8.714  18.062  0.00  0.00    +0.000 A 
ATOM      5  N   UNL     1       1.960   9.998  17.685  0.00  0.00    +0.000 N 
ATOM      6  C   UNL     1       1.251  10.617  18.676  0.00  0.00    +0.000 A 
ATOM      7  C   UNL     1       1.100   9.731  19.730  0.00  0.00    +0.000 A 
ATOM      8  C   UNL     1       1.740   8.512  19.333  0.00  0.00    +0.000 A 
ATOM      9  C   UNL     1       1.939   7.256  19.949  0.00  0.00    +0.000 A 
ATOM     10  H   UNL     1       2.228  10.419  16.806  0.00  0.00    +0.000 HD
ENDROOT
BRANCH   1  15
ATOM     11  N   UNL     1       4.730   2.116  19.998  0.00  0.00    +0.000 N 
ATOM     12  C   UNL     1       3.828   3.074  20.217  0.00  0.00    +0.000 A 
ATOM     13  N   UNL     1       2.862   3.143  21.103  0.00  0.00    +0.000 NA
ATOM     14  N   UNL     1       2.242   4.361  20.904  0.00  0.00    +0.000 NA
ATOM     15  C   UNL     1       2.875   4.940  19.902  0.00  0.00    +0.000 A 
ATOM     16  O   UNL     1       3.891   4.165  19.405  0.00  0.00    +0.000 OA
ATOM     17  H   UNL     1       4.539   1.204  20.396  0.00  0.00    +0.000 HD
ATOM     18  H   UNL     1       5.208   2.107  19.106  0.00  0.00    +0.000 HD
ENDBRANCH   1  15
BRANCH   7  19
ATOM     19  C   UNL     1       0.450  10.078  20.987  0.00  0.00    +0.000 A 
ATOM     20  C   UNL     1       0.777   9.398  22.161  0.00  0.00    +0.000 A 
ATOM     21  N   UNL     1       0.186   9.643  23.349  0.00  0.00    +0.000 NA
ATOM     22  C   UNL     1      -0.765  10.601  23.298  0.00  0.00    +0.000 A 
ATOM     23  C   UNL     1      -1.139  11.296  22.134  0.00  0.00    +0.000 A 
ATOM     24  N   UNL     1      -0.513  11.041  20.962  0.00  0.00    +0.000 NA
BRANCH  23  25
ATOM     25  N   UNL     1      -2.149  12.252  22.243  0.00  0.00    +0.000 N 
ATOM     26  C   UNL     1      -2.894  12.612  21.041  0.00  0.00    +0.000 C 
ATOM     27  C   UNL     1      -3.465  14.017  21.286  0.00  0.00    +0.000 C 
ATOM     28  C   UNL     1      -4.288  14.089  22.581  0.00  0.00    +0.000 C 
ATOM     29  C   UNL     1      -3.549  13.476  23.774  0.00  0.00    +0.000 C 
ATOM     30  C   UNL     1      -2.990  12.097  23.431  0.00  0.00    +0.000 C 
ENDBRANCH  23  25
ENDBRANCH   7  19
TORSDOF 3
ENDMDL
MODEL 9
REMARK VINA RESULT:      -8.5      3.253      5.324
REMARK  Name = 
REMARK  3 active torsions:
REMARK  status: ('A' for Active; 'I' for Inactive)
REMARK    1  A    between atoms: C_5  and  C_6
REMARK    2  A    between atoms: C_12  and  C_13
REMARK    3  A    between atoms: C_17  and  N_18
REMARK                            x       y       z     vdW  Elec       q    Type
REMARK                         _______ _______ _______ _____ _____    ______ ____
ROOT
ATOM      1  C   UNL     1       2.533   6.405  19.184  0.00  0.00    +0.000 A 
ATOM      2  C   UNL     1       3.112   6.689  17.939  0.00  0.00    +0.000 A 
ATOM      3  C   UNL     1       3.005   7.950  17.346  0.00  0.00    +0.000 A 
ATOM      4  C   UNL     1       2.296   8.931  18.042  0.00  0.00    +0.000 A 
ATOM      5  N   UNL     1       2.042  10.241  17.703  0.00  0.00    +0.000 N 
ATOM      6  C   UNL     1       1.323  10.852  18.693  0.00  0.00    +0.000 A 
ATOM      7  C   UNL     1       1.098   9.934  19.706  0.00  0.00    +0.000 A 
ATOM      8  C   UNL     1       1.702   8.705  19.284  0.00  0.00    +0.000 A 
ATOM      9  C   UNL     1       1.828   7.420  19.858  0.00  0.00    +0.000 A 
ATOM     10  H   UNL     1       2.358  10.683  16.852  0.00  0.00    +0.000 HD
ENDROOT
BRANCH   1  15
ATOM     11  N   UNL     1       1.810   2.937  22.231  0.00  0.00    +0.000 N 
ATOM     12  C   UNL     1       2.327   3.506  21.140  0.00  0.00    +0.000 A 
ATOM     13  N   UNL     1       3.102   3.002  20.208  0.00  0.00    +0.000 NA
ATOM     14  N   UNL     1       3.324   4.019  19.300  0.00  0.00    +0.000 NA
ATOM     15  C   UNL     1       2.670   5.070  19.753  0.00  0.00    +0.000 A 
ATOM     16  O   UNL     1       2.022   4.816  20.935  0.00  0.00    +0.000 OA
ATOM     17  H   UNL     1       2.228   2.068  22.540  0.00  0.00    +0.000 HD
ATOM     18  H   UNL     1       1.474   3.543  22.969  0.00  0.00    +0.000 HD
ENDBRANCH   1  15
BRANCH   7  19
ATOM     19  C   UNL     1       0.418  10.260  20.952  0.00  0.00    +0.000 A 
ATOM     20  C   UNL     1       0.738   9.582  22.129  0.00  0.00    +0.000 A 
ATOM     21  N   UNL     1       0.120   9.808  23.307  0.00  0.00    +0.000 NA
ATOM     22  C   UNL     1      -0.851  10.745  23.243  0.00  0.00    +0.000 A 
ATOM     23  C   UNL     1      -1.219  11.438  22.075  0.00  0.00    +0.000 A 
ATOM     24  N   UNL     1      -0.566  11.202  20.913  0.00  0.00    +0.000 NA
BRANCH  23  25
ATOM     25  N   UNL     1      -2.251  12.370  22.169  0.00  0.00    +0.000 N 
ATOM     26  C   UNL     1      -3.035  12.659  20.973  0.00  0.00    +0.000 C 
ATOM     27  C   UNL     1      -3.638  14.058  21.174  0.00  0.00    +0.000 C 
ATOM     28  C   UNL     1      -4.431  14.163  22.485  0.00  0.00    +0.000 C 
ATOM     29  C   UNL     1      -3.648  13.621  23.683  0.00  0.00    +0.000 C 
ATOM     30  C   UNL     1      -3.059  12.244  23.383  0.00  0.00    +0.000 C 
ENDBRANCH  23  25
ENDBRANCH   7  19
TORSDOF 3
ENDMDL
