MODEL 1
REMARK VINA RESULT:      -8.2      0.000      0.000
REMARK  Name = 
REMARK  7 active torsions:
REMARK  status: ('A' for Active; 'I' for Inactive)
REMARK    1  A    between atoms: C_1  and  C_2
REMARK    2  A    between atoms: C_4  and  C_5
REMARK    3  A    between atoms: C_10  and  C_11
REMARK    4  A    between atoms: C_13  and  C_14
REMARK    5  A    between atoms: C_20  and  N_21
REMARK    6  A    between atoms: C_24  and  C_25
REMARK    7  A    between atoms: N_28  and  C_29
REMARK                            x       y       z     vdW  Elec       q    Type
REMARK                         _______ _______ _______ _____ _____    ______ ____
ROOT
ATOM      1  C   UNL     1      -2.664  12.078  19.917  0.00  0.00    +0.000 A 
ATOM      2  C   UNL     1      -2.985  11.832  18.573  0.00  0.00    +0.000 A 
ATOM      3  C   UNL     1      -2.277  10.909  17.829  0.00  0.00    +0.000 A 
ATOM      4  N   UNL     1      -1.160  10.339  18.327  0.00  0.00    +0.000 NA
ATOM      5  C   UNL     1      -0.725  10.624  19.568  0.00  0.00    +0.000 A 
ATOM      6  C   UNL     1       0.488  10.075  20.019  0.00  0.00    +0.000 A 
ATOM      7  C   UNL     1       0.948  10.277  21.329  0.00  0.00    +0.000 A 
ATOM      8  C   UNL     1       0.182  11.008  22.216  0.00  0.00    +0.000 A 
ATOM      9  C   UNL     1      -1.033  11.539  21.791  0.00  0.00    +0.000 A 
ATOM     10  C   UNL     1      -1.492  11.430  20.445  0.00  0.00    +0.000 A 
ENDROOT
BRANCH   1  17
ATOM     11  C   UNL     1      -1.841  15.025  20.576  0.00  0.00    +0.000 C 
ATOM     12  C   UNL     1      -3.148  14.388  20.987  0.00  0.00    +0.000 A 
ATOM     13  C   UNL     1      -4.018  15.215  21.739  0.00  0.00    +0.000 A 
ATOM     14  C   UNL     1      -5.275  14.772  22.158  0.00  0.00    +0.000 A 
ATOM     15  C   UNL     1      -5.647  13.463  21.865  0.00  0.00    +0.000 A 
ATOM     16  C   UNL     1      -4.764  12.611  21.194  0.00  0.00    +0.000 A 
ATOM     17  C   UNL     1      -3.519  13.045  20.689  0.00  0.00    +0.000 A 
BRANCH  14  18
ATOM     18  C   UNL     1      -6.239  15.622  22.908  0.00  0.00    +0.000 C 
ATOM     19  N   UNL     1      -6.591  15.256  24.176  0.00  0.00    +0.000 N 
ATOM     20  O   UNL     1      -6.725  16.631  22.406  0.00  0.00    +0.000 OA
ATOM     21  H   UNL     1      -6.298  14.414  24.647  0.00  0.00    +0.000 HD
ATOM     22  H   UNL     1      -7.277  15.840  24.640  0.00  0.00    +0.000 HD
ENDBRANCH  14  18
ENDBRANCH   1  17
BRANCH   6  23
ATOM     23  N   UNL     1       1.284   9.281  19.149  0.00  0.00    +0.000 N 
ATOM     24  C   UNL     1       1.780   9.603  17.901  0.00  0.00    +0.000 A 
ATOM     25  N   UNL     1       2.466   8.620  17.360  0.00  0.00    +0.000 NA
ATOM     26  C   UNL     1       2.419   7.617  18.283  0.00  0.00    +0.000 A 
ATOM     27  C   UNL     1       1.744   8.007  19.411  0.00  0.00    +0.000 A 
BRANCH  26  28
ATOM     28  C   UNL     1       3.016   6.329  18.009  0.00  0.00    +0.000 A 
ATOM     29  C   UNL     1       4.300   6.112  17.477  0.00  0.00    +0.000 A 
ATOM     30  N   UNL     1       4.572   4.813  17.324  0.00  0.00    +0.000 NA
ATOM     31  N   UNL     1       3.448   4.209  17.756  0.00  0.00    +0.000 N 
ATOM     32  C   UNL     1       3.349   2.771  17.747  0.00  0.00    +0.000 C 
ATOM     33  C   UNL     1       2.482   5.073  18.175  0.00  0.00    +0.000 A 
ENDBRANCH  26  28
ENDBRANCH   6  23
BRANCH   3  34
ATOM     34  C   UNL     1      -2.742  10.528  16.426  0.00  0.00    +0.000 C 
ATOM     35  F   UNL     1      -2.440  11.478  15.490  0.00  0.00    +0.000 F 
ATOM     36  F   UNL     1      -2.175   9.376  15.976  0.00  0.00    +0.000 F 
ATOM     37  F   UNL     1      -4.091  10.354  16.340  0.00  0.00    +0.000 F 
ENDBRANCH   3  34
TORSDOF 5
ENDMDL
MODEL 2
REMARK VINA RESULT:      -8.0      1.552      1.768
REMARK  Name = 
REMARK  7 active torsions:
REMARK  status: ('A' for Active; 'I' for Inactive)
REMARK    1  A    between atoms: C_1  and  C_2
REMARK    2  A    between atoms: C_4  and  C_5
REMARK    3  A    between atoms: C_10  and  C_11
REMARK    4  A    between atoms: C_13  and  C_14
REMARK    5  A    between atoms: C_20  and  N_21
REMARK    6  A    between atoms: C_24  and  C_25
REMARK    7  A    between atoms: N_28  and  C_29
REMARK                            x       y       z     vdW  Elec       q    Type
REMARK                         _______ _______ _______ _____ _____    ______ ____
ROOT
ATOM      1  C   UNL     1      -1.653  11.750  20.984  0.00  0.00    +0.000 A 
ATOM      2  C   UNL     1      -1.967  11.803  19.616  0.00  0.00    +0.000 A 
ATOM      3  C   UNL     1      -1.468  10.866  18.734  0.00  0.00    +0.000 A 
ATOM      4  N   UNL     1      -0.539   9.972  19.136  0.00  0.00    +0.000 NA
ATOM      5  C   UNL     1      -0.101   9.946  20.408  0.00  0.00    +0.000 A 
ATOM      6  C   UNL     1       0.928   9.057  20.766  0.00  0.00    +0.000 A 
ATOM      7  C   UNL     1       1.368   8.934  22.093  0.00  0.00    +0.000 A 
ATOM      8  C   UNL     1       0.760   9.679  23.085  0.00  0.00    +0.000 A 
ATOM      9  C   UNL     1      -0.275  10.547  22.749  0.00  0.00    +0.000 A 
ATOM     10  C   UNL     1      -0.691  10.765  21.402  0.00  0.00    +0.000 A 
ENDROOT
BRANCH   1  17
ATOM     11  C   UNL     1      -0.215  14.326  22.031  0.00  0.00    +0.000 C 
ATOM     12  C   UNL     1      -1.634  13.937  22.375  0.00  0.00    +0.000 A 
ATOM     13  C   UNL     1      -2.311  14.818  23.253  0.00  0.00    +0.000 A 
ATOM     14  C   UNL     1      -3.639  14.604  23.631  0.00  0.00    +0.000 A 
ATOM     15  C   UNL     1      -4.284  13.462  23.165  0.00  0.00    +0.000 A 
ATOM     16  C   UNL     1      -3.601  12.542  22.363  0.00  0.00    +0.000 A 
ATOM     17  C   UNL     1      -2.286  12.762  21.899  0.00  0.00    +0.000 A 
BRANCH  14  18
ATOM     18  C   UNL     1      -4.404  15.529  24.511  0.00  0.00    +0.000 C 
ATOM     19  N   UNL     1      -5.758  15.614  24.355  0.00  0.00    +0.000 N 
ATOM     20  O   UNL     1      -3.841  16.216  25.357  0.00  0.00    +0.000 OA
ATOM     21  H   UNL     1      -6.300  15.143  23.648  0.00  0.00    +0.000 HD
ATOM     22  H   UNL     1      -6.239  16.282  24.949  0.00  0.00    +0.000 HD
ENDBRANCH  14  18
ENDBRANCH   1  17
BRANCH   6  23
ATOM     23  N   UNL     1       1.547   8.241  19.781  0.00  0.00    +0.000 N 
ATOM     24  C   UNL     1       1.852   8.554  18.471  0.00  0.00    +0.000 A 
ATOM     25  N   UNL     1       2.409   7.552  17.827  0.00  0.00    +0.000 NA
ATOM     26  C   UNL     1       2.471   6.544  18.745  0.00  0.00    +0.000 A 
ATOM     27  C   UNL     1       1.997   6.950  19.966  0.00  0.00    +0.000 A 
BRANCH  26  28
ATOM     28  C   UNL     1       2.971   5.238  18.378  0.00  0.00    +0.000 A 
ATOM     29  C   UNL     1       3.924   4.971  17.379  0.00  0.00    +0.000 A 
ATOM     30  N   UNL     1       4.180   3.665  17.260  0.00  0.00    +0.000 NA
ATOM     31  N   UNL     1       3.378   3.107  18.187  0.00  0.00    +0.000 N 
ATOM     32  C   UNL     1       3.366   1.677  18.369  0.00  0.00    +0.000 C 
ATOM     33  C   UNL     1       2.628   4.006  18.883  0.00  0.00    +0.000 A 
ENDBRANCH  26  28
ENDBRANCH   6  23
BRANCH   3  34
ATOM     34  C   UNL     1      -1.951  10.833  17.287  0.00  0.00    +0.000 C 
ATOM     35  F   UNL     1      -1.423   9.792  16.574  0.00  0.00    +0.000 F 
ATOM     36  F   UNL     1      -3.302  10.702  17.183  0.00  0.00    +0.000 F 
ATOM     37  F   UNL     1      -1.616  11.953  16.587  0.00  0.00    +0.000 F 
ENDBRANCH   3  34
TORSDOF 5
ENDMDL
MODEL 3
REMARK VINA RESULT:      -8.0      0.659      1.120
REMARK  Name = 
REMARK  7 active torsions:
REMARK  status: ('A' for Active; 'I' for Inactive)
REMARK    1  A    between atoms: C_1  and  C_2
REMARK    2  A    between atoms: C_4  and  C_5
REMARK    3  A    between atoms: C_10  and  C_11
REMARK    4  A    between atoms: C_13  and  C_14
REMARK    5  A    between atoms: C_20  and  N_21
REMARK    6  A    between atoms: C_24  and  C_25
REMARK    7  A    between atoms: N_28  and  C_29
REMARK                            x       y       z     vdW  Elec       q    Type
REMARK                         _______ _______ _______ _____ _____    ______ ____
ROOT
ATOM      1  C   UNL     1      -2.758  12.093  20.045  0.00  0.00    +0.000 A 
ATOM      2  C   UNL     1      -3.065  11.888  18.690  0.00  0.00    +0.000 A 
ATOM      3  C   UNL     1      -2.347  10.989  17.926  0.00  0.00    +0.000 A 
ATOM      4  N   UNL     1      -1.234  10.405  18.419  0.00  0.00    +0.000 NA
ATOM      5  C   UNL     1      -0.813  10.653  19.673  0.00  0.00    +0.000 A 
ATOM      6  C   UNL     1       0.396  10.092  20.119  0.00  0.00    +0.000 A 
ATOM      7  C   UNL     1       0.842  10.256  21.440  0.00  0.00    +0.000 A 
ATOM      8  C   UNL     1       0.065  10.958  22.341  0.00  0.00    +0.000 A 
ATOM      9  C   UNL     1      -1.146  11.500  21.919  0.00  0.00    +0.000 A 
ATOM     10  C   UNL     1      -1.591  11.431  20.565  0.00  0.00    +0.000 A 
ENDROOT
BRANCH   1  17
ATOM     11  C   UNL     1      -1.945  15.019  20.804  0.00  0.00    +0.000 C 
ATOM     12  C   UNL     1      -3.257  14.369  21.180  0.00  0.00    +0.000 A 
ATOM     13  C   UNL     1      -4.136  15.172  21.947  0.00  0.00    +0.000 A 
ATOM     14  C   UNL     1      -5.397  14.715  22.338  0.00  0.00    +0.000 A 
ATOM     15  C   UNL     1      -5.764  13.416  22.000  0.00  0.00    +0.000 A 
ATOM     16  C   UNL     1      -4.874  12.586  21.313  0.00  0.00    +0.000 A 
ATOM     17  C   UNL     1      -3.623  13.036  20.836  0.00  0.00    +0.000 A 
BRANCH  14  18
ATOM     18  C   UNL     1      -6.371  15.542  23.103  0.00  0.00    +0.000 C 
ATOM     19  N   UNL     1      -7.613  15.749  22.574  0.00  0.00    +0.000 N 
ATOM     20  O   UNL     1      -6.075  16.041  24.183  0.00  0.00    +0.000 OA
ATOM     21  H   UNL     1      -7.926  15.438  21.667  0.00  0.00    +0.000 HD
ATOM     22  H   UNL     1      -8.235  16.347  23.106  0.00  0.00    +0.000 HD
ENDBRANCH  14  18
ENDBRANCH   1  17
BRANCH   6  23
ATOM     23  N   UNL     1       1.202   9.326  19.235  0.00  0.00    +0.000 N 
ATOM     24  C   UNL     1       1.737   9.697  18.017  0.00  0.00    +0.000 A 
ATOM     25  N   UNL     1       2.422   8.729  17.448  0.00  0.00    +0.000 NA
ATOM     26  C   UNL     1       2.333   7.685  18.322  0.00  0.00    +0.000 A 
ATOM     27  C   UNL     1       1.635   8.034  19.449  0.00  0.00    +0.000 A 
BRANCH  26  28
ATOM     28  C   UNL     1       2.917   6.401  18.003  0.00  0.00    +0.000 A 
ATOM     29  C   UNL     1       2.331   5.146  18.247  0.00  0.00    +0.000 A 
ATOM     30  N   UNL     1       3.114   4.137  17.853  0.00  0.00    +0.000 NA
ATOM     31  N   UNL     1       4.202   4.763  17.364  0.00  0.00    +0.000 N 
ATOM     32  C   UNL     1       5.301   3.996  16.831  0.00  0.00    +0.000 C 
ATOM     33  C   UNL     1       4.137   6.121  17.434  0.00  0.00    +0.000 A 
ENDBRANCH  26  28
ENDBRANCH   6  23
BRANCH   3  34
ATOM     34  C   UNL     1      -2.796  10.650  16.508  0.00  0.00    +0.000 C 
ATOM     35  F   UNL     1      -2.395   9.405  16.108  0.00  0.00    +0.000 F 
ATOM     36  F   UNL     1      -4.149  10.664  16.364  0.00  0.00    +0.000 F 
ATOM     37  F   UNL     1      -2.299  11.506  15.572  0.00  0.00    +0.000 F 
ENDBRANCH   3  34
TORSDOF 5
ENDMDL
MODEL 4
REMARK VINA RESULT:      -8.0      1.349      1.563
REMARK  Name = 
REMARK  7 active torsions:
REMARK  status: ('A' for Active; 'I' for Inactive)
REMARK    1  A    between atoms: C_1  and  C_2
REMARK    2  A    between atoms: C_4  and  C_5
REMARK    3  A    between atoms: C_10  and  C_11
REMARK    4  A    between atoms: C_13  and  C_14
REMARK    5  A    between atoms: C_20  and  N_21
REMARK    6  A    between atoms: C_24  and  C_25
REMARK    7  A    between atoms: N_28  and  C_29
REMARK                            x       y       z     vdW  Elec       q    Type
REMARK                         _______ _______ _______ _____ _____    ______ ____
ROOT
ATOM      1  C   UNL     1      -2.040  11.854  20.975  0.00  0.00    +0.000 A 
ATOM      2  C   UNL     1      -2.234  11.878  19.584  0.00  0.00    +0.000 A 
ATOM      3  C   UNL     1      -1.632  10.943  18.766  0.00  0.00    +0.000 A 
ATOM      4  N   UNL     1      -0.718  10.083  19.263  0.00  0.00    +0.000 NA
ATOM      5  C   UNL     1      -0.394  10.088  20.569  0.00  0.00    +0.000 A 
ATOM      6  C   UNL     1       0.624   9.235  21.031  0.00  0.00    +0.000 A 
ATOM      7  C   UNL     1       0.948   9.144  22.394  0.00  0.00    +0.000 A 
ATOM      8  C   UNL     1       0.234   9.885  23.316  0.00  0.00    +0.000 A 
ATOM      9  C   UNL     1      -0.791  10.717  22.875  0.00  0.00    +0.000 A 
ATOM     10  C   UNL     1      -1.092  10.903  21.493  0.00  0.00    +0.000 A 
ENDROOT
BRANCH   1  17
ATOM     11  C   UNL     1      -0.748  14.435  22.185  0.00  0.00    +0.000 C 
ATOM     12  C   UNL     1      -2.195  14.037  22.364  0.00  0.00    +0.000 A 
ATOM     13  C   UNL     1      -2.973  14.912  23.160  0.00  0.00    +0.000 A 
ATOM     14  C   UNL     1      -4.334  14.688  23.383  0.00  0.00    +0.000 A 
ATOM     15  C   UNL     1      -4.914  13.543  22.844  0.00  0.00    +0.000 A 
ATOM     16  C   UNL     1      -4.138  12.630  22.125  0.00  0.00    +0.000 A 
ATOM     17  C   UNL     1      -2.780  12.859  21.815  0.00  0.00    +0.000 A 
BRANCH  14  18
ATOM     18  C   UNL     1      -5.200  15.607  24.172  0.00  0.00    +0.000 C 
ATOM     19  N   UNL     1      -4.611  16.473  25.049  0.00  0.00    +0.000 N 
ATOM     20  O   UNL     1      -6.421  15.592  24.055  0.00  0.00    +0.000 OA
ATOM     21  H   UNL     1      -3.627  16.515  25.263  0.00  0.00    +0.000 HD
ATOM     22  H   UNL     1      -5.235  17.057  25.593  0.00  0.00    +0.000 HD
ENDBRANCH  14  18
ENDBRANCH   1  17
BRANCH   6  23
ATOM     23  N   UNL     1       1.351   8.424  20.119  0.00  0.00    +0.000 N 
ATOM     24  C   UNL     1       1.760   8.726  18.835  0.00  0.00    +0.000 A 
ATOM     25  N   UNL     1       2.401   7.732  18.260  0.00  0.00    +0.000 NA
ATOM     26  C   UNL     1       2.412   6.741  19.197  0.00  0.00    +0.000 A 
ATOM     27  C   UNL     1       1.821   7.151  20.365  0.00  0.00    +0.000 A 
BRANCH  26  28
ATOM     28  C   UNL     1       2.980   5.446  18.899  0.00  0.00    +0.000 A 
ATOM     29  C   UNL     1       4.352   5.132  18.879  0.00  0.00    +0.000 A 
ATOM     30  N   UNL     1       4.574   3.854  18.558  0.00  0.00    +0.000 NA
ATOM     31  N   UNL     1       3.334   3.362  18.370  0.00  0.00    +0.000 N 
ATOM     32  C   UNL     1       3.150   1.980  18.001  0.00  0.00    +0.000 C 
ATOM     33  C   UNL     1       2.342   4.277  18.558  0.00  0.00    +0.000 A 
ENDBRANCH  26  28
ENDBRANCH   6  23
BRANCH   3  34
ATOM     34  C   UNL     1      -1.984  10.875  17.282  0.00  0.00    +0.000 C 
ATOM     35  F   UNL     1      -3.320  10.688  17.062  0.00  0.00    +0.000 F 
ATOM     36  F   UNL     1      -1.656  12.011  16.608  0.00  0.00    +0.000 F 
ATOM     37  F   UNL     1      -1.365   9.848  16.634  0.00  0.00    +0.000 F 
ENDBRANCH   3  34
TORSDOF 5
ENDMDL
MODEL 5
REMARK VINA RESULT:      -7.9      0.449      1.401
REMARK  Name = 
REMARK  7 active torsions:
REMARK  status: ('A' for Active; 'I' for Inactive)
REMARK    1  A    between atoms: C_1  and  C_2
REMARK    2  A    between atoms: C_4  and  C_5
REMARK    3  A    between atoms: C_10  and  C_11
REMARK    4  A    between atoms: C_13  and  C_14
REMARK    5  A    between atoms: C_20  and  N_21
REMARK    6  A    between atoms: C_24  and  C_25
REMARK    7  A    between atoms: N_28  and  C_29
REMARK                            x       y       z     vdW  Elec       q    Type
REMARK                         _______ _______ _______ _____ _____    ______ ____
ROOT
ATOM      1  C   UNL     1      -2.911  12.160  19.903  0.00  0.00    +0.000 A 
ATOM      2  C   UNL     1      -3.210  11.898  18.556  0.00  0.00    +0.000 A 
ATOM      3  C   UNL     1      -2.463  10.997  17.823  0.00  0.00    +0.000 A 
ATOM      4  N   UNL     1      -1.332  10.468  18.335  0.00  0.00    +0.000 NA
ATOM      5  C   UNL     1      -0.919  10.773  19.579  0.00  0.00    +0.000 A 
ATOM      6  C   UNL     1       0.308  10.268  20.044  0.00  0.00    +0.000 A 
ATOM      7  C   UNL     1       0.747  10.492  21.358  0.00  0.00    +0.000 A 
ATOM      8  C   UNL     1      -0.053  11.199  22.235  0.00  0.00    +0.000 A 
ATOM      9  C   UNL     1      -1.281  11.686  21.795  0.00  0.00    +0.000 A 
ATOM     10  C   UNL     1      -1.723  11.556  20.445  0.00  0.00    +0.000 A 
ENDROOT
BRANCH   1  17
ATOM     11  C   UNL     1      -5.988  11.738  20.291  0.00  0.00    +0.000 C 
ATOM     12  C   UNL     1      -5.207  12.908  20.843  0.00  0.00    +0.000 A 
ATOM     13  C   UNL     1      -5.969  13.865  21.558  0.00  0.00    +0.000 A 
ATOM     14  C   UNL     1      -5.376  14.981  22.153  0.00  0.00    +0.000 A 
ATOM     15  C   UNL     1      -4.007  15.172  21.985  0.00  0.00    +0.000 A 
ATOM     16  C   UNL     1      -3.258  14.278  21.213  0.00  0.00    +0.000 A 
ATOM     17  C   UNL     1      -3.807  13.101  20.661  0.00  0.00    +0.000 A 
BRANCH  14  18
ATOM     18  C   UNL     1      -6.130  15.984  22.954  0.00  0.00    +0.000 C 
ATOM     19  N   UNL     1      -5.971  15.994  24.310  0.00  0.00    +0.000 N 
ATOM     20  O   UNL     1      -6.890  16.786  22.421  0.00  0.00    +0.000 OA
ATOM     21  H   UNL     1      -5.423  15.337  24.844  0.00  0.00    +0.000 HD
ATOM     22  H   UNL     1      -6.528  16.668  24.824  0.00  0.00    +0.000 HD
ENDBRANCH  14  18
ENDBRANCH   1  17
BRANCH   6  23
ATOM     23  N   UNL     1       1.139   9.499  19.186  0.00  0.00    +0.000 N 
ATOM     24  C   UNL     1       1.653   9.841  17.951  0.00  0.00    +0.000 A 
ATOM     25  N   UNL     1       2.372   8.878  17.417  0.00  0.00    +0.000 NA
ATOM     26  C   UNL     1       2.329   7.867  18.333  0.00  0.00    +0.000 A 
ATOM     27  C   UNL     1       1.623   8.234  19.449  0.00  0.00    +0.000 A 
BRANCH  26  28
ATOM     28  C   UNL     1       2.962   6.596  18.062  0.00  0.00    +0.000 A 
ATOM     29  C   UNL     1       4.311   6.403  17.714  0.00  0.00    +0.000 A 
ATOM     30  N   UNL     1       4.603   5.115  17.513  0.00  0.00    +0.000 NA
ATOM     31  N   UNL     1       3.428   4.494  17.732  0.00  0.00    +0.000 N 
ATOM     32  C   UNL     1       3.332   3.060  17.609  0.00  0.00    +0.000 C 
ATOM     33  C   UNL     1       2.410   5.337  18.061  0.00  0.00    +0.000 A 
ENDBRANCH  26  28
ENDBRANCH   6  23
BRANCH   3  34
ATOM     34  C   UNL     1      -2.900  10.595  16.418  0.00  0.00    +0.000 C 
ATOM     35  F   UNL     1      -2.393   9.385  16.030  0.00  0.00    +0.000 F 
ATOM     36  F   UNL     1      -4.250  10.483  16.295  0.00  0.00    +0.000 F 
ATOM     37  F   UNL     1      -2.496  11.477  15.461  0.00  0.00    +0.000 F 
ENDBRANCH   3  34
TORSDOF 5
ENDMDL
MODEL 6
REMARK VINA RESULT:      -7.6      0.885      1.677
REMARK  Name = 
REMARK  7 active torsions:
REMARK  status: ('A' for Active; 'I' for Inactive)
REMARK    1  A    between atoms: C_1  and  C_2
REMARK    2  A    between atoms: C_4  and  C_5
REMARK    3  A    between atoms: C_10  and  C_11
REMARK    4  A    between atoms: C_13  and  C_14
REMARK    5  A    between atoms: C_20  and  N_21
REMARK    6  A    between atoms: C_24  and  C_25
REMARK    7  A    between atoms: N_28  and  C_29
REMARK                            x       y       z     vdW  Elec       q    Type
REMARK                         _______ _______ _______ _____ _____    ______ ____
ROOT
ATOM      1  C   UNL     1      -3.090  12.283  20.007  0.00  0.00    +0.000 A 
ATOM      2  C   UNL     1      -3.402  12.017  18.663  0.00  0.00    +0.000 A 
ATOM      3  C   UNL     1      -2.645  11.134  17.918  0.00  0.00    +0.000 A 
ATOM      4  N   UNL     1      -1.496  10.629  18.413  0.00  0.00    +0.000 NA
ATOM      5  C   UNL     1      -1.074  10.939  19.652  0.00  0.00    +0.000 A 
ATOM      6  C   UNL     1       0.170  10.460  20.100  0.00  0.00    +0.000 A 
ATOM      7  C   UNL     1       0.622  10.690  21.408  0.00  0.00    +0.000 A 
ATOM      8  C   UNL     1      -0.181  11.377  22.297  0.00  0.00    +0.000 A 
ATOM      9  C   UNL     1      -1.425  11.839  21.875  0.00  0.00    +0.000 A 
ATOM     10  C   UNL     1      -1.882  11.702  20.531  0.00  0.00    +0.000 A 
ENDROOT
BRANCH   1  17
ATOM     11  C   UNL     1      -6.144  11.773  20.469  0.00  0.00    +0.000 C 
ATOM     12  C   UNL     1      -5.385  12.970  20.994  0.00  0.00    +0.000 A 
ATOM     13  C   UNL     1      -6.158  13.909  21.721  0.00  0.00    +0.000 A 
ATOM     14  C   UNL     1      -5.584  15.047  22.294  0.00  0.00    +0.000 A 
ATOM     15  C   UNL     1      -4.226  15.276  22.094  0.00  0.00    +0.000 A 
ATOM     16  C   UNL     1      -3.470  14.399  21.311  0.00  0.00    +0.000 A 
ATOM     17  C   UNL     1      -3.996  13.202  20.779  0.00  0.00    +0.000 A 
BRANCH  14  18
ATOM     18  C   UNL     1      -6.349  16.033  23.106  0.00  0.00    +0.000 C 
ATOM     19  N   UNL     1      -7.681  16.200  22.852  0.00  0.00    +0.000 N 
ATOM     20  O   UNL     1      -5.806  16.697  23.982  0.00  0.00    +0.000 OA
ATOM     21  H   UNL     1      -8.200  15.752  22.113  0.00  0.00    +0.000 HD
ATOM     22  H   UNL     1      -8.159  16.906  23.401  0.00  0.00    +0.000 HD
ENDBRANCH  14  18
ENDBRANCH   1  17
BRANCH   6  23
ATOM     23  N   UNL     1       1.006   9.710  19.228  0.00  0.00    +0.000 N 
ATOM     24  C   UNL     1       1.498  10.067  17.989  0.00  0.00    +0.000 A 
ATOM     25  N   UNL     1       2.230   9.121  17.442  0.00  0.00    +0.000 NA
ATOM     26  C   UNL     1       2.218   8.106  18.354  0.00  0.00    +0.000 A 
ATOM     27  C   UNL     1       1.518   8.455  19.481  0.00  0.00    +0.000 A 
BRANCH  26  28
ATOM     28  C   UNL     1       2.872   6.849  18.071  0.00  0.00    +0.000 A 
ATOM     29  C   UNL     1       2.293   5.572  18.193  0.00  0.00    +0.000 A 
ATOM     30  N   UNL     1       3.147   4.596  17.871  0.00  0.00    +0.000 NA
ATOM     31  N   UNL     1       4.272   5.263  17.550  0.00  0.00    +0.000 N 
ATOM     32  C   UNL     1       5.451   4.541  17.140  0.00  0.00    +0.000 C 
ATOM     33  C   UNL     1       4.162   6.617  17.657  0.00  0.00    +0.000 A 
ENDBRANCH  26  28
ENDBRANCH   6  23
BRANCH   3  34
ATOM     34  C   UNL     1      -3.092  10.726  16.518  0.00  0.00    +0.000 C 
ATOM     35  F   UNL     1      -4.414  10.986  16.285  0.00  0.00    +0.000 F 
ATOM     36  F   UNL     1      -2.412  11.374  15.534  0.00  0.00    +0.000 F 
ATOM     37  F   UNL     1      -2.942   9.393  16.278  0.00  0.00    +0.000 F 
ENDBRANCH   3  34
TORSDOF 5
ENDMDL
MODEL 7
REMARK VINA RESULT:      -7.6      1.443      1.919
REMARK  Name = 
REMARK  7 active torsions:
REMARK  status: ('A' for Active; 'I' for Inactive)
REMARK    1  A    between atoms: C_1  and  C_2
REMARK    2  A    between atoms: C_4  and  C_5
REMARK    3  A    between atoms: C_10  and  C_11
REMARK    4  A    between atoms: C_13  and  C_14
REMARK    5  A    between atoms: C_20  and  N_21
REMARK    6  A    between atoms: C_24  and  C_25
REMARK    7  A    between atoms: N_28  and  C_29
REMARK                            x       y       z     vdW  Elec       q    Type
REMARK                         _______ _______ _______ _____ _____    ______ ____
ROOT
ATOM      1  C   UNL     1      -1.877  11.893  20.902  0.00  0.00    +0.000 A 
ATOM      2  C   UNL     1      -2.147  11.958  19.525  0.00  0.00    +0.000 A 
ATOM      3  C   UNL     1      -1.602  11.041  18.648  0.00  0.00    +0.000 A 
ATOM      4  N   UNL     1      -0.669  10.160  19.069  0.00  0.00    +0.000 NA
ATOM      5  C   UNL     1      -0.273  10.125  20.354  0.00  0.00    +0.000 A 
ATOM      6  C   UNL     1       0.761   9.252  20.735  0.00  0.00    +0.000 A 
ATOM      7  C   UNL     1       1.160   9.121  22.074  0.00  0.00    +0.000 A 
ATOM      8  C   UNL     1       0.507   9.840  23.056  0.00  0.00    +0.000 A 
ATOM      9  C   UNL     1      -0.534  10.693  22.696  0.00  0.00    +0.000 A 
ATOM     10  C   UNL     1      -0.910  10.920  21.339  0.00  0.00    +0.000 A 
ENDROOT
BRANCH   1  17
ATOM     11  C   UNL     1      -4.975  12.313  21.042  0.00  0.00    +0.000 C 
ATOM     12  C   UNL     1      -3.969  13.070  21.877  0.00  0.00    +0.000 A 
ATOM     13  C   UNL     1      -4.513  14.042  22.752  0.00  0.00    +0.000 A 
ATOM     14  C   UNL     1      -3.705  14.795  23.609  0.00  0.00    +0.000 A 
ATOM     15  C   UNL     1      -2.327  14.609  23.552  0.00  0.00    +0.000 A 
ATOM     16  C   UNL     1      -1.772  13.712  22.635  0.00  0.00    +0.000 A 
ATOM     17  C   UNL     1      -2.558  12.880  21.809  0.00  0.00    +0.000 A 
BRANCH  14  18
ATOM     18  C   UNL     1      -4.239  15.791  24.578  0.00  0.00    +0.000 C 
ATOM     19  N   UNL     1      -5.582  16.040  24.591  0.00  0.00    +0.000 N 
ATOM     20  O   UNL     1      -3.498  16.392  25.349  0.00  0.00    +0.000 OA
ATOM     21  H   UNL     1      -6.259  15.648  23.956  0.00  0.00    +0.000 HD
ATOM     22  H   UNL     1      -5.902  16.750  25.240  0.00  0.00    +0.000 HD
ENDBRANCH  14  18
ENDBRANCH   1  17
BRANCH   6  23
ATOM     23  N   UNL     1       1.429   8.461  19.761  0.00  0.00    +0.000 N 
ATOM     24  C   UNL     1       1.774   8.799  18.468  0.00  0.00    +0.000 A 
ATOM     25  N   UNL     1       2.369   7.815  17.829  0.00  0.00    +0.000 NA
ATOM     26  C   UNL     1       2.416   6.795  18.734  0.00  0.00    +0.000 A 
ATOM     27  C   UNL     1       1.892   7.175  19.943  0.00  0.00    +0.000 A 
BRANCH  26  28
ATOM     28  C   UNL     1       2.949   5.503  18.366  0.00  0.00    +0.000 A 
ATOM     29  C   UNL     1       4.129   5.276  17.634  0.00  0.00    +0.000 A 
ATOM     30  N   UNL     1       4.360   3.974  17.438  0.00  0.00    +0.000 NA
ATOM     31  N   UNL     1       3.317   3.379  18.047  0.00  0.00    +0.000 N 
ATOM     32  C   UNL     1       3.204   1.942  18.054  0.00  0.00    +0.000 C 
ATOM     33  C   UNL     1       2.438   4.251  18.617  0.00  0.00    +0.000 A 
ENDBRANCH  26  28
ENDBRANCH   6  23
BRANCH   3  34
ATOM     34  C   UNL     1      -2.037  11.018  17.186  0.00  0.00    +0.000 C 
ATOM     35  F   UNL     1      -3.396  11.009  17.037  0.00  0.00    +0.000 F 
ATOM     36  F   UNL     1      -1.597  12.099  16.486  0.00  0.00    +0.000 F 
ATOM     37  F   UNL     1      -1.594   9.917  16.516  0.00  0.00    +0.000 F 
ENDBRANCH   3  34
TORSDOF 5
ENDMDL
MODEL 8
REMARK VINA RESULT:      -7.4      3.413      9.758
REMARK  Name = 
REMARK  7 active torsions:
REMARK  status: ('A' for Active; 'I' for Inactive)
REMARK    1  A    between atoms: C_1  and  C_2
REMARK    2  A    between atoms: C_4  and  C_5
REMARK    3  A    between atoms: C_10  and  C_11
REMARK    4  A    between atoms: C_13  and  C_14
REMARK    5  A    between atoms: C_20  and  N_21
REMARK    6  A    between atoms: C_24  and  C_25
REMARK    7  A    between atoms: N_28  and  C_29
REMARK                            x       y       z     vdW  Elec       q    Type
REMARK                         _______ _______ _______ _____ _____    ______ ____
ROOT
ATOM      1  C   UNL     1       0.037  10.526  19.134  0.00  0.00    +0.000 A 
ATOM      2  C   UNL     1      -1.287  10.322  18.712  0.00  0.00    +0.000 A 
ATOM      3  C   UNL     1      -2.206  11.353  18.725  0.00  0.00    +0.000 A 
ATOM      4  N   UNL     1      -1.898  12.538  19.292  0.00  0.00    +0.000 NA
ATOM      5  C   UNL     1      -0.684  12.762  19.826  0.00  0.00    +0.000 A 
ATOM      6  C   UNL     1      -0.431  13.979  20.482  0.00  0.00    +0.000 A 
ATOM      7  C   UNL     1       0.840  14.294  20.989  0.00  0.00    +0.000 A 
ATOM      8  C   UNL     1       1.883  13.405  20.817  0.00  0.00    +0.000 A 
ATOM      9  C   UNL     1       1.652  12.205  20.150  0.00  0.00    +0.000 A 
ATOM     10  C   UNL     1       0.358  11.810  19.698  0.00  0.00    +0.000 A 
ENDROOT
BRANCH   1  17
ATOM     11  C   UNL     1       0.619   8.494  21.442  0.00  0.00    +0.000 C 
ATOM     12  C   UNL     1       1.267   8.450  20.078  0.00  0.00    +0.000 A 
ATOM     13  C   UNL     1       2.212   7.413  19.886  0.00  0.00    +0.000 A 
ATOM     14  C   UNL     1       2.865   7.229  18.665  0.00  0.00    +0.000 A 
ATOM     15  C   UNL     1       2.607   8.128  17.634  0.00  0.00    +0.000 A 
ATOM     16  C   UNL     1       1.738   9.204  17.836  0.00  0.00    +0.000 A 
ATOM     17  C   UNL     1       1.003   9.379  19.029  0.00  0.00    +0.000 A 
BRANCH  14  18
ATOM     18  C   UNL     1       3.829   6.124  18.405  0.00  0.00    +0.000 C 
ATOM     19  N   UNL     1       4.220   5.883  17.119  0.00  0.00    +0.000 N 
ATOM     20  O   UNL     1       4.263   5.428  19.317  0.00  0.00    +0.000 OA
ATOM     21  H   UNL     1       3.871   6.355  16.299  0.00  0.00    +0.000 HD
ATOM     22  H   UNL     1       4.849   5.100  16.978  0.00  0.00    +0.000 HD
ENDBRANCH  14  18
ENDBRANCH   1  17
BRANCH   6  23
ATOM     23  N   UNL     1      -1.467  14.939  20.640  0.00  0.00    +0.000 N 
ATOM     24  C   UNL     1      -1.597  16.173  20.035  0.00  0.00    +0.000 A 
ATOM     25  N   UNL     1      -2.675  16.818  20.425  0.00  0.00    +0.000 NA
ATOM     26  C   UNL     1      -3.274  15.979  21.320  0.00  0.00    +0.000 A 
ATOM     27  C   UNL     1      -2.585  14.799  21.437  0.00  0.00    +0.000 A 
BRANCH  26  28
ATOM     28  C   UNL     1      -4.471  16.379  22.023  0.00  0.00    +0.000 A 
ATOM     29  C   UNL     1      -4.557  16.693  23.392  0.00  0.00    +0.000 A 
ATOM     30  N   UNL     1      -5.799  17.018  23.760  0.00  0.00    +0.000 NA
ATOM     31  N   UNL     1      -6.501  16.902  22.616  0.00  0.00    +0.000 N 
ATOM     32  C   UNL     1      -7.917  17.176  22.603  0.00  0.00    +0.000 C 
ATOM     33  C   UNL     1      -5.752  16.518  21.545  0.00  0.00    +0.000 A 
ENDBRANCH  26  28
ENDBRANCH   6  23
BRANCH   3  34
ATOM     34  C   UNL     1      -3.588  11.163  18.107  0.00  0.00    +0.000 C 
ATOM     35  F   UNL     1      -4.599  11.573  18.931  0.00  0.00    +0.000 F 
ATOM     36  F   UNL     1      -3.751  11.861  16.950  0.00  0.00    +0.000 F 
ATOM     37  F   UNL     1      -3.868   9.861  17.816  0.00  0.00    +0.000 F 
ENDBRANCH   3  34
TORSDOF 5
ENDMDL
MODEL 9
REMARK VINA RESULT:      -7.4      3.620      9.772
REMARK  Name = 
REMARK  7 active torsions:
REMARK  status: ('A' for Active; 'I' for Inactive)
REMARK    1  A    between atoms: C_1  and  C_2
REMARK    2  A    between atoms: C_4  and  C_5
REMARK    3  A    between atoms: C_10  and  C_11
REMARK    4  A    between atoms: C_13  and  C_14
REMARK    5  A    between atoms: C_20  and  N_21
REMARK    6  A    between atoms: C_24  and  C_25
REMARK    7  A    between atoms: N_28  and  C_29
REMARK                            x       y       z     vdW  Elec       q    Type
REMARK                         _______ _______ _______ _____ _____    ______ ____
ROOT
ATOM      1  C   UNL     1       0.031  10.692  19.104  0.00  0.00    +0.000 A 
ATOM      2  C   UNL     1      -1.321  10.512  18.770  0.00  0.00    +0.000 A 
ATOM      3  C   UNL     1      -2.191  11.584  18.723  0.00  0.00    +0.000 A 
ATOM      4  N   UNL     1      -1.801  12.803  19.151  0.00  0.00    +0.000 NA
ATOM      5  C   UNL     1      -0.551  13.018  19.600  0.00  0.00    +0.000 A 
ATOM      6  C   UNL     1      -0.210  14.280  20.117  0.00  0.00    +0.000 A 
ATOM      7  C   UNL     1       1.098  14.580  20.527  0.00  0.00    +0.000 A 
ATOM      8  C   UNL     1       2.091  13.628  20.396  0.00  0.00    +0.000 A 
ATOM      9  C   UNL     1       1.772  12.381  19.865  0.00  0.00    +0.000 A 
ATOM     10  C   UNL     1       0.439  12.008  19.520  0.00  0.00    +0.000 A 
ENDROOT
BRANCH   1  17
ATOM     11  C   UNL     1       0.538   8.792  21.540  0.00  0.00    +0.000 C 
ATOM     12  C   UNL     1       1.168   8.624  20.176  0.00  0.00    +0.000 A 
ATOM     13  C   UNL     1       2.059   7.531  20.048  0.00  0.00    +0.000 A 
ATOM     14  C   UNL     1       2.689   7.234  18.837  0.00  0.00    +0.000 A 
ATOM     15  C   UNL     1       2.464   8.074  17.750  0.00  0.00    +0.000 A 
ATOM     16  C   UNL     1       1.651   9.202  17.886  0.00  0.00    +0.000 A 
ATOM     17  C   UNL     1       0.939   9.493  19.070  0.00  0.00    +0.000 A 
BRANCH  14  18
ATOM     18  C   UNL     1       3.594   6.067  18.645  0.00  0.00    +0.000 C 
ATOM     19  N   UNL     1       4.097   5.438  19.748  0.00  0.00    +0.000 N 
ATOM     20  O   UNL     1       3.899   5.673  17.525  0.00  0.00    +0.000 OA
ATOM     21  H   UNL     1       3.958   5.726  20.704  0.00  0.00    +0.000 HD
ATOM     22  H   UNL     1       4.737   4.671  19.577  0.00  0.00    +0.000 HD
ENDBRANCH  14  18
ENDBRANCH   1  17
BRANCH   6  23
ATOM     23  N   UNL     1      -1.192  15.301  20.227  0.00  0.00    +0.000 N 
ATOM     24  C   UNL     1      -1.296  16.477  19.511  0.00  0.00    +0.000 A 
ATOM     25  N   UNL     1      -2.323  17.209  19.884  0.00  0.00    +0.000 NA
ATOM     26  C   UNL     1      -2.915  16.489  20.881  0.00  0.00    +0.000 A 
ATOM     27  C   UNL     1      -2.276  15.292  21.081  0.00  0.00    +0.000 A 
BRANCH  26  28
ATOM     28  C   UNL     1      -4.057  17.013  21.595  0.00  0.00    +0.000 A 
ATOM     29  C   UNL     1      -5.328  17.266  21.046  0.00  0.00    +0.000 A 
ATOM     30  N   UNL     1      -6.180  17.761  21.949  0.00  0.00    +0.000 NA
ATOM     31  N   UNL     1      -5.439  17.824  23.072  0.00  0.00    +0.000 N 
ATOM     32  C   UNL     1      -6.018  18.318  24.296  0.00  0.00    +0.000 C 
ATOM     33  C   UNL     1      -4.157  17.391  22.913  0.00  0.00    +0.000 A 
ENDBRANCH  26  28
ENDBRANCH   6  23
BRANCH   3  34
ATOM     34  C   UNL     1      -3.611  11.402  18.195  0.00  0.00    +0.000 C 
ATOM     35  F   UNL     1      -3.783  11.923  16.943  0.00  0.00    +0.000 F 
ATOM     36  F   UNL     1      -3.978  10.095  18.103  0.00  0.00    +0.000 F 
ATOM     37  F   UNL     1      -4.550  12.014  18.971  0.00  0.00    +0.000 F 
ENDBRANCH   3  34
TORSDOF 5
ENDMDL
