MODEL 1
REMARK VINA RESULT:      -7.5      0.000      0.000
REMARK  Name = 
REMARK  5 active torsions:
REMARK  status: ('A' for Active; 'I' for Inactive)
REMARK    1  A    between atoms: C_1  and  N_2
REMARK    2  A    between atoms: N_5  and  C_6
REMARK    3  A    between atoms: C_9  and  N_10
REMARK    4  A    between atoms: C_12  and  N_13
REMARK    5  A    between atoms: C_14  and  C_16
REMARK                            x       y       z     vdW  Elec       q    Type
REMARK                         _______ _______ _______ _____ _____    ______ ____
ROOT
ATOM      1  C   UNL     1       3.840   4.351  17.877  0.00  0.00    +0.000 A 
ATOM      2  C   UNL     1       4.061   2.962  17.804  0.00  0.00    +0.000 A 
ATOM      3  C   UNL     1       3.055   2.025  18.043  0.00  0.00    +0.000 A 
ATOM      4  C   UNL     1       1.786   2.443  18.415  0.00  0.00    +0.000 A 
ATOM      5  C   UNL     1       1.521   3.815  18.450  0.00  0.00    +0.000 A 
ATOM      6  C   UNL     1       2.531   4.768  18.210  0.00  0.00    +0.000 A 
ENDROOT
BRANCH   1  11
ATOM      7  C   UNL     1       8.132   8.008  17.929  0.00  0.00    +0.000 C 
ATOM      8  N   UNL     1       7.302   6.871  17.547  0.00  0.00    +0.000 NA
ATOM      9  C   UNL     1       5.983   7.319  17.042  0.00  0.00    +0.000 C 
ATOM     10  C   UNL     1       5.082   6.132  16.619  0.00  0.00    +0.000 C 
ATOM     11  N   UNL     1       4.950   5.172  17.718  0.00  0.00    +0.000 N 
ATOM     12  C   UNL     1       6.222   4.745  18.327  0.00  0.00    +0.000 C 
ATOM     13  C   UNL     1       7.087   5.968  18.699  0.00  0.00    +0.000 C 
ENDBRANCH   1  11
BRANCH   6  14
ATOM     14  N   UNL     1       2.160   6.138  18.208  0.00  0.00    +0.000 N 
ATOM     15  C   UNL     1       2.112   6.892  19.376  0.00  0.00    +0.000 C 
ATOM     16  O   UNL     1       2.411   6.438  20.473  0.00  0.00    +0.000 OA
ATOM     17  H   UNL     1       2.230   6.617  17.321  0.00  0.00    +0.000 HD
BRANCH  15  18
ATOM     18  C   UNL     1       1.780   8.358  19.278  0.00  0.00    +0.000 A 
ATOM     19  C   UNL     1       2.266   9.010  18.121  0.00  0.00    +0.000 A 
ATOM     20  C   UNL     1       1.969  10.349  17.847  0.00  0.00    +0.000 A 
ATOM     21  C   UNL     1       1.177  11.072  18.727  0.00  0.00    +0.000 A 
ATOM     22  C   UNL     1       0.727  10.467  19.901  0.00  0.00    +0.000 A 
ATOM     23  C   UNL     1       1.034   9.123  20.188  0.00  0.00    +0.000 A 
ATOM     24 CL   UNL     1       0.453   8.540  21.707  0.00  0.00    +0.000 Cl
ENDBRANCH  15  18
ENDBRANCH   6  14
BRANCH   4  25
ATOM     25  N   UNL     1       0.750   1.507  18.519  0.00  0.00    +0.000 N 
ATOM     26  H   UNL     1       1.018   0.578  18.203  0.00  0.00    +0.000 HD
ATOM     27  H   UNL     1       0.327   1.486  19.443  0.00  0.00    +0.000 HD
ENDBRANCH   4  25
TORSDOF 4
ENDMDL
MODEL 2
REMARK VINA RESULT:      -6.9      1.131      1.574
REMARK  Name = 
REMARK  5 active torsions:
REMARK  status: ('A' for Active; 'I' for Inactive)
REMARK    1  A    between atoms: C_1  and  N_2
REMARK    2  A    between atoms: N_5  and  C_6
REMARK    3  A    between atoms: C_9  and  N_10
REMARK    4  A    between atoms: C_12  and  N_13
REMARK    5  A    between atoms: C_14  and  C_16
REMARK                            x       y       z     vdW  Elec       q    Type
REMARK                         _______ _______ _______ _____ _____    ______ ____
ROOT
ATOM      1  C   UNL     1       3.829   4.358  17.983  0.00  0.00    +0.000 A 
ATOM      2  C   UNL     1       4.048   2.991  17.721  0.00  0.00    +0.000 A 
ATOM      3  C   UNL     1       3.093   2.010  17.992  0.00  0.00    +0.000 A 
ATOM      4  C   UNL     1       1.887   2.354  18.584  0.00  0.00    +0.000 A 
ATOM      5  C   UNL     1       1.620   3.707  18.813  0.00  0.00    +0.000 A 
ATOM      6  C   UNL     1       2.578   4.705  18.543  0.00  0.00    +0.000 A 
ENDROOT
BRANCH   1  11
ATOM      7  C   UNL     1       8.001   8.148  17.811  0.00  0.00    +0.000 C 
ATOM      8  N   UNL     1       7.179   6.994  17.463  0.00  0.00    +0.000 NA
ATOM      9  C   UNL     1       5.814   7.411  17.068  0.00  0.00    +0.000 C 
ATOM     10  C   UNL     1       4.920   6.207  16.682  0.00  0.00    +0.000 C 
ATOM     11  N   UNL     1       4.899   5.217  17.763  0.00  0.00    +0.000 N 
ATOM     12  C   UNL     1       6.226   4.818  18.266  0.00  0.00    +0.000 C 
ATOM     13  C   UNL     1       7.078   6.058  18.604  0.00  0.00    +0.000 C 
ENDBRANCH   1  11
BRANCH   6  14
ATOM     14  N   UNL     1       2.201   6.057  18.750  0.00  0.00    +0.000 N 
ATOM     15  C   UNL     1       1.865   6.546  20.008  0.00  0.00    +0.000 C 
ATOM     16  O   UNL     1       1.899   5.858  21.019  0.00  0.00    +0.000 OA
ATOM     17  H   UNL     1       2.475   6.711  18.029  0.00  0.00    +0.000 HD
BRANCH  15  18
ATOM     18  C   UNL     1       1.548   8.012  20.154  0.00  0.00    +0.000 A 
ATOM     19  C   UNL     1       1.125   8.411  21.443  0.00  0.00    +0.000 A 
ATOM     20  C   UNL     1       0.875   9.751  21.756  0.00  0.00    +0.000 A 
ATOM     21  C   UNL     1       1.039  10.728  20.786  0.00  0.00    +0.000 A 
ATOM     22  C   UNL     1       1.406  10.354  19.492  0.00  0.00    +0.000 A 
ATOM     23  C   UNL     1       1.647   9.005  19.167  0.00  0.00    +0.000 A 
ATOM     24 CL   UNL     1       2.034   8.700  17.511  0.00  0.00    +0.000 Cl
ENDBRANCH  15  18
ENDBRANCH   6  14
BRANCH   4  25
ATOM     25  N   UNL     1       0.883   1.388  18.726  0.00  0.00    +0.000 N 
ATOM     26  H   UNL     1       0.030   1.757  19.138  0.00  0.00    +0.000 HD
ATOM     27  H   UNL     1       0.700   0.879  17.865  0.00  0.00    +0.000 HD
ENDBRANCH   4  25
TORSDOF 4
ENDMDL
MODEL 3
REMARK VINA RESULT:      -6.9      1.623      1.626
REMARK  Name = 
REMARK  5 active torsions:
REMARK  status: ('A' for Active; 'I' for Inactive)
REMARK    1  A    between atoms: C_1  and  N_2
REMARK    2  A    between atoms: N_5  and  C_6
REMARK    3  A    between atoms: C_9  and  N_10
REMARK    4  A    between atoms: C_12  and  N_13
REMARK    5  A    between atoms: C_14  and  C_16
REMARK                            x       y       z     vdW  Elec       q    Type
REMARK                         _______ _______ _______ _____ _____    ______ ____
ROOT
ATOM      1  C   UNL     1       4.062   4.567  19.613  0.00  0.00    +0.000 A 
ATOM      2  C   UNL     1       4.184   3.168  19.721  0.00  0.00    +0.000 A 
ATOM      3  C   UNL     1       3.334   2.397  20.516  0.00  0.00    +0.000 A 
ATOM      4  C   UNL     1       2.349   3.006  21.279  0.00  0.00    +0.000 A 
ATOM      5  C   UNL     1       2.172   4.387  21.158  0.00  0.00    +0.000 A 
ATOM      6  C   UNL     1       3.025   5.174  20.358  0.00  0.00    +0.000 A 
ENDROOT
BRANCH   1  11
ATOM      7  C   UNL     1       7.939   7.826  17.133  0.00  0.00    +0.000 C 
ATOM      8  N   UNL     1       7.139   6.650  17.458  0.00  0.00    +0.000 NA
ATOM      9  C   UNL     1       5.707   6.879  17.153  0.00  0.00    +0.000 C 
ATOM     10  C   UNL     1       4.832   5.643  17.480  0.00  0.00    +0.000 C 
ATOM     11  N   UNL     1       5.035   5.225  18.870  0.00  0.00    +0.000 N 
ATOM     12  C   UNL     1       6.445   5.060  19.270  0.00  0.00    +0.000 C 
ATOM     13  C   UNL     1       7.269   6.307  18.892  0.00  0.00    +0.000 C 
ENDBRANCH   1  11
BRANCH   6  14
ATOM     14  N   UNL     1       2.737   6.558  20.246  0.00  0.00    +0.000 N 
ATOM     15  C   UNL     1       2.097   7.093  19.133  0.00  0.00    +0.000 C 
ATOM     16  O   UNL     1       1.715   6.408  18.194  0.00  0.00    +0.000 OA
ATOM     17  H   UNL     1       2.734   7.084  21.110  0.00  0.00    +0.000 HD
BRANCH  15  18
ATOM     18  C   UNL     1       1.763   8.562  19.125  0.00  0.00    +0.000 A 
ATOM     19  C   UNL     1       2.277   9.291  18.028  0.00  0.00    +0.000 A 
ATOM     20  C   UNL     1       1.982  10.645  17.836  0.00  0.00    +0.000 A 
ATOM     21  C   UNL     1       1.166  11.306  18.742  0.00  0.00    +0.000 A 
ATOM     22  C   UNL     1       0.689  10.623  19.861  0.00  0.00    +0.000 A 
ATOM     23  C   UNL     1       0.992   9.263  20.065  0.00  0.00    +0.000 A 
ATOM     24 CL   UNL     1       0.375   8.578  21.527  0.00  0.00    +0.000 Cl
ENDBRANCH  15  18
ENDBRANCH   6  14
BRANCH   4  25
ATOM     25  N   UNL     1       1.416   2.218  21.965  0.00  0.00    +0.000 N 
ATOM     26  H   UNL     1       0.463   2.562  21.878  0.00  0.00    +0.000 HD
ATOM     27  H   UNL     1       1.486   1.231  21.733  0.00  0.00    +0.000 HD
ENDBRANCH   4  25
TORSDOF 4
ENDMDL
MODEL 4
REMARK VINA RESULT:      -6.7      2.007      4.417
REMARK  Name = 
REMARK  5 active torsions:
REMARK  status: ('A' for Active; 'I' for Inactive)
REMARK    1  A    between atoms: C_1  and  N_2
REMARK    2  A    between atoms: N_5  and  C_6
REMARK    3  A    between atoms: C_9  and  N_10
REMARK    4  A    between atoms: C_12  and  N_13
REMARK    5  A    between atoms: C_14  and  C_16
REMARK                            x       y       z     vdW  Elec       q    Type
REMARK                         _______ _______ _______ _____ _____    ______ ____
ROOT
ATOM      1  C   UNL     1       4.562   4.180  17.436  0.00  0.00    +0.000 A 
ATOM      2  C   UNL     1       5.281   3.310  16.594  0.00  0.00    +0.000 A 
ATOM      3  C   UNL     1       6.000   3.757  15.485  0.00  0.00    +0.000 A 
ATOM      4  C   UNL     1       5.990   5.101  15.143  0.00  0.00    +0.000 A 
ATOM      5  C   UNL     1       5.326   5.998  15.984  0.00  0.00    +0.000 A 
ATOM      6  C   UNL     1       4.597   5.555  17.107  0.00  0.00    +0.000 A 
ENDROOT
BRANCH   1  11
ATOM      7  C   UNL     1       1.204   2.538  21.658  0.00  0.00    +0.000 C 
ATOM      8  N   UNL     1       2.097   2.465  20.507  0.00  0.00    +0.000 NA
ATOM      9  C   UNL     1       3.426   3.035  20.827  0.00  0.00    +0.000 C 
ATOM     10  C   UNL     1       4.401   2.964  19.626  0.00  0.00    +0.000 C 
ATOM     11  N   UNL     1       3.806   3.595  18.445  0.00  0.00    +0.000 N 
ATOM     12  C   UNL     1       2.445   3.136  18.114  0.00  0.00    +0.000 C 
ATOM     13  C   UNL     1       1.530   3.202  19.355  0.00  0.00    +0.000 C 
ENDBRANCH   1  11
BRANCH   6  14
ATOM     14  N   UNL     1       4.002   6.538  17.939  0.00  0.00    +0.000 N 
ATOM     15  C   UNL     1       2.635   6.790  17.925  0.00  0.00    +0.000 C 
ATOM     16  O   UNL     1       1.852   6.166  17.220  0.00  0.00    +0.000 OA
ATOM     17  H   UNL     1       4.543   6.827  18.743  0.00  0.00    +0.000 HD
BRANCH  15  18
ATOM     18  C   UNL     1       2.074   7.799  18.892  0.00  0.00    +0.000 A 
ATOM     19  C   UNL     1       1.854   9.089  18.357  0.00  0.00    +0.000 A 
ATOM     20  C   UNL     1       1.260  10.109  19.107  0.00  0.00    +0.000 A 
ATOM     21  C   UNL     1       0.872   9.865  20.416  0.00  0.00    +0.000 A 
ATOM     22  C   UNL     1       1.124   8.616  20.984  0.00  0.00    +0.000 A 
ATOM     23  C   UNL     1       1.733   7.588  20.237  0.00  0.00    +0.000 A 
ATOM     24 CL   UNL     1       2.030   6.122  21.101  0.00  0.00    +0.000 Cl
ENDBRANCH  15  18
ENDBRANCH   6  14
BRANCH   4  25
ATOM     25  N   UNL     1       6.821   5.561  14.113  0.00  0.00    +0.000 N 
ATOM     26  H   UNL     1       6.747   6.564  13.960  0.00  0.00    +0.000 HD
ATOM     27  H   UNL     1       7.787   5.263  14.222  0.00  0.00    +0.000 HD
ENDBRANCH   4  25
TORSDOF 4
ENDMDL
MODEL 5
REMARK VINA RESULT:      -6.5      1.782      2.171
REMARK  Name = 
REMARK  5 active torsions:
REMARK  status: ('A' for Active; 'I' for Inactive)
REMARK    1  A    between atoms: C_1  and  N_2
REMARK    2  A    between atoms: N_5  and  C_6
REMARK    3  A    between atoms: C_9  and  N_10
REMARK    4  A    between atoms: C_12  and  N_13
REMARK    5  A    between atoms: C_14  and  C_16
REMARK                            x       y       z     vdW  Elec       q    Type
REMARK                         _______ _______ _______ _____ _____    ______ ____
ROOT
ATOM      1  C   UNL     1       3.919   3.999  19.130  0.00  0.00    +0.000 A 
ATOM      2  C   UNL     1       4.031   2.655  19.536  0.00  0.00    +0.000 A 
ATOM      3  C   UNL     1       3.300   2.125  20.599  0.00  0.00    +0.000 A 
ATOM      4  C   UNL     1       2.452   2.939  21.337  0.00  0.00    +0.000 A 
ATOM      5  C   UNL     1       2.282   4.265  20.931  0.00  0.00    +0.000 A 
ATOM      6  C   UNL     1       3.016   4.809  19.858  0.00  0.00    +0.000 A 
ENDROOT
BRANCH   1  11
ATOM      7  C   UNL     1       7.436   4.957  14.828  0.00  0.00    +0.000 C 
ATOM      8  N   UNL     1       6.499   5.209  15.917  0.00  0.00    +0.000 NA
ATOM      9  C   UNL     1       7.057   4.763  17.214  0.00  0.00    +0.000 C 
ATOM     10  C   UNL     1       6.087   5.026  18.393  0.00  0.00    +0.000 C 
ATOM     11  N   UNL     1       4.778   4.425  18.124  0.00  0.00    +0.000 N 
ATOM     12  C   UNL     1       4.199   4.758  16.811  0.00  0.00    +0.000 C 
ATOM     13  C   UNL     1       5.220   4.503  15.683  0.00  0.00    +0.000 C 
ENDBRANCH   1  11
BRANCH   6  14
ATOM     14  N   UNL     1       2.738   6.146  19.476  0.00  0.00    +0.000 N 
ATOM     15  C   UNL     1       1.820   6.935  20.160  0.00  0.00    +0.000 C 
ATOM     16  O   UNL     1       1.214   6.543  21.149  0.00  0.00    +0.000 OA
ATOM     17  H   UNL     1       3.433   6.598  18.897  0.00  0.00    +0.000 HD
BRANCH  15  18
ATOM     18  C   UNL     1       1.636   8.368  19.735  0.00  0.00    +0.000 A 
ATOM     19  C   UNL     1       2.051   8.663  18.415  0.00  0.00    +0.000 A 
ATOM     20  C   UNL     1       1.867   9.928  17.848  0.00  0.00    +0.000 A 
ATOM     21  C   UNL     1       1.264  10.934  18.588  0.00  0.00    +0.000 A 
ATOM     22  C   UNL     1       0.893  10.684  19.910  0.00  0.00    +0.000 A 
ATOM     23  C   UNL     1       1.086   9.415  20.491  0.00  0.00    +0.000 A 
ATOM     24 CL   UNL     1       0.628   9.284  22.151  0.00  0.00    +0.000 Cl
ENDBRANCH  15  18
ENDBRANCH   6  14
BRANCH   4  25
ATOM     25  N   UNL     1       1.621   2.372  22.312  0.00  0.00    +0.000 N 
ATOM     26  H   UNL     1       1.536   2.947  23.146  0.00  0.00    +0.000 HD
ATOM     27  H   UNL     1       0.713   2.097  21.946  0.00  0.00    +0.000 HD
ENDBRANCH   4  25
TORSDOF 4
ENDMDL
MODEL 6
REMARK VINA RESULT:      -6.4      2.147      4.617
REMARK  Name = 
REMARK  5 active torsions:
REMARK  status: ('A' for Active; 'I' for Inactive)
REMARK    1  A    between atoms: C_1  and  N_2
REMARK    2  A    between atoms: N_5  and  C_6
REMARK    3  A    between atoms: C_9  and  N_10
REMARK    4  A    between atoms: C_12  and  N_13
REMARK    5  A    between atoms: C_14  and  C_16
REMARK                            x       y       z     vdW  Elec       q    Type
REMARK                         _______ _______ _______ _____ _____    ______ ____
ROOT
ATOM      1  C   UNL     1       4.141   4.281  17.909  0.00  0.00    +0.000 A 
ATOM      2  C   UNL     1       4.836   3.453  17.006  0.00  0.00    +0.000 A 
ATOM      3  C   UNL     1       5.542   3.957  15.913  0.00  0.00    +0.000 A 
ATOM      4  C   UNL     1       5.542   5.319  15.650  0.00  0.00    +0.000 A 
ATOM      5  C   UNL     1       4.903   6.172  16.554  0.00  0.00    +0.000 A 
ATOM      6  C   UNL     1       4.187   5.672  17.661  0.00  0.00    +0.000 A 
ENDROOT
BRANCH   1  11
ATOM      7  C   UNL     1       1.037   2.427  22.237  0.00  0.00    +0.000 C 
ATOM      8  N   UNL     1       1.730   2.446  20.953  0.00  0.00    +0.000 NA
ATOM      9  C   UNL     1       3.190   2.614  21.138  0.00  0.00    +0.000 C 
ATOM     10  C   UNL     1       3.954   2.629  19.791  0.00  0.00    +0.000 C 
ATOM     11  N   UNL     1       3.395   3.645  18.895  0.00  0.00    +0.000 N 
ATOM     12  C   UNL     1       1.931   3.591  18.730  0.00  0.00    +0.000 C 
ATOM     13  C   UNL     1       1.228   3.549  20.103  0.00  0.00    +0.000 C 
ENDBRANCH   1  11
BRANCH   6  14
ATOM     14  N   UNL     1       3.618   6.610  18.559  0.00  0.00    +0.000 N 
ATOM     15  C   UNL     1       2.373   7.189  18.334  0.00  0.00    +0.000 C 
ATOM     16  O   UNL     1       1.676   6.909  17.368  0.00  0.00    +0.000 OA
ATOM     17  H   UNL     1       3.995   6.614  19.497  0.00  0.00    +0.000 HD
BRANCH  15  18
ATOM     18  C   UNL     1       1.808   8.121  19.374  0.00  0.00    +0.000 A 
ATOM     19  C   UNL     1       1.649   7.561  20.662  0.00  0.00    +0.000 A 
ATOM     20  C   UNL     1       1.216   8.324  21.752  0.00  0.00    +0.000 A 
ATOM     21  C   UNL     1       0.928   9.669  21.579  0.00  0.00    +0.000 A 
ATOM     22  C   UNL     1       1.027  10.234  20.307  0.00  0.00    +0.000 A 
ATOM     23  C   UNL     1       1.451   9.468  19.203  0.00  0.00    +0.000 A 
ATOM     24 CL   UNL     1       1.465  10.297  17.688  0.00  0.00    +0.000 Cl
ENDBRANCH  15  18
ENDBRANCH   6  14
BRANCH   4  25
ATOM     25  N   UNL     1       6.362   5.830  14.636  0.00  0.00    +0.000 N 
ATOM     26  H   UNL     1       6.205   6.818  14.456  0.00  0.00    +0.000 HD
ATOM     27  H   UNL     1       7.347   5.622  14.780  0.00  0.00    +0.000 HD
ENDBRANCH   4  25
TORSDOF 4
ENDMDL
MODEL 7
REMARK VINA RESULT:      -6.4      1.978      4.259
REMARK  Name = 
REMARK  5 active torsions:
REMARK  status: ('A' for Active; 'I' for Inactive)
REMARK    1  A    between atoms: C_1  and  N_2
REMARK    2  A    between atoms: N_5  and  C_6
REMARK    3  A    between atoms: C_9  and  N_10
REMARK    4  A    between atoms: C_12  and  N_13
REMARK    5  A    between atoms: C_14  and  C_16
REMARK                            x       y       z     vdW  Elec       q    Type
REMARK                         _______ _______ _______ _____ _____    ______ ____
ROOT
ATOM      1  C   UNL     1       4.064   4.791  17.690  0.00  0.00    +0.000 A 
ATOM      2  C   UNL     1       4.730   3.780  16.971  0.00  0.00    +0.000 A 
ATOM      3  C   UNL     1       5.542   4.050  15.869  0.00  0.00    +0.000 A 
ATOM      4  C   UNL     1       5.685   5.351  15.409  0.00  0.00    +0.000 A 
ATOM      5  C   UNL     1       5.076   6.382  16.129  0.00  0.00    +0.000 A 
ATOM      6  C   UNL     1       4.253   6.119  17.243  0.00  0.00    +0.000 A 
ENDROOT
BRANCH   1  11
ATOM      7  C   UNL     1       1.091   2.511  21.905  0.00  0.00    +0.000 C 
ATOM      8  N   UNL     1       1.543   3.478  20.911  0.00  0.00    +0.000 NA
ATOM      9  C   UNL     1       1.356   2.957  19.537  0.00  0.00    +0.000 C 
ATOM     10  C   UNL     1       1.820   3.966  18.457  0.00  0.00    +0.000 C 
ATOM     11  N   UNL     1       3.205   4.379  18.703  0.00  0.00    +0.000 N 
ATOM     12  C   UNL     1       3.485   4.830  20.078  0.00  0.00    +0.000 C 
ATOM     13  C   UNL     1       2.975   3.799  21.105  0.00  0.00    +0.000 C 
ENDBRANCH   1  11
BRANCH   6  14
ATOM     14  N   UNL     1       3.722   7.228  17.950  0.00  0.00    +0.000 N 
ATOM     15  C   UNL     1       2.381   7.586  17.865  0.00  0.00    +0.000 C 
ATOM     16  O   UNL     1       1.566   6.956  17.203  0.00  0.00    +0.000 OA
ATOM     17  H   UNL     1       4.266   7.557  18.737  0.00  0.00    +0.000 HD
BRANCH  15  18
ATOM     18  C   UNL     1       1.882   8.733  18.705  0.00  0.00    +0.000 A 
ATOM     19  C   UNL     1       1.924  10.001  18.079  0.00  0.00    +0.000 A 
ATOM     20  C   UNL     1       1.418  11.148  18.699  0.00  0.00    +0.000 A 
ATOM     21  C   UNL     1       0.858  11.057  19.964  0.00  0.00    +0.000 A 
ATOM     22  C   UNL     1       0.852   9.827  20.624  0.00  0.00    +0.000 A 
ATOM     23  C   UNL     1       1.371   8.671  20.010  0.00  0.00    +0.000 A 
ATOM     24 CL   UNL     1       1.342   7.241  20.980  0.00  0.00    +0.000 Cl
ENDBRANCH  15  18
ENDBRANCH   6  14
BRANCH   4  25
ATOM     25  N   UNL     1       6.606   5.630  14.391  0.00  0.00    +0.000 N 
ATOM     26  H   UNL     1       6.278   6.338  13.740  0.00  0.00    +0.000 HD
ATOM     27  H   UNL     1       7.535   5.841  14.746  0.00  0.00    +0.000 HD
ENDBRANCH   4  25
TORSDOF 4
ENDMDL
MODEL 8
REMARK VINA RESULT:      -6.4      2.057      2.604
REMARK  Name = 
REMARK  5 active torsions:
REMARK  status: ('A' for Active; 'I' for Inactive)
REMARK    1  A    between atoms: C_1  and  N_2
REMARK    2  A    between atoms: N_5  and  C_6
REMARK    3  A    between atoms: C_9  and  N_10
REMARK    4  A    between atoms: C_12  and  N_13
REMARK    5  A    between atoms: C_14  and  C_16
REMARK                            x       y       z     vdW  Elec       q    Type
REMARK                         _______ _______ _______ _____ _____    ______ ____
ROOT
ATOM      1  C   UNL     1       3.515   4.024  19.368  0.00  0.00    +0.000 A 
ATOM      2  C   UNL     1       3.686   2.734  19.908  0.00  0.00    +0.000 A 
ATOM      3  C   UNL     1       2.893   2.241  20.945  0.00  0.00    +0.000 A 
ATOM      4  C   UNL     1       1.919   3.043  21.521  0.00  0.00    +0.000 A 
ATOM      5  C   UNL     1       1.692   4.310  20.977  0.00  0.00    +0.000 A 
ATOM      6  C   UNL     1       2.488   4.817  19.930  0.00  0.00    +0.000 A 
ENDROOT
BRANCH   1  11
ATOM      7  C   UNL     1       7.381   4.888  15.355  0.00  0.00    +0.000 C 
ATOM      8  N   UNL     1       6.309   5.153  16.308  0.00  0.00    +0.000 NA
ATOM      9  C   UNL     1       6.760   4.911  17.698  0.00  0.00    +0.000 C 
ATOM     10  C   UNL     1       5.644   5.193  18.735  0.00  0.00    +0.000 C 
ATOM     11  N   UNL     1       4.437   4.429  18.410  0.00  0.00    +0.000 N 
ATOM     12  C   UNL     1       3.977   4.555  17.015  0.00  0.00    +0.000 C 
ATOM     13  C   UNL     1       5.137   4.292  16.032  0.00  0.00    +0.000 C 
ENDBRANCH   1  11
BRANCH   6  14
ATOM     14  N   UNL     1       2.151   6.088  19.398  0.00  0.00    +0.000 N 
ATOM     15  C   UNL     1       1.829   7.168  20.213  0.00  0.00    +0.000 C 
ATOM     16  O   UNL     1       1.841   7.105  21.435  0.00  0.00    +0.000 OA
ATOM     17  H   UNL     1       2.444   6.266  18.447  0.00  0.00    +0.000 HD
BRANCH  15  18
ATOM     18  C   UNL     1       1.554   8.503  19.571  0.00  0.00    +0.000 A 
ATOM     19  C   UNL     1       0.668   9.344  20.284  0.00  0.00    +0.000 A 
ATOM     20  C   UNL     1       0.381  10.645  19.860  0.00  0.00    +0.000 A 
ATOM     21  C   UNL     1       0.973  11.140  18.708  0.00  0.00    +0.000 A 
ATOM     22  C   UNL     1       1.811  10.313  17.958  0.00  0.00    +0.000 A 
ATOM     23  C   UNL     1       2.094   8.998  18.374  0.00  0.00    +0.000 A 
ATOM     24 CL   UNL     1       3.101   8.085  17.307  0.00  0.00    +0.000 Cl
ENDBRANCH  15  18
ENDBRANCH   6  14
BRANCH   4  25
ATOM     25  N   UNL     1       1.039   2.497  22.465  0.00  0.00    +0.000 N 
ATOM     26  H   UNL     1       1.241   1.525  22.682  0.00  0.00    +0.000 HD
ATOM     27  H   UNL     1       0.958   3.065  23.305  0.00  0.00    +0.000 HD
ENDBRANCH   4  25
TORSDOF 4
ENDMDL
MODEL 9
REMARK VINA RESULT:      -6.4      1.949      4.425
REMARK  Name = 
REMARK  5 active torsions:
REMARK  status: ('A' for Active; 'I' for Inactive)
REMARK    1  A    between atoms: C_1  and  N_2
REMARK    2  A    between atoms: N_5  and  C_6
REMARK    3  A    between atoms: C_9  and  N_10
REMARK    4  A    between atoms: C_12  and  N_13
REMARK    5  A    between atoms: C_14  and  C_16
REMARK                            x       y       z     vdW  Elec       q    Type
REMARK                         _______ _______ _______ _____ _____    ______ ____
ROOT
ATOM      1  C   UNL     1       4.752   4.191  16.975  0.00  0.00    +0.000 A 
ATOM      2  C   UNL     1       5.787   3.371  16.484  0.00  0.00    +0.000 A 
ATOM      3  C   UNL     1       6.661   3.783  15.478  0.00  0.00    +0.000 A 
ATOM      4  C   UNL     1       6.506   5.027  14.884  0.00  0.00    +0.000 A 
ATOM      5  C   UNL     1       5.520   5.883  15.381  0.00  0.00    +0.000 A 
ATOM      6  C   UNL     1       4.631   5.476  16.397  0.00  0.00    +0.000 A 
ENDROOT
BRANCH   1  11
ATOM      7  C   UNL     1       1.010   2.631  20.894  0.00  0.00    +0.000 C 
ATOM      8  N   UNL     1       1.967   2.540  19.797  0.00  0.00    +0.000 NA
ATOM      9  C   UNL     1       3.314   2.984  20.227  0.00  0.00    +0.000 C 
ATOM     10  C   UNL     1       4.356   2.890  19.085  0.00  0.00    +0.000 C 
ATOM     11  N   UNL     1       3.889   3.622  17.904  0.00  0.00    +0.000 N 
ATOM     12  C   UNL     1       2.520   3.293  17.469  0.00  0.00    +0.000 C 
ATOM     13  C   UNL     1       1.536   3.375  18.654  0.00  0.00    +0.000 C 
ENDBRANCH   1  11
BRANCH   6  14
ATOM     14  N   UNL     1       3.699   6.428  16.882  0.00  0.00    +0.000 N 
ATOM     15  C   UNL     1       3.632   6.778  18.226  0.00  0.00    +0.000 C 
ATOM     16  O   UNL     1       4.385   6.315  19.072  0.00  0.00    +0.000 OA
ATOM     17  H   UNL     1       3.303   7.055  16.195  0.00  0.00    +0.000 HD
BRANCH  15  18
ATOM     18  C   UNL     1       2.662   7.852  18.648  0.00  0.00    +0.000 A 
ATOM     19  C   UNL     1       2.638   9.000  17.823  0.00  0.00    +0.000 A 
ATOM     20  C   UNL     1       1.733  10.045  18.036  0.00  0.00    +0.000 A 
ATOM     21  C   UNL     1       0.827   9.968  19.084  0.00  0.00    +0.000 A 
ATOM     22  C   UNL     1       0.865   8.870  19.943  0.00  0.00    +0.000 A 
ATOM     23  C   UNL     1       1.783   7.821  19.741  0.00  0.00    +0.000 A 
ATOM     24 CL   UNL     1       1.742   6.563  20.926  0.00  0.00    +0.000 Cl
ENDBRANCH  15  18
ENDBRANCH   6  14
BRANCH   4  25
ATOM     25  N   UNL     1       7.467   5.487  13.975  0.00  0.00    +0.000 N 
ATOM     26  H   UNL     1       8.241   5.970  14.424  0.00  0.00    +0.000 HD
ATOM     27  H   UNL     1       7.789   4.763  13.338  0.00  0.00    +0.000 HD
ENDBRANCH   4  25
TORSDOF 4
ENDMDL
