MODEL 1
REMARK VINA RESULT:      -9.2      0.000      0.000
REMARK  Name = 
REMARK  5 active torsions:
REMARK  status: ('A' for Active; 'I' for Inactive)
REMARK    1  A    between atoms: C_2  and  C_17
REMARK    2  A    between atoms: N_3  and  C_4
REMARK    3  A    between atoms: C_4  and  C_5
REMARK    4  A    between atoms: C_4  and  C_11
REMARK    5  A    between atoms: C_20  and  O_21
REMARK                            x       y       z     vdW  Elec       q    Type
REMARK                         _______ _______ _______ _____ _____    ______ ____
ROOT
ATOM      1  C   UNL     1       3.269   6.118  19.164  0.00  0.00    +0.000 C 
ENDROOT
BRANCH   1   2
ATOM      2  C   UNL     1       2.488   7.427  19.036  0.00  0.00    +0.000 A 
ATOM      3  C   UNL     1       2.489   8.201  17.863  0.00  0.00    +0.000 A 
ATOM      4  C   UNL     1       1.759   9.392  17.790  0.00  0.00    +0.000 A 
ATOM      5  C   UNL     1       1.045   9.843  18.897  0.00  0.00    +0.000 A 
ATOM      6  C   UNL     1       1.056   9.105  20.077  0.00  0.00    +0.000 A 
ATOM      7  C   UNL     1       1.772   7.907  20.148  0.00  0.00    +0.000 A 
ENDBRANCH   1   2
BRANCH   1   8
ATOM      8  C   UNL     1       2.413   4.897  19.520  0.00  0.00    +0.000 A 
ATOM      9  C   UNL     1       2.278   4.423  20.836  0.00  0.00    +0.000 A 
ATOM     10  C   UNL     1       1.568   3.250  21.108  0.00  0.00    +0.000 A 
ATOM     11  C   UNL     1       0.968   2.538  20.073  0.00  0.00    +0.000 A 
ATOM     12  C   UNL     1       1.035   3.024  18.770  0.00  0.00    +0.000 A 
ATOM     13  C   UNL     1       1.735   4.202  18.499  0.00  0.00    +0.000 A 
ENDBRANCH   1   8
BRANCH   1  16
ATOM     14  O   UNL     1       5.874   4.958  18.918  0.00  0.00    +0.000 OA
ATOM     15  C   UNL     1       5.273   5.328  17.913  0.00  0.00    +0.000 C 
ATOM     16  N   UNL     1       4.035   5.925  17.940  0.00  0.00    +0.000 N 
ATOM     17  H   UNL     1       3.633   6.254  17.067  0.00  0.00    +0.000 HD
BRANCH  15  18
ATOM     18  C   UNL     1       5.876   5.131  16.562  0.00  0.00    +0.000 A 
ATOM     19  C   UNL     1       5.232   4.356  15.606  0.00  0.00    +0.000 A 
ATOM     20  C   UNL     1       5.812   4.231  14.349  0.00  0.00    +0.000 A 
ATOM     21  C   UNL     1       7.001   4.892  14.117  0.00  0.00    +0.000 A 
ATOM     22  N   UNL     1       7.613   5.640  15.058  0.00  0.00    +0.000 NA
ATOM     23  N   UNL     1       7.045   5.765  16.304  0.00  0.00    +0.000 NA
BRANCH  21  24
ATOM     24  O   UNL     1       7.627   4.828  12.905  0.00  0.00    +0.000 OA
ATOM     25  H   UNL     1       7.739   5.730  12.568  0.00  0.00    +0.000 HD
ENDBRANCH  21  24
ENDBRANCH  15  18
ENDBRANCH   1  16
TORSDOF 5
ENDMDL
MODEL 2
REMARK VINA RESULT:      -9.2      0.069      1.007
REMARK  Name = 
REMARK  5 active torsions:
REMARK  status: ('A' for Active; 'I' for Inactive)
REMARK    1  A    between atoms: C_2  and  C_17
REMARK    2  A    between atoms: N_3  and  C_4
REMARK    3  A    between atoms: C_4  and  C_5
REMARK    4  A    between atoms: C_4  and  C_11
REMARK    5  A    between atoms: C_20  and  O_21
REMARK                            x       y       z     vdW  Elec       q    Type
REMARK                         _______ _______ _______ _____ _____    ______ ____
ROOT
ATOM      1  C   UNL     1       3.271   6.083  19.236  0.00  0.00    +0.000 C 
ENDROOT
BRANCH   1   2
ATOM      2  C   UNL     1       2.496   7.399  19.133  0.00  0.00    +0.000 A 
ATOM      3  C   UNL     1       1.747   7.924  20.200  0.00  0.00    +0.000 A 
ATOM      4  C   UNL     1       1.054   9.132  20.062  0.00  0.00    +0.000 A 
ATOM      5  C   UNL     1       1.072   9.814  18.849  0.00  0.00    +0.000 A 
ATOM      6  C   UNL     1       1.784   9.294  17.772  0.00  0.00    +0.000 A 
ATOM      7  C   UNL     1       2.490   8.096  17.912  0.00  0.00    +0.000 A 
ENDBRANCH   1   2
BRANCH   1   8
ATOM      8  C   UNL     1       2.410   4.863  19.586  0.00  0.00    +0.000 A 
ATOM      9  C   UNL     1       2.261   4.392  20.901  0.00  0.00    +0.000 A 
ATOM     10  C   UNL     1       1.547   3.220  21.168  0.00  0.00    +0.000 A 
ATOM     11  C   UNL     1       0.959   2.506  20.127  0.00  0.00    +0.000 A 
ATOM     12  C   UNL     1       1.040   2.989  18.825  0.00  0.00    +0.000 A 
ATOM     13  C   UNL     1       1.743   4.166  18.558  0.00  0.00    +0.000 A 
ENDBRANCH   1   8
BRANCH   1  16
ATOM     14  O   UNL     1       5.904   4.997  18.962  0.00  0.00    +0.000 OA
ATOM     15  C   UNL     1       5.278   5.340  17.963  0.00  0.00    +0.000 C 
ATOM     16  N   UNL     1       4.023   5.901  18.003  0.00  0.00    +0.000 N 
ATOM     17  H   UNL     1       3.599   6.210  17.134  0.00  0.00    +0.000 HD
BRANCH  15  18
ATOM     18  C   UNL     1       5.866   5.148  16.605  0.00  0.00    +0.000 A 
ATOM     19  C   UNL     1       5.204   4.388  15.649  0.00  0.00    +0.000 A 
ATOM     20  C   UNL     1       5.772   4.267  14.385  0.00  0.00    +0.000 A 
ATOM     21  C   UNL     1       6.967   4.917  14.148  0.00  0.00    +0.000 A 
ATOM     22  N   UNL     1       7.595   5.651  15.090  0.00  0.00    +0.000 NA
ATOM     23  N   UNL     1       7.040   5.771  16.342  0.00  0.00    +0.000 NA
BRANCH  21  24
ATOM     24  O   UNL     1       7.581   4.857  12.930  0.00  0.00    +0.000 OA
ATOM     25  H   UNL     1       8.375   5.410  12.958  0.00  0.00    +0.000 HD
ENDBRANCH  21  24
ENDBRANCH  15  18
ENDBRANCH   1  16
TORSDOF 5
ENDMDL
MODEL 3
REMARK VINA RESULT:      -9.1      0.184      1.021
REMARK  Name = 
REMARK  5 active torsions:
REMARK  status: ('A' for Active; 'I' for Inactive)
REMARK    1  A    between atoms: C_2  and  C_17
REMARK    2  A    between atoms: N_3  and  C_4
REMARK    3  A    between atoms: C_4  and  C_5
REMARK    4  A    between atoms: C_4  and  C_11
REMARK    5  A    between atoms: C_20  and  O_21
REMARK                            x       y       z     vdW  Elec       q    Type
REMARK                         _______ _______ _______ _____ _____    ______ ____
ROOT
ATOM      1  C   UNL     1       3.398   5.973  19.123  0.00  0.00    +0.000 C 
ENDROOT
BRANCH   1   2
ATOM      2  C   UNL     1       2.602   7.277  19.034  0.00  0.00    +0.000 A 
ATOM      3  C   UNL     1       2.587   8.079  17.880  0.00  0.00    +0.000 A 
ATOM      4  C   UNL     1       1.844   9.264  17.842  0.00  0.00    +0.000 A 
ATOM      5  C   UNL     1       1.135   9.681  18.965  0.00  0.00    +0.000 A 
ATOM      6  C   UNL     1       1.162   8.915  20.126  0.00  0.00    +0.000 A 
ATOM      7  C   UNL     1       1.890   7.723  20.162  0.00  0.00    +0.000 A 
ENDBRANCH   1   2
BRANCH   1   8
ATOM      8  C   UNL     1       2.556   4.735  19.455  0.00  0.00    +0.000 A 
ATOM      9  C   UNL     1       1.854   4.011  18.476  0.00  0.00    +0.000 A 
ATOM     10  C   UNL     1       1.019   2.946  18.831  0.00  0.00    +0.000 A 
ATOM     11  C   UNL     1       0.882   2.579  20.167  0.00  0.00    +0.000 A 
ATOM     12  C   UNL     1       1.617   3.242  21.146  0.00  0.00    +0.000 A 
ATOM     13  C   UNL     1       2.460   4.298  20.791  0.00  0.00    +0.000 A 
ENDBRANCH   1   8
BRANCH   1  16
ATOM     14  O   UNL     1       5.927   4.674  18.800  0.00  0.00    +0.000 OA
ATOM     15  C   UNL     1       5.355   5.148  17.822  0.00  0.00    +0.000 C 
ATOM     16  N   UNL     1       4.156   5.818  17.890  0.00  0.00    +0.000 N 
ATOM     17  H   UNL     1       3.780   6.230  17.042  0.00  0.00    +0.000 HD
BRANCH  15  18
ATOM     18  C   UNL     1       5.951   5.009  16.461  0.00  0.00    +0.000 A 
ATOM     19  C   UNL     1       5.319   4.247  15.487  0.00  0.00    +0.000 A 
ATOM     20  C   UNL     1       5.892   4.175  14.222  0.00  0.00    +0.000 A 
ATOM     21  C   UNL     1       7.062   4.874  14.001  0.00  0.00    +0.000 A 
ATOM     22  N   UNL     1       7.662   5.608  14.961  0.00  0.00    +0.000 NA
ATOM     23  N   UNL     1       7.102   5.680  16.214  0.00  0.00    +0.000 NA
BRANCH  21  24
ATOM     24  O   UNL     1       7.679   4.863  12.784  0.00  0.00    +0.000 OA
ATOM     25  H   UNL     1       7.419   5.660  12.299  0.00  0.00    +0.000 HD
ENDBRANCH  21  24
ENDBRANCH  15  18
ENDBRANCH   1  16
TORSDOF 5
ENDMDL
MODEL 4
REMARK VINA RESULT:      -9.1      0.224      1.436
REMARK  Name = 
REMARK  5 active torsions:
REMARK  status: ('A' for Active; 'I' for Inactive)
REMARK    1  A    between atoms: C_2  and  C_17
REMARK    2  A    between atoms: N_3  and  C_4
REMARK    3  A    between atoms: C_4  and  C_5
REMARK    4  A    between atoms: C_4  and  C_11
REMARK    5  A    between atoms: C_20  and  O_21
REMARK                            x       y       z     vdW  Elec       q    Type
REMARK                         _______ _______ _______ _____ _____    ______ ____
ROOT
ATOM      1  C   UNL     1       3.402   5.977  19.273  0.00  0.00    +0.000 C 
ENDROOT
BRANCH   1   2
ATOM      2  C   UNL     1       2.588   7.269  19.183  0.00  0.00    +0.000 A 
ATOM      3  C   UNL     1       1.819   7.758  20.253  0.00  0.00    +0.000 A 
ATOM      4  C   UNL     1       1.089   8.945  20.128  0.00  0.00    +0.000 A 
ATOM      5  C   UNL     1       1.091   9.643  18.924  0.00  0.00    +0.000 A 
ATOM      6  C   UNL     1       1.824   9.159  17.843  0.00  0.00    +0.000 A 
ATOM      7  C   UNL     1       2.565   7.982  17.970  0.00  0.00    +0.000 A 
ENDBRANCH   1   2
BRANCH   1   8
ATOM      8  C   UNL     1       2.586   4.735  19.649  0.00  0.00    +0.000 A 
ATOM      9  C   UNL     1       1.796   4.036  18.720  0.00  0.00    +0.000 A 
ATOM     10  C   UNL     1       0.990   2.967  19.122  0.00  0.00    +0.000 A 
ATOM     11  C   UNL     1       0.969   2.569  20.456  0.00  0.00    +0.000 A 
ATOM     12  C   UNL     1       1.791   3.206  21.381  0.00  0.00    +0.000 A 
ATOM     13  C   UNL     1       2.605   4.268  20.978  0.00  0.00    +0.000 A 
ENDBRANCH   1   8
BRANCH   1  16
ATOM     14  O   UNL     1       6.052   4.950  18.935  0.00  0.00    +0.000 OA
ATOM     15  C   UNL     1       5.394   5.277  17.951  0.00  0.00    +0.000 C 
ATOM     16  N   UNL     1       4.128   5.810  18.021  0.00  0.00    +0.000 N 
ATOM     17  H   UNL     1       3.677   6.108  17.162  0.00  0.00    +0.000 HD
BRANCH  15  18
ATOM     18  C   UNL     1       5.953   5.096  16.579  0.00  0.00    +0.000 A 
ATOM     19  C   UNL     1       5.282   4.325  15.639  0.00  0.00    +0.000 A 
ATOM     20  C   UNL     1       5.822   4.215  14.362  0.00  0.00    +0.000 A 
ATOM     21  C   UNL     1       6.999   4.886  14.096  0.00  0.00    +0.000 A 
ATOM     22  N   UNL     1       7.636   5.630  15.024  0.00  0.00    +0.000 NA
ATOM     23  N   UNL     1       7.109   5.740  16.289  0.00  0.00    +0.000 NA
BRANCH  21  24
ATOM     24  O   UNL     1       7.585   4.837  12.864  0.00  0.00    +0.000 OA
ATOM     25  H   UNL     1       6.887   4.798  12.193  0.00  0.00    +0.000 HD
ENDBRANCH  21  24
ENDBRANCH  15  18
ENDBRANCH   1  16
TORSDOF 5
ENDMDL
MODEL 5
REMARK VINA RESULT:      -8.3      3.241      6.433
REMARK  Name = 
REMARK  5 active torsions:
REMARK  status: ('A' for Active; 'I' for Inactive)
REMARK    1  A    between atoms: C_2  and  C_17
REMARK    2  A    between atoms: N_3  and  C_4
REMARK    3  A    between atoms: C_4  and  C_5
REMARK    4  A    between atoms: C_4  and  C_11
REMARK    5  A    between atoms: C_20  and  O_21
REMARK                            x       y       z     vdW  Elec       q    Type
REMARK                         _______ _______ _______ _____ _____    ______ ____
ROOT
ATOM      1  C   UNL     1       3.024   6.027  18.022  0.00  0.00    +0.000 C 
ENDROOT
BRANCH   1   2
ATOM      2  C   UNL     1       4.550   6.088  18.108  0.00  0.00    +0.000 A 
ATOM      3  C   UNL     1       5.338   6.750  17.151  0.00  0.00    +0.000 A 
ATOM      4  C   UNL     1       6.732   6.782  17.268  0.00  0.00    +0.000 A 
ATOM      5  C   UNL     1       7.359   6.127  18.324  0.00  0.00    +0.000 A 
ATOM      6  C   UNL     1       6.597   5.441  19.266  0.00  0.00    +0.000 A 
ATOM      7  C   UNL     1       5.204   5.421  19.159  0.00  0.00    +0.000 A 
ENDBRANCH   1   2
BRANCH   1   8
ATOM      8  C   UNL     1       2.428   4.635  18.264  0.00  0.00    +0.000 A 
ATOM      9  C   UNL     1       1.528   4.368  19.310  0.00  0.00    +0.000 A 
ATOM     10  C   UNL     1       1.082   3.066  19.558  0.00  0.00    +0.000 A 
ATOM     11  C   UNL     1       1.516   2.012  18.758  0.00  0.00    +0.000 A 
ATOM     12  C   UNL     1       2.357   2.265  17.679  0.00  0.00    +0.000 A 
ATOM     13  C   UNL     1       2.794   3.567  17.423  0.00  0.00    +0.000 A 
ENDBRANCH   1   8
BRANCH   1  16
ATOM     14  O   UNL     1       2.183   8.678  17.347  0.00  0.00    +0.000 OA
ATOM     15  C   UNL     1       2.069   8.277  18.502  0.00  0.00    +0.000 C 
ATOM     16  N   UNL     1       2.477   7.033  18.922  0.00  0.00    +0.000 N 
ATOM     17  H   UNL     1       2.400   6.803  19.908  0.00  0.00    +0.000 HD
BRANCH  15  18
ATOM     18  C   UNL     1       1.452   9.150  19.543  0.00  0.00    +0.000 A 
ATOM     19  C   UNL     1       1.212   8.663  20.821  0.00  0.00    +0.000 A 
ATOM     20  C   UNL     1       0.669   9.523  21.770  0.00  0.00    +0.000 A 
ATOM     21  C   UNL     1       0.401  10.823  21.388  0.00  0.00    +0.000 A 
ATOM     22  N   UNL     1       0.641  11.277  20.140  0.00  0.00    +0.000 NA
ATOM     23  N   UNL     1       1.175  10.430  19.197  0.00  0.00    +0.000 NA
BRANCH  21  24
ATOM     24  O   UNL     1      -0.121  11.730  22.264  0.00  0.00    +0.000 OA
ATOM     25  H   UNL     1      -0.922  11.353  22.657  0.00  0.00    +0.000 HD
ENDBRANCH  21  24
ENDBRANCH  15  18
ENDBRANCH   1  16
TORSDOF 5
ENDMDL
MODEL 6
REMARK VINA RESULT:      -8.3      3.221      6.463
REMARK  Name = 
REMARK  5 active torsions:
REMARK  status: ('A' for Active; 'I' for Inactive)
REMARK    1  A    between atoms: C_2  and  C_17
REMARK    2  A    between atoms: N_3  and  C_4
REMARK    3  A    between atoms: C_4  and  C_5
REMARK    4  A    between atoms: C_4  and  C_11
REMARK    5  A    between atoms: C_20  and  O_21
REMARK                            x       y       z     vdW  Elec       q    Type
REMARK                         _______ _______ _______ _____ _____    ______ ____
ROOT
ATOM      1  C   UNL     1       3.084   5.999  18.036  0.00  0.00    +0.000 C 
ENDROOT
BRANCH   1   2
ATOM      2  C   UNL     1       4.609   6.099  18.093  0.00  0.00    +0.000 A 
ATOM      3  C   UNL     1       5.362   6.786  17.125  0.00  0.00    +0.000 A 
ATOM      4  C   UNL     1       6.756   6.852  17.216  0.00  0.00    +0.000 A 
ATOM      5  C   UNL     1       7.421   6.208  18.255  0.00  0.00    +0.000 A 
ATOM      6  C   UNL     1       6.694   5.498  19.207  0.00  0.00    +0.000 A 
ATOM      7  C   UNL     1       5.300   5.443  19.127  0.00  0.00    +0.000 A 
ENDBRANCH   1   2
BRANCH   1   8
ATOM      8  C   UNL     1       2.527   4.598  18.316  0.00  0.00    +0.000 A 
ATOM      9  C   UNL     1       2.838   3.485  17.516  0.00  0.00    +0.000 A 
ATOM     10  C   UNL     1       2.234   2.245  17.745  0.00  0.00    +0.000 A 
ATOM     11  C   UNL     1       1.319   2.092  18.783  0.00  0.00    +0.000 A 
ATOM     12  C   UNL     1       1.045   3.165  19.626  0.00  0.00    +0.000 A 
ATOM     13  C   UNL     1       1.656   4.401  19.406  0.00  0.00    +0.000 A 
ENDBRANCH   1   8
BRANCH   1  16
ATOM     14  O   UNL     1       2.227   8.638  17.337  0.00  0.00    +0.000 OA
ATOM     15  C   UNL     1       2.113   8.246  18.495  0.00  0.00    +0.000 C 
ATOM     16  N   UNL     1       2.529   7.009  18.927  0.00  0.00    +0.000 N 
ATOM     17  H   UNL     1       2.452   6.786  19.914  0.00  0.00    +0.000 HD
BRANCH  15  18
ATOM     18  C   UNL     1       1.488   9.123  19.528  0.00  0.00    +0.000 A 
ATOM     19  C   UNL     1       1.213   8.634  20.798  0.00  0.00    +0.000 A 
ATOM     20  C   UNL     1       0.663   9.498  21.740  0.00  0.00    +0.000 A 
ATOM     21  C   UNL     1       0.425  10.803  21.359  0.00  0.00    +0.000 A 
ATOM     22  N   UNL     1       0.699  11.260  20.119  0.00  0.00    +0.000 NA
ATOM     23  N   UNL     1       1.239  10.410  19.184  0.00  0.00    +0.000 NA
BRANCH  21  24
ATOM     24  O   UNL     1      -0.101  11.714  22.229  0.00  0.00    +0.000 OA
ATOM     25  H   UNL     1      -1.053  11.555  22.303  0.00  0.00    +0.000 HD
ENDBRANCH  21  24
ENDBRANCH  15  18
ENDBRANCH   1  16
TORSDOF 5
ENDMDL
MODEL 7
REMARK VINA RESULT:      -8.3      3.214      6.518
REMARK  Name = 
REMARK  5 active torsions:
REMARK  status: ('A' for Active; 'I' for Inactive)
REMARK    1  A    between atoms: C_2  and  C_17
REMARK    2  A    between atoms: N_3  and  C_4
REMARK    3  A    between atoms: C_4  and  C_5
REMARK    4  A    between atoms: C_4  and  C_11
REMARK    5  A    between atoms: C_20  and  O_21
REMARK                            x       y       z     vdW  Elec       q    Type
REMARK                         _______ _______ _______ _____ _____    ______ ____
ROOT
ATOM      1  C   UNL     1       3.107   5.960  18.058  0.00  0.00    +0.000 C 
ENDROOT
BRANCH   1   2
ATOM      2  C   UNL     1       4.632   6.043  18.137  0.00  0.00    +0.000 A 
ATOM      3  C   UNL     1       5.374   5.427  19.160  0.00  0.00    +0.000 A 
ATOM      4  C   UNL     1       6.769   5.528  19.194  0.00  0.00    +0.000 A 
ATOM      5  C   UNL     1       7.440   6.271  18.227  0.00  0.00    +0.000 A 
ATOM      6  C   UNL     1       6.720   6.913  17.223  0.00  0.00    +0.000 A 
ATOM      7  C   UNL     1       5.328   6.801  17.178  0.00  0.00    +0.000 A 
ENDBRANCH   1   2
BRANCH   1   8
ATOM      8  C   UNL     1       2.530   4.564  18.323  0.00  0.00    +0.000 A 
ATOM      9  C   UNL     1       2.846   3.450  17.527  0.00  0.00    +0.000 A 
ATOM     10  C   UNL     1       2.225   2.215  17.741  0.00  0.00    +0.000 A 
ATOM     11  C   UNL     1       1.290   2.069  18.762  0.00  0.00    +0.000 A 
ATOM     12  C   UNL     1       1.010   3.142  19.602  0.00  0.00    +0.000 A 
ATOM     13  C   UNL     1       1.638   4.374  19.396  0.00  0.00    +0.000 A 
ENDBRANCH   1   8
BRANCH   1  16
ATOM     14  O   UNL     1       2.238   8.592  17.347  0.00  0.00    +0.000 OA
ATOM     15  C   UNL     1       2.129   8.206  18.507  0.00  0.00    +0.000 C 
ATOM     16  N   UNL     1       2.550   6.972  18.944  0.00  0.00    +0.000 N 
ATOM     17  H   UNL     1       2.475   6.754  19.933  0.00  0.00    +0.000 HD
BRANCH  15  18
ATOM     18  C   UNL     1       1.502   9.086  19.537  0.00  0.00    +0.000 A 
ATOM     19  C   UNL     1       1.272   8.616  20.823  0.00  0.00    +0.000 A 
ATOM     20  C   UNL     1       0.720   9.482  21.760  0.00  0.00    +0.000 A 
ATOM     21  C   UNL     1       0.433  10.772  21.359  0.00  0.00    +0.000 A 
ATOM     22  N   UNL     1       0.663  11.210  20.103  0.00  0.00    +0.000 NA
ATOM     23  N   UNL     1       1.206  10.357  19.172  0.00  0.00    +0.000 NA
BRANCH  21  24
ATOM     24  O   UNL     1      -0.100  11.685  22.222  0.00  0.00    +0.000 OA
ATOM     25  H   UNL     1      -0.434  11.215  23.000  0.00  0.00    +0.000 HD
ENDBRANCH  21  24
ENDBRANCH  15  18
ENDBRANCH   1  16
TORSDOF 5
ENDMDL
MODEL 8
REMARK VINA RESULT:      -8.3      3.201      6.473
REMARK  Name = 
REMARK  5 active torsions:
REMARK  status: ('A' for Active; 'I' for Inactive)
REMARK    1  A    between atoms: C_2  and  C_17
REMARK    2  A    between atoms: N_3  and  C_4
REMARK    3  A    between atoms: C_4  and  C_5
REMARK    4  A    between atoms: C_4  and  C_11
REMARK    5  A    between atoms: C_20  and  O_21
REMARK                            x       y       z     vdW  Elec       q    Type
REMARK                         _______ _______ _______ _____ _____    ______ ____
ROOT
ATOM      1  C   UNL     1       3.111   5.932  18.003  0.00  0.00    +0.000 C 
ENDROOT
BRANCH   1   2
ATOM      2  C   UNL     1       4.636   5.992  18.114  0.00  0.00    +0.000 A 
ATOM      3  C   UNL     1       5.342   5.424  19.188  0.00  0.00    +0.000 A 
ATOM      4  C   UNL     1       6.737   5.501  19.249  0.00  0.00    +0.000 A 
ATOM      5  C   UNL     1       7.444   6.174  18.257  0.00  0.00    +0.000 A 
ATOM      6  C   UNL     1       6.760   6.769  17.200  0.00  0.00    +0.000 A 
ATOM      7  C   UNL     1       5.367   6.680  17.129  0.00  0.00    +0.000 A 
ENDBRANCH   1   2
BRANCH   1   8
ATOM      8  C   UNL     1       2.511   4.537  18.218  0.00  0.00    +0.000 A 
ATOM      9  C   UNL     1       1.491   4.286  19.151  0.00  0.00    +0.000 A 
ATOM     10  C   UNL     1       1.038   2.984  19.387  0.00  0.00    +0.000 A 
ATOM     11  C   UNL     1       1.587   1.914  18.686  0.00  0.00    +0.000 A 
ATOM     12  C   UNL     1       2.553   2.147  17.713  0.00  0.00    +0.000 A 
ATOM     13  C   UNL     1       2.999   3.448  17.468  0.00  0.00    +0.000 A 
ENDBRANCH   1   8
BRANCH   1  16
ATOM     14  O   UNL     1       2.305   8.600  17.355  0.00  0.00    +0.000 OA
ATOM     15  C   UNL     1       2.161   8.180  18.499  0.00  0.00    +0.000 C 
ATOM     16  N   UNL     1       2.550   6.926  18.907  0.00  0.00    +0.000 N 
ATOM     17  H   UNL     1       2.448   6.679  19.887  0.00  0.00    +0.000 HD
BRANCH  15  18
ATOM     18  C   UNL     1       1.525   9.039  19.541  0.00  0.00    +0.000 A 
ATOM     19  C   UNL     1       1.320   8.556  20.827  0.00  0.00    +0.000 A 
ATOM     20  C   UNL     1       0.757   9.404  21.774  0.00  0.00    +0.000 A 
ATOM     21  C   UNL     1       0.436  10.689  21.384  0.00  0.00    +0.000 A 
ATOM     22  N   UNL     1       0.643  11.140  20.129  0.00  0.00    +0.000 NA
ATOM     23  N   UNL     1       1.196  10.305  19.187  0.00  0.00    +0.000 NA
BRANCH  21  24
ATOM     24  O   UNL     1      -0.108  11.584  22.259  0.00  0.00    +0.000 OA
ATOM     25  H   UNL     1      -0.352  11.114  23.069  0.00  0.00    +0.000 HD
ENDBRANCH  21  24
ENDBRANCH  15  18
ENDBRANCH   1  16
TORSDOF 5
ENDMDL
MODEL 9
REMARK VINA RESULT:      -8.3      0.972      1.484
REMARK  Name = 
REMARK  5 active torsions:
REMARK  status: ('A' for Active; 'I' for Inactive)
REMARK    1  A    between atoms: C_2  and  C_17
REMARK    2  A    between atoms: N_3  and  C_4
REMARK    3  A    between atoms: C_4  and  C_5
REMARK    4  A    between atoms: C_4  and  C_11
REMARK    5  A    between atoms: C_20  and  O_21
REMARK                            x       y       z     vdW  Elec       q    Type
REMARK                         _______ _______ _______ _____ _____    ______ ____
ROOT
ATOM      1  C   UNL     1       3.247   6.049  19.462  0.00  0.00    +0.000 C 
ENDROOT
BRANCH   1   2
ATOM      2  C   UNL     1       2.433   7.339  19.334  0.00  0.00    +0.000 A 
ATOM      3  C   UNL     1       1.695   7.880  20.401  0.00  0.00    +0.000 A 
ATOM      4  C   UNL     1       0.966   9.062  20.240  0.00  0.00    +0.000 A 
ATOM      5  C   UNL     1       0.936   9.703  19.005  0.00  0.00    +0.000 A 
ATOM      6  C   UNL     1       1.637   9.166  17.928  0.00  0.00    +0.000 A 
ATOM      7  C   UNL     1       2.379   7.993  18.091  0.00  0.00    +0.000 A 
ENDBRANCH   1   2
BRANCH   1   8
ATOM      8  C   UNL     1       2.434   4.825  19.902  0.00  0.00    +0.000 A 
ATOM      9  C   UNL     1       2.453   4.336  21.219  0.00  0.00    +0.000 A 
ATOM     10  C   UNL     1       1.775   3.161  21.558  0.00  0.00    +0.000 A 
ATOM     11  C   UNL     1       1.058   2.462  20.591  0.00  0.00    +0.000 A 
ATOM     12  C   UNL     1       0.974   2.963  19.296  0.00  0.00    +0.000 A 
ATOM     13  C   UNL     1       1.641   4.143  18.958  0.00  0.00    +0.000 A 
ENDBRANCH   1   8
BRANCH   1  16
ATOM     14  O   UNL     1       5.654   4.553  19.070  0.00  0.00    +0.000 OA
ATOM     15  C   UNL     1       5.092   5.067  18.108  0.00  0.00    +0.000 C 
ATOM     16  N   UNL     1       3.952   5.830  18.207  0.00  0.00    +0.000 N 
ATOM     17  H   UNL     1       3.584   6.268  17.369  0.00  0.00    +0.000 HD
BRANCH  15  18
ATOM     18  C   UNL     1       5.633   4.876  16.730  0.00  0.00    +0.000 A 
ATOM     19  C   UNL     1       6.943   5.225  16.431  0.00  0.00    +0.000 A 
ATOM     20  C   UNL     1       7.416   4.995  15.143  0.00  0.00    +0.000 A 
ATOM     21  C   UNL     1       6.553   4.425  14.229  0.00  0.00    +0.000 A 
ATOM     22  N   UNL     1       5.282   4.094  14.539  0.00  0.00    +0.000 NA
ATOM     23  N   UNL     1       4.808   4.321  15.809  0.00  0.00    +0.000 NA
BRANCH  21  24
ATOM     24  O   UNL     1       6.945   4.157  12.949  0.00  0.00    +0.000 OA
ATOM     25  H   UNL     1       6.291   3.570  12.543  0.00  0.00    +0.000 HD
ENDBRANCH  21  24
ENDBRANCH  15  18
ENDBRANCH   1  16
TORSDOF 5
ENDMDL
