MODEL 1
REMARK VINA RESULT:      -7.9      0.000      0.000
REMARK  Name = 
REMARK  13 active torsions:
REMARK  status: ('A' for Active; 'I' for Inactive)
REMARK    1  A    between atoms: C_1  and  C_2
REMARK    2  A    between atoms: C_2  and  O_3
REMARK    3  A    between atoms: O_3  and  C_4
REMARK    4  A    between atoms: C_7  and  S_8
REMARK    5  A    between atoms: S_8  and  N_11
REMARK    6  A    between atoms: N_11  and  C_12
REMARK    7  A    between atoms: C_12  and  C_13
REMARK    8  A    between atoms: C_13  and  C_14
REMARK    9  A    between atoms: C_14  and  C_15
REMARK   10  A    between atoms: C_18  and  N_19
REMARK   11  A    between atoms: N_19  and  C_20
REMARK   12  A    between atoms: N_19  and  C_21
REMARK   13  A    between atoms: C_25  and  C_26
REMARK                            x       y       z     vdW  Elec       q    Type
REMARK                         _______ _______ _______ _____ _____    ______ ____
ROOT
ATOM      1  N   UNL     1       7.393   6.781  17.102  0.00  0.00    +0.000 NA
ATOM      2  H   UNL     1       6.611   7.226  16.625  0.00  0.00    +0.000 HD
ENDROOT
BRANCH   1   3
ATOM      3  S   UNL     1       7.219   5.109  17.204  0.00  0.00    +0.000 S 
ATOM      4  O   UNL     1       8.073   4.625  18.269  0.00  0.00    +0.000 OA
ATOM      5  O   UNL     1       7.314   4.600  15.854  0.00  0.00    +0.000 OA
BRANCH   3   9
ATOM      6  C   UNL     1       2.872   4.700  18.603  0.00  0.00    +0.000 A 
ATOM      7  C   UNL     1       3.655   5.821  18.939  0.00  0.00    +0.000 A 
ATOM      8  C   UNL     1       4.966   5.947  18.503  0.00  0.00    +0.000 A 
ATOM      9  C   UNL     1       5.531   4.934  17.736  0.00  0.00    +0.000 A 
ATOM     10  C   UNL     1       4.781   3.805  17.389  0.00  0.00    +0.000 A 
ATOM     11  C   UNL     1       3.447   3.675  17.820  0.00  0.00    +0.000 A 
ATOM     12  C   UNL     1       2.686   2.428  17.457  0.00  0.00    +0.000 C 
BRANCH   6  13
ATOM     13  O   UNL     1       1.559   4.549  18.995  0.00  0.00    +0.000 OA
BRANCH  13  15
ATOM     14  C   UNL     1       1.365   3.153  20.981  0.00  0.00    +0.000 C 
ATOM     15  C   UNL     1       1.342   4.558  20.411  0.00  0.00    +0.000 C 
ENDBRANCH  13  15
ENDBRANCH   6  13
ENDBRANCH   3   9
ENDBRANCH   1   3
BRANCH   1  16
ATOM     16  C   UNL     1       8.005   7.472  18.237  0.00  0.00    +0.000 C 
BRANCH  16  17
ATOM     17  C   UNL     1       8.266   8.937  17.898  0.00  0.00    +0.000 C 
BRANCH  17  18
ATOM     18  C   UNL     1       9.096   9.553  19.026  0.00  0.00    +0.000 C 
BRANCH  18  19
ATOM     19  C   UNL     1       9.511  10.985  18.826  0.00  0.00    +0.000 A 
ATOM     20  C   UNL     1      10.339  11.346  17.762  0.00  0.00    +0.000 A 
ATOM     21  C   UNL     1      10.579  12.696  17.461  0.00  0.00    +0.000 A 
ATOM     22  C   UNL     1      10.008  13.742  18.204  0.00  0.00    +0.000 A 
ATOM     23  C   UNL     1       9.253  13.345  19.323  0.00  0.00    +0.000 A 
ATOM     24  C   UNL     1       8.995  12.001  19.626  0.00  0.00    +0.000 A 
BRANCH  22  25
ATOM     25  N   UNL     1      10.211  15.093  17.911  0.00  0.00    +0.000 N 
ATOM     26  C   UNL     1       9.038  15.972  17.820  0.00  0.00    +0.000 C 
ATOM     27  C   UNL     1      11.297  15.502  17.017  0.00  0.00    +0.000 C 
ENDBRANCH  22  25
ENDBRANCH  18  19
ENDBRANCH  17  18
ENDBRANCH  16  17
ENDBRANCH   1  16
TORSDOF 9
ENDMDL
MODEL 2
REMARK VINA RESULT:      -7.9      1.446      1.722
REMARK  Name = 
REMARK  13 active torsions:
REMARK  status: ('A' for Active; 'I' for Inactive)
REMARK    1  A    between atoms: C_1  and  C_2
REMARK    2  A    between atoms: C_2  and  O_3
REMARK    3  A    between atoms: O_3  and  C_4
REMARK    4  A    between atoms: C_7  and  S_8
REMARK    5  A    between atoms: S_8  and  N_11
REMARK    6  A    between atoms: N_11  and  C_12
REMARK    7  A    between atoms: C_12  and  C_13
REMARK    8  A    between atoms: C_13  and  C_14
REMARK    9  A    between atoms: C_14  and  C_15
REMARK   10  A    between atoms: C_18  and  N_19
REMARK   11  A    between atoms: N_19  and  C_20
REMARK   12  A    between atoms: N_19  and  C_21
REMARK   13  A    between atoms: C_25  and  C_26
REMARK                            x       y       z     vdW  Elec       q    Type
REMARK                         _______ _______ _______ _____ _____    ______ ____
ROOT
ATOM      1  N   UNL     1       6.656   6.830  16.907  0.00  0.00    +0.000 NA
ATOM      2  H   UNL     1       6.063   7.658  16.893  0.00  0.00    +0.000 HD
ENDROOT
BRANCH   1   3
ATOM      3  S   UNL     1       6.034   5.576  15.970  0.00  0.00    +0.000 S 
ATOM      4  O   UNL     1       6.969   4.471  16.008  0.00  0.00    +0.000 OA
ATOM      5  O   UNL     1       5.595   6.167  14.726  0.00  0.00    +0.000 OA
BRANCH   3   9
ATOM      6  C   UNL     1       2.298   4.391  18.350  0.00  0.00    +0.000 A 
ATOM      7  C   UNL     1       2.671   5.738  18.180  0.00  0.00    +0.000 A 
ATOM      8  C   UNL     1       3.794   6.094  17.448  0.00  0.00    +0.000 A 
ATOM      9  C   UNL     1       4.587   5.098  16.888  0.00  0.00    +0.000 A 
ATOM     10  C   UNL     1       4.248   3.749  17.044  0.00  0.00    +0.000 A 
ATOM     11  C   UNL     1       3.103   3.382  17.777  0.00  0.00    +0.000 A 
ATOM     12  C   UNL     1       2.792   1.919  17.951  0.00  0.00    +0.000 C 
BRANCH   6  13
ATOM     13  O   UNL     1       1.176   3.998  19.048  0.00  0.00    +0.000 OA
BRANCH  13  15
ATOM     14  C   UNL     1       1.441   2.996  21.252  0.00  0.00    +0.000 C 
ATOM     15  C   UNL     1       1.210   4.266  20.455  0.00  0.00    +0.000 C 
ENDBRANCH  13  15
ENDBRANCH   6  13
ENDBRANCH   3   9
ENDBRANCH   1   3
BRANCH   1  16
ATOM     16  C   UNL     1       7.336   6.476  18.152  0.00  0.00    +0.000 C 
BRANCH  16  17
ATOM     17  C   UNL     1       8.368   7.537  18.523  0.00  0.00    +0.000 C 
BRANCH  17  18
ATOM     18  C   UNL     1       7.991   8.845  17.824  0.00  0.00    +0.000 C 
BRANCH  18  19
ATOM     19  C   UNL     1       8.669  10.083  18.342  0.00  0.00    +0.000 A 
ATOM     20  C   UNL     1       8.551  11.298  17.666  0.00  0.00    +0.000 A 
ATOM     21  C   UNL     1       9.024  12.491  18.238  0.00  0.00    +0.000 A 
ATOM     22  C   UNL     1       9.633  12.525  19.502  0.00  0.00    +0.000 A 
ATOM     23  C   UNL     1       9.820  11.272  20.116  0.00  0.00    +0.000 A 
ATOM     24  C   UNL     1       9.340  10.077  19.562  0.00  0.00    +0.000 A 
BRANCH  22  25
ATOM     25  N   UNL     1      10.091  13.700  20.103  0.00  0.00    +0.000 N 
ATOM     26  C   UNL     1       9.123  14.540  20.821  0.00  0.00    +0.000 C 
ATOM     27  C   UNL     1      11.168  14.477  19.486  0.00  0.00    +0.000 C 
ENDBRANCH  22  25
ENDBRANCH  18  19
ENDBRANCH  17  18
ENDBRANCH  16  17
ENDBRANCH   1  16
TORSDOF 9
ENDMDL
MODEL 3
REMARK VINA RESULT:      -7.8      4.209      7.345
REMARK  Name = 
REMARK  13 active torsions:
REMARK  status: ('A' for Active; 'I' for Inactive)
REMARK    1  A    between atoms: C_1  and  C_2
REMARK    2  A    between atoms: C_2  and  O_3
REMARK    3  A    between atoms: O_3  and  C_4
REMARK    4  A    between atoms: C_7  and  S_8
REMARK    5  A    between atoms: S_8  and  N_11
REMARK    6  A    between atoms: N_11  and  C_12
REMARK    7  A    between atoms: C_12  and  C_13
REMARK    8  A    between atoms: C_13  and  C_14
REMARK    9  A    between atoms: C_14  and  C_15
REMARK   10  A    between atoms: C_18  and  N_19
REMARK   11  A    between atoms: N_19  and  C_20
REMARK   12  A    between atoms: N_19  and  C_21
REMARK   13  A    between atoms: C_25  and  C_26
REMARK                            x       y       z     vdW  Elec       q    Type
REMARK                         _______ _______ _______ _____ _____    ______ ____
ROOT
ATOM      1  N   UNL     1       2.678   3.016  19.677  0.00  0.00    +0.000 NA
ATOM      2  H   UNL     1       3.431   3.209  20.335  0.00  0.00    +0.000 HD
ENDROOT
BRANCH   1   3
ATOM      3  S   UNL     1       3.245   2.434  18.202  0.00  0.00    +0.000 S 
ATOM      4  O   UNL     1       2.186   2.565  17.223  0.00  0.00    +0.000 OA
ATOM      5  O   UNL     1       3.885   1.167  18.474  0.00  0.00    +0.000 OA
BRANCH   3   9
ATOM      6  C   UNL     1       6.521   5.478  17.193  0.00  0.00    +0.000 A 
ATOM      7  C   UNL     1       6.152   5.202  18.524  0.00  0.00    +0.000 A 
ATOM      8  C   UNL     1       5.169   4.270  18.826  0.00  0.00    +0.000 A 
ATOM      9  C   UNL     1       4.514   3.610  17.792  0.00  0.00    +0.000 A 
ATOM     10  C   UNL     1       4.853   3.866  16.459  0.00  0.00    +0.000 A 
ATOM     11  C   UNL     1       5.857   4.804  16.145  0.00  0.00    +0.000 A 
ATOM     12  C   UNL     1       6.167   5.077  14.698  0.00  0.00    +0.000 C 
BRANCH   6  13
ATOM     13  O   UNL     1       7.509   6.378  16.853  0.00  0.00    +0.000 OA
BRANCH  13  15
ATOM     14  C   UNL     1       8.331   8.225  18.210  0.00  0.00    +0.000 C 
ATOM     15  C   UNL     1       7.264   7.731  17.252  0.00  0.00    +0.000 C 
ENDBRANCH  13  15
ENDBRANCH   6  13
ENDBRANCH   3   9
ENDBRANCH   1   3
BRANCH   1  16
ATOM     16  C   UNL     1       1.520   3.908  19.657  0.00  0.00    +0.000 C 
BRANCH  16  17
ATOM     17  C   UNL     1       1.741   5.098  20.587  0.00  0.00    +0.000 C 
BRANCH  17  18
ATOM     18  C   UNL     1       2.644   6.107  19.875  0.00  0.00    +0.000 C 
BRANCH  18  19
ATOM     19  C   UNL     1       2.014   7.434  19.550  0.00  0.00    +0.000 A 
ATOM     20  C   UNL     1       1.417   8.205  20.549  0.00  0.00    +0.000 A 
ATOM     21  C   UNL     1       0.994   9.519  20.290  0.00  0.00    +0.000 A 
ATOM     22  C   UNL     1       1.146  10.119  19.030  0.00  0.00    +0.000 A 
ATOM     23  C   UNL     1       1.666   9.286  18.023  0.00  0.00    +0.000 A 
ATOM     24  C   UNL     1       2.104   7.978  18.272  0.00  0.00    +0.000 A 
BRANCH  22  25
ATOM     25  N   UNL     1       0.755  11.432  18.753  0.00  0.00    +0.000 N 
ATOM     26  C   UNL     1       1.552  12.531  19.314  0.00  0.00    +0.000 C 
ATOM     27  C   UNL     1      -0.663  11.770  18.620  0.00  0.00    +0.000 C 
ENDBRANCH  22  25
ENDBRANCH  18  19
ENDBRANCH  17  18
ENDBRANCH  16  17
ENDBRANCH   1  16
TORSDOF 9
ENDMDL
MODEL 4
REMARK VINA RESULT:      -7.8      1.498      1.795
REMARK  Name = 
REMARK  13 active torsions:
REMARK  status: ('A' for Active; 'I' for Inactive)
REMARK    1  A    between atoms: C_1  and  C_2
REMARK    2  A    between atoms: C_2  and  O_3
REMARK    3  A    between atoms: O_3  and  C_4
REMARK    4  A    between atoms: C_7  and  S_8
REMARK    5  A    between atoms: S_8  and  N_11
REMARK    6  A    between atoms: N_11  and  C_12
REMARK    7  A    between atoms: C_12  and  C_13
REMARK    8  A    between atoms: C_13  and  C_14
REMARK    9  A    between atoms: C_14  and  C_15
REMARK   10  A    between atoms: C_18  and  N_19
REMARK   11  A    between atoms: N_19  and  C_20
REMARK   12  A    between atoms: N_19  and  C_21
REMARK   13  A    between atoms: C_25  and  C_26
REMARK                            x       y       z     vdW  Elec       q    Type
REMARK                         _______ _______ _______ _____ _____    ______ ____
ROOT
ATOM      1  N   UNL     1       7.188   5.743  16.554  0.00  0.00    +0.000 NA
ATOM      2  H   UNL     1       8.043   5.763  15.999  0.00  0.00    +0.000 HD
ENDROOT
BRANCH   1   3
ATOM      3  S   UNL     1       5.807   5.579  15.605  0.00  0.00    +0.000 S 
ATOM      4  O   UNL     1       6.046   4.537  14.628  0.00  0.00    +0.000 OA
ATOM      5  O   UNL     1       5.407   6.914  15.221  0.00  0.00    +0.000 OA
BRANCH   3   9
ATOM      6  C   UNL     1       2.718   4.047  18.628  0.00  0.00    +0.000 A 
ATOM      7  C   UNL     1       2.848   5.418  18.333  0.00  0.00    +0.000 A 
ATOM      8  C   UNL     1       3.775   5.876  17.408  0.00  0.00    +0.000 A 
ATOM      9  C   UNL     1       4.614   4.966  16.774  0.00  0.00    +0.000 A 
ATOM     10  C   UNL     1       4.514   3.598  17.049  0.00  0.00    +0.000 A 
ATOM     11  C   UNL     1       3.568   3.125  17.979  0.00  0.00    +0.000 A 
ATOM     12  C   UNL     1       3.518   1.650  18.274  0.00  0.00    +0.000 C 
BRANCH   6  13
ATOM     13  O   UNL     1       1.794   3.549  19.522  0.00  0.00    +0.000 OA
BRANCH  13  15
ATOM     14  C   UNL     1       1.659   2.652  21.782  0.00  0.00    +0.000 C 
ATOM     15  C   UNL     1       2.077   3.814  20.900  0.00  0.00    +0.000 C 
ENDBRANCH  13  15
ENDBRANCH   6  13
ENDBRANCH   3   9
ENDBRANCH   1   3
BRANCH   1  16
ATOM     16  C   UNL     1       7.104   6.598  17.738  0.00  0.00    +0.000 C 
BRANCH  16  17
ATOM     17  C   UNL     1       7.685   7.979  17.448  0.00  0.00    +0.000 C 
BRANCH  17  18
ATOM     18  C   UNL     1       8.572   8.388  18.625  0.00  0.00    +0.000 C 
BRANCH  18  19
ATOM     19  C   UNL     1       8.846   9.861  18.758  0.00  0.00    +0.000 A 
ATOM     20  C   UNL     1       9.536  10.362  19.863  0.00  0.00    +0.000 A 
ATOM     21  C   UNL     1       9.955  11.702  19.903  0.00  0.00    +0.000 A 
ATOM     22  C   UNL     1       9.706  12.597  18.851  0.00  0.00    +0.000 A 
ATOM     23  C   UNL     1       8.930  12.086  17.794  0.00  0.00    +0.000 A 
ATOM     24  C   UNL     1       8.517  10.747  17.735  0.00  0.00    +0.000 A 
BRANCH  22  25
ATOM     25  N   UNL     1      10.133  13.928  18.856  0.00  0.00    +0.000 N 
ATOM     26  C   UNL     1       9.140  14.980  18.604  0.00  0.00    +0.000 C 
ATOM     27  C   UNL     1      11.468  14.279  18.369  0.00  0.00    +0.000 C 
ENDBRANCH  22  25
ENDBRANCH  18  19
ENDBRANCH  17  18
ENDBRANCH  16  17
ENDBRANCH   1  16
TORSDOF 9
ENDMDL
MODEL 5
REMARK VINA RESULT:      -7.7      1.561      1.972
REMARK  Name = 
REMARK  13 active torsions:
REMARK  status: ('A' for Active; 'I' for Inactive)
REMARK    1  A    between atoms: C_1  and  C_2
REMARK    2  A    between atoms: C_2  and  O_3
REMARK    3  A    between atoms: O_3  and  C_4
REMARK    4  A    between atoms: C_7  and  S_8
REMARK    5  A    between atoms: S_8  and  N_11
REMARK    6  A    between atoms: N_11  and  C_12
REMARK    7  A    between atoms: C_12  and  C_13
REMARK    8  A    between atoms: C_13  and  C_14
REMARK    9  A    between atoms: C_14  and  C_15
REMARK   10  A    between atoms: C_18  and  N_19
REMARK   11  A    between atoms: N_19  and  C_20
REMARK   12  A    between atoms: N_19  and  C_21
REMARK   13  A    between atoms: C_25  and  C_26
REMARK                            x       y       z     vdW  Elec       q    Type
REMARK                         _______ _______ _______ _____ _____    ______ ____
ROOT
ATOM      1  N   UNL     1       7.267   6.449  16.507  0.00  0.00    +0.000 NA
ATOM      2  H   UNL     1       7.406   7.398  16.165  0.00  0.00    +0.000 HD
ENDROOT
BRANCH   1   3
ATOM      3  S   UNL     1       5.879   5.733  15.876  0.00  0.00    +0.000 S 
ATOM      4  O   UNL     1       6.248   4.463  15.286  0.00  0.00    +0.000 OA
ATOM      5  O   UNL     1       5.191   6.757  15.123  0.00  0.00    +0.000 OA
BRANCH   3   9
ATOM      6  C   UNL     1       3.404   4.915  19.648  0.00  0.00    +0.000 A 
ATOM      7  C   UNL     1       3.350   6.154  18.983  0.00  0.00    +0.000 A 
ATOM      8  C   UNL     1       4.091   6.394  17.833  0.00  0.00    +0.000 A 
ATOM      9  C   UNL     1       4.925   5.397  17.340  0.00  0.00    +0.000 A 
ATOM     10  C   UNL     1       5.006   4.157  17.981  0.00  0.00    +0.000 A 
ATOM     11  C   UNL     1       4.249   3.903  19.142  0.00  0.00    +0.000 A 
ATOM     12  C   UNL     1       4.391   2.568  19.823  0.00  0.00    +0.000 C 
BRANCH   6  13
ATOM     13  O   UNL     1       2.666   4.629  20.777  0.00  0.00    +0.000 OA
BRANCH  13  15
ATOM     14  C   UNL     1       1.177   2.784  21.334  0.00  0.00    +0.000 C 
ATOM     15  C   UNL     1       1.377   4.055  20.531  0.00  0.00    +0.000 C 
ENDBRANCH  13  15
ENDBRANCH   6  13
ENDBRANCH   3   9
ENDBRANCH   1   3
BRANCH   1  16
ATOM     16  C   UNL     1       7.617   6.147  17.895  0.00  0.00    +0.000 C 
BRANCH  16  17
ATOM     17  C   UNL     1       8.225   7.371  18.575  0.00  0.00    +0.000 C 
BRANCH  17  18
ATOM     18  C   UNL     1       7.969   8.593  17.691  0.00  0.00    +0.000 C 
BRANCH  18  19
ATOM     19  C   UNL     1       8.506   9.899  18.209  0.00  0.00    +0.000 A 
ATOM     20  C   UNL     1       9.357   9.933  19.315  0.00  0.00    +0.000 A 
ATOM     21  C   UNL     1      10.007  11.120  19.689  0.00  0.00    +0.000 A 
ATOM     22  C   UNL     1       9.838  12.321  18.981  0.00  0.00    +0.000 A 
ATOM     23  C   UNL     1       8.905  12.276  17.929  0.00  0.00    +0.000 A 
ATOM     24  C   UNL     1       8.260  11.094  17.537  0.00  0.00    +0.000 A 
BRANCH  22  25
ATOM     25  N   UNL     1      10.491  13.510  19.317  0.00  0.00    +0.000 N 
ATOM     26  C   UNL     1       9.997  14.275  20.470  0.00  0.00    +0.000 C 
ATOM     27  C   UNL     1      11.062  14.362  18.273  0.00  0.00    +0.000 C 
ENDBRANCH  22  25
ENDBRANCH  18  19
ENDBRANCH  17  18
ENDBRANCH  16  17
ENDBRANCH   1  16
TORSDOF 9
ENDMDL
MODEL 6
REMARK VINA RESULT:      -7.6      1.343      1.574
REMARK  Name = 
REMARK  13 active torsions:
REMARK  status: ('A' for Active; 'I' for Inactive)
REMARK    1  A    between atoms: C_1  and  C_2
REMARK    2  A    between atoms: C_2  and  O_3
REMARK    3  A    between atoms: O_3  and  C_4
REMARK    4  A    between atoms: C_7  and  S_8
REMARK    5  A    between atoms: S_8  and  N_11
REMARK    6  A    between atoms: N_11  and  C_12
REMARK    7  A    between atoms: C_12  and  C_13
REMARK    8  A    between atoms: C_13  and  C_14
REMARK    9  A    between atoms: C_14  and  C_15
REMARK   10  A    between atoms: C_18  and  N_19
REMARK   11  A    between atoms: N_19  and  C_20
REMARK   12  A    between atoms: N_19  and  C_21
REMARK   13  A    between atoms: C_25  and  C_26
REMARK                            x       y       z     vdW  Elec       q    Type
REMARK                         _______ _______ _______ _____ _____    ______ ____
ROOT
ATOM      1  N   UNL     1       6.849   7.051  16.662  0.00  0.00    +0.000 NA
ATOM      2  H   UNL     1       5.987   7.586  16.570  0.00  0.00    +0.000 HD
ENDROOT
BRANCH   1   3
ATOM      3  S   UNL     1       6.644   5.426  16.269  0.00  0.00    +0.000 S 
ATOM      4  O   UNL     1       7.854   4.715  16.627  0.00  0.00    +0.000 OA
ATOM      5  O   UNL     1       6.100   5.389  14.931  0.00  0.00    +0.000 OA
BRANCH   3   9
ATOM      6  C   UNL     1       3.377   4.113  19.205  0.00  0.00    +0.000 A 
ATOM      7  C   UNL     1       4.740   4.096  19.559  0.00  0.00    +0.000 A 
ATOM      8  C   UNL     1       5.725   4.507  18.673  0.00  0.00    +0.000 A 
ATOM      9  C   UNL     1       5.363   4.922  17.395  0.00  0.00    +0.000 A 
ATOM     10  C   UNL     1       4.018   4.945  17.011  0.00  0.00    +0.000 A 
ATOM     11  C   UNL     1       3.012   4.539  17.909  0.00  0.00    +0.000 A 
ATOM     12  C   UNL     1       1.580   4.544  17.445  0.00  0.00    +0.000 C 
BRANCH   6  13
ATOM     13  O   UNL     1       2.366   3.737  20.065  0.00  0.00    +0.000 OA
BRANCH  13  15
ATOM     14  C   UNL     1       1.573   2.391  21.933  0.00  0.00    +0.000 C 
ATOM     15  C   UNL     1       2.769   2.878  21.138  0.00  0.00    +0.000 C 
ENDBRANCH  13  15
ENDBRANCH   6  13
ENDBRANCH   3   9
ENDBRANCH   1   3
BRANCH   1  16
ATOM     16  C   UNL     1       7.762   7.377  17.756  0.00  0.00    +0.000 C 
BRANCH  16  17
ATOM     17  C   UNL     1       7.996   8.883  17.832  0.00  0.00    +0.000 C 
BRANCH  17  18
ATOM     18  C   UNL     1       8.886   9.175  19.042  0.00  0.00    +0.000 C 
BRANCH  18  19
ATOM     19  C   UNL     1       9.524  10.536  19.073  0.00  0.00    +0.000 A 
ATOM     20  C   UNL     1       9.881  11.184  17.890  0.00  0.00    +0.000 A 
ATOM     21  C   UNL     1      10.304  12.523  17.901  0.00  0.00    +0.000 A 
ATOM     22  C   UNL     1      10.389  13.272  19.085  0.00  0.00    +0.000 A 
ATOM     23  C   UNL     1      10.111  12.564  20.269  0.00  0.00    +0.000 A 
ATOM     24  C   UNL     1       9.675  11.231  20.270  0.00  0.00    +0.000 A 
BRANCH  22  25
ATOM     25  N   UNL     1      10.784  14.612  19.120  0.00  0.00    +0.000 N 
ATOM     26  C   UNL     1      12.112  14.963  18.600  0.00  0.00    +0.000 C 
ATOM     27  C   UNL     1      10.357  15.481  20.219  0.00  0.00    +0.000 C 
ENDBRANCH  22  25
ENDBRANCH  18  19
ENDBRANCH  17  18
ENDBRANCH  16  17
ENDBRANCH   1  16
TORSDOF 9
ENDMDL
MODEL 7
REMARK VINA RESULT:      -7.5      5.017      6.336
REMARK  Name = 
REMARK  13 active torsions:
REMARK  status: ('A' for Active; 'I' for Inactive)
REMARK    1  A    between atoms: C_1  and  C_2
REMARK    2  A    between atoms: C_2  and  O_3
REMARK    3  A    between atoms: O_3  and  C_4
REMARK    4  A    between atoms: C_7  and  S_8
REMARK    5  A    between atoms: S_8  and  N_11
REMARK    6  A    between atoms: N_11  and  C_12
REMARK    7  A    between atoms: C_12  and  C_13
REMARK    8  A    between atoms: C_13  and  C_14
REMARK    9  A    between atoms: C_14  and  C_15
REMARK   10  A    between atoms: C_18  and  N_19
REMARK   11  A    between atoms: N_19  and  C_20
REMARK   12  A    between atoms: N_19  and  C_21
REMARK   13  A    between atoms: C_25  and  C_26
REMARK                            x       y       z     vdW  Elec       q    Type
REMARK                         _______ _______ _______ _____ _____    ______ ____
ROOT
ATOM      1  N   UNL     1       6.541   6.368  16.509  0.00  0.00    +0.000 NA
ATOM      2  H   UNL     1       6.396   6.832  15.613  0.00  0.00    +0.000 HD
ENDROOT
BRANCH   1   3
ATOM      3  S   UNL     1       6.853   4.722  16.340  0.00  0.00    +0.000 S 
ATOM      4  O   UNL     1       7.995   4.387  17.164  0.00  0.00    +0.000 OA
ATOM      5  O   UNL     1       6.819   4.438  14.923  0.00  0.00    +0.000 OA
BRANCH   3   9
ATOM      6  C   UNL     1       3.115   2.831  18.204  0.00  0.00    +0.000 A 
ATOM      7  C   UNL     1       3.124   3.297  16.875  0.00  0.00    +0.000 A 
ATOM      8  C   UNL     1       4.261   3.857  16.310  0.00  0.00    +0.000 A 
ATOM      9  C   UNL     1       5.413   3.984  17.079  0.00  0.00    +0.000 A 
ATOM     10  C   UNL     1       5.435   3.536  18.404  0.00  0.00    +0.000 A 
ATOM     11  C   UNL     1       4.287   2.958  18.981  0.00  0.00    +0.000 A 
ATOM     12  C   UNL     1       4.341   2.521  20.420  0.00  0.00    +0.000 C 
BRANCH   6  13
ATOM     13  O   UNL     1       2.014   2.246  18.794  0.00  0.00    +0.000 OA
BRANCH  13  15
ATOM     14  C   UNL     1       0.908   3.847  20.259  0.00  0.00    +0.000 C 
ATOM     15  C   UNL     1       0.875   3.102  18.938  0.00  0.00    +0.000 C 
ENDBRANCH  13  15
ENDBRANCH   6  13
ENDBRANCH   3   9
ENDBRANCH   1   3
BRANCH   1  16
ATOM     16  C   UNL     1       5.739   6.795  17.655  0.00  0.00    +0.000 C 
BRANCH  16  17
ATOM     17  C   UNL     1       4.352   7.245  17.205  0.00  0.00    +0.000 C 
BRANCH  17  18
ATOM     18  C   UNL     1       3.326   6.742  18.222  0.00  0.00    +0.000 C 
BRANCH  18  19
ATOM     19  C   UNL     1       2.297   7.745  18.664  0.00  0.00    +0.000 A 
ATOM     20  C   UNL     1       1.900   7.819  20.000  0.00  0.00    +0.000 A 
ATOM     21  C   UNL     1       1.083   8.868  20.452  0.00  0.00    +0.000 A 
ATOM     22  C   UNL     1       0.627   9.884  19.597  0.00  0.00    +0.000 A 
ATOM     23  C   UNL     1       0.968   9.730  18.240  0.00  0.00    +0.000 A 
ATOM     24  C   UNL     1       1.794   8.695  17.779  0.00  0.00    +0.000 A 
BRANCH  22  25
ATOM     25  N   UNL     1      -0.167  10.951  20.026  0.00  0.00    +0.000 N 
ATOM     26  C   UNL     1      -0.809  11.796  19.010  0.00  0.00    +0.000 C 
ATOM     27  C   UNL     1       0.178  11.688  21.242  0.00  0.00    +0.000 C 
ENDBRANCH  22  25
ENDBRANCH  18  19
ENDBRANCH  17  18
ENDBRANCH  16  17
ENDBRANCH   1  16
TORSDOF 9
ENDMDL
MODEL 8
REMARK VINA RESULT:      -7.5      1.416      1.677
REMARK  Name = 
REMARK  13 active torsions:
REMARK  status: ('A' for Active; 'I' for Inactive)
REMARK    1  A    between atoms: C_1  and  C_2
REMARK    2  A    between atoms: C_2  and  O_3
REMARK    3  A    between atoms: O_3  and  C_4
REMARK    4  A    between atoms: C_7  and  S_8
REMARK    5  A    between atoms: S_8  and  N_11
REMARK    6  A    between atoms: N_11  and  C_12
REMARK    7  A    between atoms: C_12  and  C_13
REMARK    8  A    between atoms: C_13  and  C_14
REMARK    9  A    between atoms: C_14  and  C_15
REMARK   10  A    between atoms: C_18  and  N_19
REMARK   11  A    between atoms: N_19  and  C_20
REMARK   12  A    between atoms: N_19  and  C_21
REMARK   13  A    between atoms: C_25  and  C_26
REMARK                            x       y       z     vdW  Elec       q    Type
REMARK                         _______ _______ _______ _____ _____    ______ ____
ROOT
ATOM      1  N   UNL     1       7.476   6.725  18.243  0.00  0.00    +0.000 NA
ATOM      2  H   UNL     1       8.047   6.411  19.027  0.00  0.00    +0.000 HD
ENDROOT
BRANCH   1   3
ATOM      3  S   UNL     1       7.030   5.460  17.224  0.00  0.00    +0.000 S 
ATOM      4  O   UNL     1       7.875   4.320  17.516  0.00  0.00    +0.000 OA
ATOM      5  O   UNL     1       6.927   6.017  15.894  0.00  0.00    +0.000 OA
BRANCH   3   9
ATOM      6  C   UNL     1       2.794   4.520  18.702  0.00  0.00    +0.000 A 
ATOM      7  C   UNL     1       3.453   5.713  19.057  0.00  0.00    +0.000 A 
ATOM      8  C   UNL     1       4.730   6.000  18.596  0.00  0.00    +0.000 A 
ATOM      9  C   UNL     1       5.387   5.079  17.787  0.00  0.00    +0.000 A 
ATOM     10  C   UNL     1       4.761   3.882  17.421  0.00  0.00    +0.000 A 
ATOM     11  C   UNL     1       3.461   3.589  17.876  0.00  0.00    +0.000 A 
ATOM     12  C   UNL     1       2.837   2.275  17.491  0.00  0.00    +0.000 C 
BRANCH   6  13
ATOM     13  O   UNL     1       1.516   4.209  19.118  0.00  0.00    +0.000 OA
BRANCH  13  15
ATOM     14  C   UNL     1       1.551   2.892  21.166  0.00  0.00    +0.000 C 
ATOM     15  C   UNL     1       1.311   4.250  20.535  0.00  0.00    +0.000 C 
ENDBRANCH  13  15
ENDBRANCH   6  13
ENDBRANCH   3   9
ENDBRANCH   1   3
BRANCH   1  16
ATOM     16  C   UNL     1       7.778   8.018  17.632  0.00  0.00    +0.000 C 
BRANCH  16  17
ATOM     17  C   UNL     1       8.555   8.904  18.601  0.00  0.00    +0.000 C 
BRANCH  17  18
ATOM     18  C   UNL     1       8.816  10.251  17.923  0.00  0.00    +0.000 C 
BRANCH  18  19
ATOM     19  C   UNL     1       9.418  11.317  18.796  0.00  0.00    +0.000 A 
ATOM     20  C   UNL     1       9.910  12.500  18.242  0.00  0.00    +0.000 A 
ATOM     21  C   UNL     1      10.302  13.571  19.061  0.00  0.00    +0.000 A 
ATOM     22  C   UNL     1      10.220  13.512  20.461  0.00  0.00    +0.000 A 
ATOM     23  C   UNL     1       9.807  12.276  20.990  0.00  0.00    +0.000 A 
ATOM     24  C   UNL     1       9.401  11.203  20.184  0.00  0.00    +0.000 A 
BRANCH  22  25
ATOM     25  N   UNL     1      10.581  14.573  21.297  0.00  0.00    +0.000 N 
ATOM     26  C   UNL     1       9.742  14.852  22.470  0.00  0.00    +0.000 C 
ATOM     27  C   UNL     1      11.198  15.778  20.741  0.00  0.00    +0.000 C 
ENDBRANCH  22  25
ENDBRANCH  18  19
ENDBRANCH  17  18
ENDBRANCH  16  17
ENDBRANCH   1  16
TORSDOF 9
ENDMDL
MODEL 9
REMARK VINA RESULT:      -7.4      1.341      1.813
REMARK  Name = 
REMARK  13 active torsions:
REMARK  status: ('A' for Active; 'I' for Inactive)
REMARK    1  A    between atoms: C_1  and  C_2
REMARK    2  A    between atoms: C_2  and  O_3
REMARK    3  A    between atoms: O_3  and  C_4
REMARK    4  A    between atoms: C_7  and  S_8
REMARK    5  A    between atoms: S_8  and  N_11
REMARK    6  A    between atoms: N_11  and  C_12
REMARK    7  A    between atoms: C_12  and  C_13
REMARK    8  A    between atoms: C_13  and  C_14
REMARK    9  A    between atoms: C_14  and  C_15
REMARK   10  A    between atoms: C_18  and  N_19
REMARK   11  A    between atoms: N_19  and  C_20
REMARK   12  A    between atoms: N_19  and  C_21
REMARK   13  A    between atoms: C_25  and  C_26
REMARK                            x       y       z     vdW  Elec       q    Type
REMARK                         _______ _______ _______ _____ _____    ______ ____
ROOT
ATOM      1  N   UNL     1       7.339   7.660  17.033  0.00  0.00    +0.000 NA
ATOM      2  H   UNL     1       6.546   8.240  16.763  0.00  0.00    +0.000 HD
ENDROOT
BRANCH   1   3
ATOM      3  S   UNL     1       7.033   6.016  16.829  0.00  0.00    +0.000 S 
ATOM      4  O   UNL     1       8.051   5.272  17.540  0.00  0.00    +0.000 OA
ATOM      5  O   UNL     1       6.777   5.814  15.421  0.00  0.00    +0.000 OA
BRANCH   3   9
ATOM      6  C   UNL     1       3.088   5.426  19.090  0.00  0.00    +0.000 A 
ATOM      7  C   UNL     1       4.144   4.501  19.191  0.00  0.00    +0.000 A 
ATOM      8  C   UNL     1       5.342   4.689  18.516  0.00  0.00    +0.000 A 
ATOM      9  C   UNL     1       5.496   5.805  17.700  0.00  0.00    +0.000 A 
ATOM     10  C   UNL     1       4.464   6.740  17.573  0.00  0.00    +0.000 A 
ATOM     11  C   UNL     1       3.249   6.560  18.264  0.00  0.00    +0.000 A 
ATOM     12  C   UNL     1       2.150   7.570  18.072  0.00  0.00    +0.000 C 
BRANCH   6  13
ATOM     13  O   UNL     1       1.893   5.288  19.763  0.00  0.00    +0.000 OA
BRANCH  13  15
ATOM     14  C   UNL     1       1.244   3.370  21.116  0.00  0.00    +0.000 C 
ATOM     15  C   UNL     1       1.323   3.975  19.728  0.00  0.00    +0.000 C 
ENDBRANCH  13  15
ENDBRANCH   6  13
ENDBRANCH   3   9
ENDBRANCH   1   3
BRANCH   1  16
ATOM     16  C   UNL     1       8.142   8.065  18.185  0.00  0.00    +0.000 C 
BRANCH  16  17
ATOM     17  C   UNL     1       8.506   9.545  18.095  0.00  0.00    +0.000 C 
BRANCH  17  18
ATOM     18  C   UNL     1       9.203   9.952  19.395  0.00  0.00    +0.000 C 
BRANCH  18  19
ATOM     19  C   UNL     1       9.780  11.340  19.421  0.00  0.00    +0.000 A 
ATOM     20  C   UNL     1       9.642  12.191  18.323  0.00  0.00    +0.000 A 
ATOM     21  C   UNL     1      10.014  13.543  18.408  0.00  0.00    +0.000 A 
ATOM     22  C   UNL     1      10.538  14.103  19.584  0.00  0.00    +0.000 A 
ATOM     23  C   UNL     1      10.749  13.199  20.641  0.00  0.00    +0.000 A 
ATOM     24  C   UNL     1      10.370  11.851  20.574  0.00  0.00    +0.000 A 
BRANCH  22  25
ATOM     25  N   UNL     1      10.893  15.450  19.702  0.00  0.00    +0.000 N 
ATOM     26  C   UNL     1       9.974  16.463  19.168  0.00  0.00    +0.000 C 
ATOM     27  C   UNL     1      12.297  15.855  19.616  0.00  0.00    +0.000 C 
ENDBRANCH  22  25
ENDBRANCH  18  19
ENDBRANCH  17  18
ENDBRANCH  16  17
ENDBRANCH   1  16
TORSDOF 9
ENDMDL
