MODEL 1
REMARK VINA RESULT:      -6.4      0.000      0.000
REMARK  Name = 
REMARK  5 active torsions:
REMARK  status: ('A' for Active; 'I' for Inactive)
REMARK    1  A    between atoms: O_1  and  C_2
REMARK    2  A    between atoms: C_2  and  C_3
REMARK    3  A    between atoms: C_2  and  C_10
REMARK    4  A    between atoms: C_3  and  C_4
REMARK    5  A    between atoms: C_10  and  N_11
REMARK                            x       y       z     vdW  Elec       q    Type
REMARK                         _______ _______ _______ _____ _____    ______ ____
ROOT
ATOM      1  C   UNL     1       3.932   5.914  17.952  0.00  0.00    +0.000 C 
ENDROOT
BRANCH   1   2
ATOM      2  O   UNL     1       4.294   7.191  17.412  0.00  0.00    +0.000 OA
ATOM      3  H   UNL     1       3.605   7.824  17.689  0.00  0.00    +0.000 HD
ENDBRANCH   1   2
BRANCH   1   4
ATOM      4  C   UNL     1       2.413   5.886  18.214  0.00  0.00    +0.000 C 
BRANCH   4   5
ATOM      5  C   UNL     1       2.011   4.811  19.203  0.00  0.00    +0.000 A 
ATOM      6  C   UNL     1       2.431   4.883  20.540  0.00  0.00    +0.000 A 
ATOM      7  C   UNL     1       2.101   3.869  21.441  0.00  0.00    +0.000 A 
ATOM      8  C   UNL     1       1.341   2.781  21.017  0.00  0.00    +0.000 A 
ATOM      9  C   UNL     1       0.911   2.705  19.694  0.00  0.00    +0.000 A 
ATOM     10  C   UNL     1       1.245   3.717  18.789  0.00  0.00    +0.000 A 
ENDBRANCH   4   5
ENDBRANCH   1   4
BRANCH   1  11
ATOM     11  C   UNL     1       4.311   4.834  16.931  0.00  0.00    +0.000 C 
BRANCH  11  12
ATOM     12  N   UNL     1       5.723   4.816  16.614  0.00  0.00    +0.000 N 
ATOM     13  C   UNL     1       6.756   4.559  17.460  0.00  0.00    +0.000 A 
ATOM     14  N   UNL     1       7.884   4.557  16.785  0.00  0.00    +0.000 NA
ATOM     15  N   UNL     1       7.580   4.820  15.466  0.00  0.00    +0.000 NA
ATOM     16  C   UNL     1       6.279   4.978  15.382  0.00  0.00    +0.000 A 
ENDBRANCH  11  12
ENDBRANCH   1  11
TORSDOF 5
ENDMDL
MODEL 2
REMARK VINA RESULT:      -6.4      0.726      1.199
REMARK  Name = 
REMARK  5 active torsions:
REMARK  status: ('A' for Active; 'I' for Inactive)
REMARK    1  A    between atoms: O_1  and  C_2
REMARK    2  A    between atoms: C_2  and  C_3
REMARK    3  A    between atoms: C_2  and  C_10
REMARK    4  A    between atoms: C_3  and  C_4
REMARK    5  A    between atoms: C_10  and  N_11
REMARK                            x       y       z     vdW  Elec       q    Type
REMARK                         _______ _______ _______ _____ _____    ______ ____
ROOT
ATOM      1  C   UNL     1       3.831   6.081  17.940  0.00  0.00    +0.000 C 
ENDROOT
BRANCH   1   2
ATOM      2  O   UNL     1       3.964   7.465  17.594  0.00  0.00    +0.000 OA
ATOM      3  H   UNL     1       4.675   7.832  18.153  0.00  0.00    +0.000 HD
ENDBRANCH   1   2
BRANCH   1   4
ATOM      4  C   UNL     1       2.336   5.705  17.964  0.00  0.00    +0.000 C 
BRANCH   4   5
ATOM      5  C   UNL     1       2.009   4.676  19.027  0.00  0.00    +0.000 A 
ATOM      6  C   UNL     1       2.283   4.940  20.377  0.00  0.00    +0.000 A 
ATOM      7  C   UNL     1       2.026   3.975  21.353  0.00  0.00    +0.000 A 
ATOM      8  C   UNL     1       1.486   2.743  20.989  0.00  0.00    +0.000 A 
ATOM      9  C   UNL     1       1.201   2.476  19.651  0.00  0.00    +0.000 A 
ATOM     10  C   UNL     1       1.462   3.439  18.673  0.00  0.00    +0.000 A 
ENDBRANCH   4   5
ENDBRANCH   1   4
BRANCH   1  11
ATOM     11  C   UNL     1       4.568   5.247  16.884  0.00  0.00    +0.000 C 
BRANCH  11  12
ATOM     12  N   UNL     1       5.919   4.901  17.268  0.00  0.00    +0.000 N 
ATOM     13  C   UNL     1       6.918   4.454  16.462  0.00  0.00    +0.000 A 
ATOM     14  N   UNL     1       8.022   4.324  17.164  0.00  0.00    +0.000 NA
ATOM     15  N   UNL     1       7.736   4.695  18.461  0.00  0.00    +0.000 NA
ATOM     16  C   UNL     1       6.468   5.032  18.507  0.00  0.00    +0.000 A 
ENDBRANCH  11  12
ENDBRANCH   1  11
TORSDOF 5
ENDMDL
MODEL 3
REMARK VINA RESULT:      -6.2      1.018      1.908
REMARK  Name = 
REMARK  5 active torsions:
REMARK  status: ('A' for Active; 'I' for Inactive)
REMARK    1  A    between atoms: O_1  and  C_2
REMARK    2  A    between atoms: C_2  and  C_3
REMARK    3  A    between atoms: C_2  and  C_10
REMARK    4  A    between atoms: C_3  and  C_4
REMARK    5  A    between atoms: C_10  and  N_11
REMARK                            x       y       z     vdW  Elec       q    Type
REMARK                         _______ _______ _______ _____ _____    ______ ____
ROOT
ATOM      1  C   UNL     1       3.603   6.544  18.134  0.00  0.00    +0.000 C 
ENDROOT
BRANCH   1   2
ATOM      2  O   UNL     1       3.025   7.854  18.167  0.00  0.00    +0.000 OA
ATOM      3  H   UNL     1       2.258   7.813  18.769  0.00  0.00    +0.000 HD
ENDBRANCH   1   2
BRANCH   1   4
ATOM      4  C   UNL     1       2.515   5.517  17.766  0.00  0.00    +0.000 C 
BRANCH   4   5
ATOM      5  C   UNL     1       2.125   4.635  18.934  0.00  0.00    +0.000 A 
ATOM      6  C   UNL     1       1.296   3.520  18.736  0.00  0.00    +0.000 A 
ATOM      7  C   UNL     1       0.898   2.733  19.818  0.00  0.00    +0.000 A 
ATOM      8  C   UNL     1       1.332   3.047  21.105  0.00  0.00    +0.000 A 
ATOM      9  C   UNL     1       2.164   4.147  21.310  0.00  0.00    +0.000 A 
ATOM     10  C   UNL     1       2.559   4.938  20.228  0.00  0.00    +0.000 A 
ENDBRANCH   4   5
ENDBRANCH   1   4
BRANCH   1  11
ATOM     11  C   UNL     1       4.716   6.536  17.077  0.00  0.00    +0.000 C 
BRANCH  11  12
ATOM     12  N   UNL     1       5.851   5.718  17.447  0.00  0.00    +0.000 N 
ATOM     13  C   UNL     1       6.817   5.226  16.626  0.00  0.00    +0.000 A 
ATOM     14  N   UNL     1       7.721   4.597  17.343  0.00  0.00    +0.000 NA
ATOM     15  N   UNL     1       7.336   4.680  18.665  0.00  0.00    +0.000 NA
ATOM     16  C   UNL     1       6.209   5.352  18.708  0.00  0.00    +0.000 A 
ENDBRANCH  11  12
ENDBRANCH   1  11
TORSDOF 5
ENDMDL
MODEL 4
REMARK VINA RESULT:      -6.2      1.596      1.743
REMARK  Name = 
REMARK  5 active torsions:
REMARK  status: ('A' for Active; 'I' for Inactive)
REMARK    1  A    between atoms: O_1  and  C_2
REMARK    2  A    between atoms: C_2  and  C_3
REMARK    3  A    between atoms: C_2  and  C_10
REMARK    4  A    between atoms: C_3  and  C_4
REMARK    5  A    between atoms: C_10  and  N_11
REMARK                            x       y       z     vdW  Elec       q    Type
REMARK                         _______ _______ _______ _____ _____    ______ ____
ROOT
ATOM      1  C   UNL     1       3.431   6.537  18.087  0.00  0.00    +0.000 C 
ENDROOT
BRANCH   1   2
ATOM      2  O   UNL     1       3.146   7.856  17.606  0.00  0.00    +0.000 OA
ATOM      3  H   UNL     1       2.352   7.789  17.041  0.00  0.00    +0.000 HD
ENDBRANCH   1   2
BRANCH   1   4
ATOM      4  C   UNL     1       2.219   5.624  17.815  0.00  0.00    +0.000 C 
BRANCH   4   5
ATOM      5  C   UNL     1       1.936   4.672  18.959  0.00  0.00    +0.000 A 
ATOM      6  C   UNL     1       2.318   5.003  20.269  0.00  0.00    +0.000 A 
ATOM      7  C   UNL     1       2.101   4.107  21.317  0.00  0.00    +0.000 A 
ATOM      8  C   UNL     1       1.493   2.878  21.068  0.00  0.00    +0.000 A 
ATOM      9  C   UNL     1       1.101   2.545  19.773  0.00  0.00    +0.000 A 
ATOM     10  C   UNL     1       1.322   3.439  18.721  0.00  0.00    +0.000 A 
ENDBRANCH   4   5
ENDBRANCH   1   4
BRANCH   1  11
ATOM     11  C   UNL     1       4.665   6.009  17.344  0.00  0.00    +0.000 C 
BRANCH  11  12
ATOM     12  N   UNL     1       5.844   5.928  18.179  0.00  0.00    +0.000 N 
ATOM     13  C   UNL     1       5.981   5.251  19.350  0.00  0.00    +0.000 A 
ATOM     14  N   UNL     1       7.222   5.350  19.771  0.00  0.00    +0.000 NA
ATOM     15  N   UNL     1       7.913   6.110  18.851  0.00  0.00    +0.000 NA
ATOM     16  C   UNL     1       7.070   6.452  17.905  0.00  0.00    +0.000 A 
ENDBRANCH  11  12
ENDBRANCH   1  11
TORSDOF 5
ENDMDL
MODEL 5
REMARK VINA RESULT:      -6.1      1.583      2.012
REMARK  Name = 
REMARK  5 active torsions:
REMARK  status: ('A' for Active; 'I' for Inactive)
REMARK    1  A    between atoms: O_1  and  C_2
REMARK    2  A    between atoms: C_2  and  C_3
REMARK    3  A    between atoms: C_2  and  C_10
REMARK    4  A    between atoms: C_3  and  C_4
REMARK    5  A    between atoms: C_10  and  N_11
REMARK                            x       y       z     vdW  Elec       q    Type
REMARK                         _______ _______ _______ _____ _____    ______ ____
ROOT
ATOM      1  C   UNL     1       4.148   3.730  16.991  0.00  0.00    +0.000 C 
ENDROOT
BRANCH   1   2
ATOM      2  O   UNL     1       4.897   3.249  18.114  0.00  0.00    +0.000 OA
ATOM      3  H   UNL     1       4.902   2.274  18.057  0.00  0.00    +0.000 HD
ENDBRANCH   1   2
BRANCH   1   4
ATOM      4  C   UNL     1       2.661   3.372  17.181  0.00  0.00    +0.000 C 
BRANCH   4   5
ATOM      5  C   UNL     1       2.229   3.423  18.632  0.00  0.00    +0.000 A 
ATOM      6  C   UNL     1       2.149   2.245  19.391  0.00  0.00    +0.000 A 
ATOM      7  C   UNL     1       1.706   2.283  20.714  0.00  0.00    +0.000 A 
ATOM      8  C   UNL     1       1.348   3.499  21.293  0.00  0.00    +0.000 A 
ATOM      9  C   UNL     1       1.434   4.676  20.551  0.00  0.00    +0.000 A 
ATOM     10  C   UNL     1       1.873   4.638  19.225  0.00  0.00    +0.000 A 
ENDBRANCH   4   5
ENDBRANCH   1   4
BRANCH   1  11
ATOM     11  C   UNL     1       4.318   5.254  16.917  0.00  0.00    +0.000 C 
BRANCH  11  12
ATOM     12  N   UNL     1       5.642   5.662  16.499  0.00  0.00    +0.000 N 
ATOM     13  C   UNL     1       6.459   6.561  17.109  0.00  0.00    +0.000 A 
ATOM     14  N   UNL     1       7.611   6.605  16.477  0.00  0.00    +0.000 NA
ATOM     15  N   UNL     1       7.544   5.713  15.428  0.00  0.00    +0.000 NA
ATOM     16  C   UNL     1       6.354   5.159  15.454  0.00  0.00    +0.000 A 
ENDBRANCH  11  12
ENDBRANCH   1  11
TORSDOF 5
ENDMDL
MODEL 6
REMARK VINA RESULT:      -6.1      1.014      1.876
REMARK  Name = 
REMARK  5 active torsions:
REMARK  status: ('A' for Active; 'I' for Inactive)
REMARK    1  A    between atoms: O_1  and  C_2
REMARK    2  A    between atoms: C_2  and  C_3
REMARK    3  A    between atoms: C_2  and  C_10
REMARK    4  A    between atoms: C_3  and  C_4
REMARK    5  A    between atoms: C_10  and  N_11
REMARK                            x       y       z     vdW  Elec       q    Type
REMARK                         _______ _______ _______ _____ _____    ______ ____
ROOT
ATOM      1  C   UNL     1       3.595   5.284  17.381  0.00  0.00    +0.000 C 
ENDROOT
BRANCH   1   2
ATOM      2  O   UNL     1       3.668   3.854  17.367  0.00  0.00    +0.000 OA
ATOM      3  H   UNL     1       4.267   3.606  16.637  0.00  0.00    +0.000 HD
ENDBRANCH   1   2
BRANCH   1   4
ATOM      4  C   UNL     1       2.430   5.724  18.290  0.00  0.00    +0.000 C 
BRANCH   4   5
ATOM      5  C   UNL     1       2.066   4.676  19.322  0.00  0.00    +0.000 A 
ATOM      6  C   UNL     1       1.156   3.656  19.006  0.00  0.00    +0.000 A 
ATOM      7  C   UNL     1       0.783   2.717  19.969  0.00  0.00    +0.000 A 
ATOM      8  C   UNL     1       1.324   2.783  21.252  0.00  0.00    +0.000 A 
ATOM      9  C   UNL     1       2.237   3.786  21.572  0.00  0.00    +0.000 A 
ATOM     10  C   UNL     1       2.607   4.730  20.610  0.00  0.00    +0.000 A 
ENDBRANCH   4   5
ENDBRANCH   1   4
BRANCH   1  11
ATOM     11  C   UNL     1       4.923   5.829  17.924  0.00  0.00    +0.000 C 
BRANCH  11  12
ATOM     12  N   UNL     1       6.082   5.283  17.253  0.00  0.00    +0.000 N 
ATOM     13  C   UNL     1       6.411   5.408  15.939  0.00  0.00    +0.000 A 
ATOM     14  N   UNL     1       7.578   4.841  15.724  0.00  0.00    +0.000 NA
ATOM     15  N   UNL     1       8.021   4.334  16.927  0.00  0.00    +0.000 NA
ATOM     16  C   UNL     1       7.109   4.604  17.832  0.00  0.00    +0.000 A 
ENDBRANCH  11  12
ENDBRANCH   1  11
TORSDOF 5
ENDMDL
MODEL 7
REMARK VINA RESULT:      -6.1      1.694      2.211
REMARK  Name = 
REMARK  5 active torsions:
REMARK  status: ('A' for Active; 'I' for Inactive)
REMARK    1  A    between atoms: O_1  and  C_2
REMARK    2  A    between atoms: C_2  and  C_3
REMARK    3  A    between atoms: C_2  and  C_10
REMARK    4  A    between atoms: C_3  and  C_4
REMARK    5  A    between atoms: C_10  and  N_11
REMARK                            x       y       z     vdW  Elec       q    Type
REMARK                         _______ _______ _______ _____ _____    ______ ____
ROOT
ATOM      1  C   UNL     1       4.437   3.528  17.204  0.00  0.00    +0.000 C 
ENDROOT
BRANCH   1   2
ATOM      2  O   UNL     1       4.270   2.197  17.706  0.00  0.00    +0.000 OA
ATOM      3  H   UNL     1       4.553   1.587  16.999  0.00  0.00    +0.000 HD
ENDBRANCH   1   2
BRANCH   1   4
ATOM      4  C   UNL     1       3.146   4.331  17.453  0.00  0.00    +0.000 C 
BRANCH   4   5
ATOM      5  C   UNL     1       2.455   3.942  18.744  0.00  0.00    +0.000 A 
ATOM      6  C   UNL     1       1.383   3.036  18.730  0.00  0.00    +0.000 A 
ATOM      7  C   UNL     1       0.715   2.712  19.912  0.00  0.00    +0.000 A 
ATOM      8  C   UNL     1       1.118   3.281  21.118  0.00  0.00    +0.000 A 
ATOM      9  C   UNL     1       2.188   4.174  21.143  0.00  0.00    +0.000 A 
ATOM     10  C   UNL     1       2.855   4.503  19.960  0.00  0.00    +0.000 A 
ENDBRANCH   4   5
ENDBRANCH   1   4
BRANCH   1  11
ATOM     11  C   UNL     1       5.614   4.178  17.945  0.00  0.00    +0.000 C 
BRANCH  11  12
ATOM     12  N   UNL     1       6.407   5.049  17.106  0.00  0.00    +0.000 N 
ATOM     13  C   UNL     1       6.970   6.238  17.450  0.00  0.00    +0.000 A 
ATOM     14  N   UNL     1       7.681   6.694  16.442  0.00  0.00    +0.000 NA
ATOM     15  N   UNL     1       7.579   5.780  15.415  0.00  0.00    +0.000 NA
ATOM     16  C   UNL     1       6.807   4.802  15.829  0.00  0.00    +0.000 A 
ENDBRANCH  11  12
ENDBRANCH   1  11
TORSDOF 5
ENDMDL
MODEL 8
REMARK VINA RESULT:      -6.0      1.268      1.677
REMARK  Name = 
REMARK  5 active torsions:
REMARK  status: ('A' for Active; 'I' for Inactive)
REMARK    1  A    between atoms: O_1  and  C_2
REMARK    2  A    between atoms: C_2  and  C_3
REMARK    3  A    between atoms: C_2  and  C_10
REMARK    4  A    between atoms: C_3  and  C_4
REMARK    5  A    between atoms: C_10  and  N_11
REMARK                            x       y       z     vdW  Elec       q    Type
REMARK                         _______ _______ _______ _____ _____    ______ ____
ROOT
ATOM      1  C   UNL     1       3.986   6.393  17.913  0.00  0.00    +0.000 C 
ENDROOT
BRANCH   1   2
ATOM      2  O   UNL     1       3.085   7.486  17.701  0.00  0.00    +0.000 OA
ATOM      3  H   UNL     1       2.266   7.281  18.191  0.00  0.00    +0.000 HD
ENDBRANCH   1   2
BRANCH   1   4
ATOM      4  C   UNL     1       3.254   5.068  17.627  0.00  0.00    +0.000 C 
BRANCH   4   5
ATOM      5  C   UNL     1       2.796   4.369  18.890  0.00  0.00    +0.000 A 
ATOM      6  C   UNL     1       3.566   3.337  19.449  0.00  0.00    +0.000 A 
ATOM      7  C   UNL     1       3.124   2.660  20.587  0.00  0.00    +0.000 A 
ATOM      8  C   UNL     1       1.914   3.013  21.180  0.00  0.00    +0.000 A 
ATOM      9  C   UNL     1       1.147   4.043  20.639  0.00  0.00    +0.000 A 
ATOM     10  C   UNL     1       1.586   4.718  19.497  0.00  0.00    +0.000 A 
ENDBRANCH   4   5
ENDBRANCH   1   4
BRANCH   1  11
ATOM     11  C   UNL     1       5.175   6.557  16.956  0.00  0.00    +0.000 C 
BRANCH  11  12
ATOM     12  N   UNL     1       6.265   5.648  17.237  0.00  0.00    +0.000 N 
ATOM     13  C   UNL     1       6.994   4.931  16.341  0.00  0.00    +0.000 A 
ATOM     14  N   UNL     1       7.947   4.282  16.972  0.00  0.00    +0.000 NA
ATOM     15  N   UNL     1       7.838   4.583  18.313  0.00  0.00    +0.000 NA
ATOM     16  C   UNL     1       6.820   5.400  18.455  0.00  0.00    +0.000 A 
ENDBRANCH  11  12
ENDBRANCH   1  11
TORSDOF 5
ENDMDL
MODEL 9
REMARK VINA RESULT:      -6.0      1.823      2.244
REMARK  Name = 
REMARK  5 active torsions:
REMARK  status: ('A' for Active; 'I' for Inactive)
REMARK    1  A    between atoms: O_1  and  C_2
REMARK    2  A    between atoms: C_2  and  C_3
REMARK    3  A    between atoms: C_2  and  C_10
REMARK    4  A    between atoms: C_3  and  C_4
REMARK    5  A    between atoms: C_10  and  N_11
REMARK                            x       y       z     vdW  Elec       q    Type
REMARK                         _______ _______ _______ _____ _____    ______ ____
ROOT
ATOM      1  C   UNL     1       4.260   3.609  16.920  0.00  0.00    +0.000 C 
ENDROOT
BRANCH   1   2
ATOM      2  O   UNL     1       4.679   2.854  18.063  0.00  0.00    +0.000 OA
ATOM      3  H   UNL     1       4.394   1.932  17.916  0.00  0.00    +0.000 HD
ENDBRANCH   1   2
BRANCH   1   4
ATOM      4  C   UNL     1       2.724   3.735  16.929  0.00  0.00    +0.000 C 
BRANCH   4   5
ATOM      5  C   UNL     1       2.148   3.754  18.330  0.00  0.00    +0.000 A 
ATOM      6  C   UNL     1       2.184   4.928  19.097  0.00  0.00    +0.000 A 
ATOM      7  C   UNL     1       1.696   4.935  20.405  0.00  0.00    +0.000 A 
ATOM      8  C   UNL     1       1.160   3.772  20.954  0.00  0.00    +0.000 A 
ATOM      9  C   UNL     1       1.111   2.603  20.197  0.00  0.00    +0.000 A 
ATOM     10  C   UNL     1       1.603   2.593  18.889  0.00  0.00    +0.000 A 
ENDBRANCH   4   5
ENDBRANCH   1   4
BRANCH   1  11
ATOM     11  C   UNL     1       4.904   5.000  17.000  0.00  0.00    +0.000 C 
BRANCH  11  12
ATOM     12  N   UNL     1       6.013   5.065  17.927  0.00  0.00    +0.000 N 
ATOM     13  C   UNL     1       5.968   5.399  19.245  0.00  0.00    +0.000 A 
ATOM     14  N   UNL     1       7.166   5.266  19.770  0.00  0.00    +0.000 NA
ATOM     15  N   UNL     1       8.013   4.836  18.771  0.00  0.00    +0.000 NA
ATOM     16  C   UNL     1       7.305   4.725  17.671  0.00  0.00    +0.000 A 
ENDBRANCH  11  12
ENDBRANCH   1  11
TORSDOF 5
ENDMDL
