MODEL 1
REMARK VINA RESULT:      -6.8      0.000      0.000
REMARK  Name = 
REMARK  10 active torsions:
REMARK  status: ('A' for Active; 'I' for Inactive)
REMARK    1  A    between atoms: C_1  and  C_2
REMARK    2  A    between atoms: C_2  and  C_3
REMARK    3  A    between atoms: C_3  and  C_4
REMARK    4  A    between atoms: C_4  and  C_5
REMARK    5  A    between atoms: C_5  and  O_7
REMARK    6  A    between atoms: O_7  and  C_8
REMARK    7  A    between atoms: C_8  and  C_9
REMARK    8  A    between atoms: N_11  and  C_12
REMARK    9  A    between atoms: C_15  and  S_16
REMARK   10  A    between atoms: S_16  and  C_17
REMARK                            x       y       z     vdW  Elec       q    Type
REMARK                         _______ _______ _______ _____ _____    ______ ____
ROOT
ATOM      1  C   UNL     1       6.058   4.769  15.451  0.00  0.00    +0.000 C 
ATOM      2  O   UNL     1       5.708   5.947  15.408  0.00  0.00    +0.000 OA
ATOM      3  N   UNL     1       5.643   3.834  16.393  0.00  0.00    +0.000 N 
ATOM      4  H   UNL     1       6.125   2.945  16.415  0.00  0.00    +0.000 HD
ENDROOT
BRANCH   3   5
ATOM      5  C   UNL     1       4.648   4.035  17.378  0.00  0.00    +0.000 A 
ATOM      6  C   UNL     1       4.938   4.406  18.693  0.00  0.00    +0.000 A 
ATOM      7  C   UNL     1       3.919   4.573  19.636  0.00  0.00    +0.000 A 
ATOM      8  C   UNL     1       2.585   4.383  19.279  0.00  0.00    +0.000 A 
ATOM      9  C   UNL     1       2.284   4.025  17.963  0.00  0.00    +0.000 A 
ATOM     10  C   UNL     1       3.307   3.865  17.015  0.00  0.00    +0.000 A 
BRANCH   8  11
ATOM     11  S   UNL     1       1.330   4.518  20.536  0.00  0.00    +0.000 S 
BRANCH  11  12
ATOM     12  C   UNL     1       1.411   2.860  21.243  0.00  0.00    +0.000 C 
ATOM     13  F   UNL     1       1.555   1.928  20.266  0.00  0.00    +0.000 F 
ATOM     14  F   UNL     1       2.513   2.755  22.033  0.00  0.00    +0.000 F 
ENDBRANCH  11  12
ENDBRANCH   8  11
ENDBRANCH   3   5
BRANCH   1  15
ATOM     15  C   UNL     1       7.066   4.219  14.433  0.00  0.00    +0.000 C 
BRANCH  15  16
ATOM     16  O   UNL     1       6.712   4.587  13.095  0.00  0.00    +0.000 OA
BRANCH  16  17
ATOM     17  C   UNL     1       6.387   3.523  12.306  0.00  0.00    +0.000 C 
ATOM     18  O   UNL     1       7.206   2.788  11.771  0.00  0.00    +0.000 OA
BRANCH  17  19
ATOM     19  C   UNL     1       4.887   3.411  12.162  0.00  0.00    +0.000 C 
BRANCH  19  20
ATOM     20  C   UNL     1       4.454   3.089  10.730  0.00  0.00    +0.000 C 
BRANCH  20  22
ATOM     21  C   UNL     1       2.780   4.419   9.389  0.00  0.00    +0.000 C 
ATOM     22  C   UNL     1       2.971   3.376  10.479  0.00  0.00    +0.000 C 
ENDBRANCH  20  22
ENDBRANCH  19  20
ENDBRANCH  17  19
ENDBRANCH  16  17
ENDBRANCH  15  16
ENDBRANCH   1  15
TORSDOF 9
ENDMDL
MODEL 2
REMARK VINA RESULT:      -6.6      1.852      2.201
REMARK  Name = 
REMARK  10 active torsions:
REMARK  status: ('A' for Active; 'I' for Inactive)
REMARK    1  A    between atoms: C_1  and  C_2
REMARK    2  A    between atoms: C_2  and  C_3
REMARK    3  A    between atoms: C_3  and  C_4
REMARK    4  A    between atoms: C_4  and  C_5
REMARK    5  A    between atoms: C_5  and  O_7
REMARK    6  A    between atoms: O_7  and  C_8
REMARK    7  A    between atoms: C_8  and  C_9
REMARK    8  A    between atoms: N_11  and  C_12
REMARK    9  A    between atoms: C_15  and  S_16
REMARK   10  A    between atoms: S_16  and  C_17
REMARK                            x       y       z     vdW  Elec       q    Type
REMARK                         _______ _______ _______ _____ _____    ______ ____
ROOT
ATOM      1  C   UNL     1       6.329   4.902  16.480  0.00  0.00    +0.000 C 
ATOM      2  O   UNL     1       6.845   4.532  17.533  0.00  0.00    +0.000 OA
ATOM      3  N   UNL     1       4.966   4.901  16.201  0.00  0.00    +0.000 N 
ATOM      4  H   UNL     1       4.683   5.078  15.246  0.00  0.00    +0.000 HD
ENDROOT
BRANCH   3   5
ATOM      5  C   UNL     1       3.932   4.607  17.120  0.00  0.00    +0.000 A 
ATOM      6  C   UNL     1       3.345   5.569  17.945  0.00  0.00    +0.000 A 
ATOM      7  C   UNL     1       2.338   5.223  18.851  0.00  0.00    +0.000 A 
ATOM      8  C   UNL     1       1.888   3.906  18.943  0.00  0.00    +0.000 A 
ATOM      9  C   UNL     1       2.459   2.939  18.113  0.00  0.00    +0.000 A 
ATOM     10  C   UNL     1       3.465   3.289  17.198  0.00  0.00    +0.000 A 
BRANCH   8  11
ATOM     11  S   UNL     1       0.669   3.497  20.176  0.00  0.00    +0.000 S 
BRANCH  11  12
ATOM     12  C   UNL     1       1.738   2.841  21.473  0.00  0.00    +0.000 C 
ATOM     13  F   UNL     1       2.453   3.837  22.055  0.00  0.00    +0.000 F 
ATOM     14  F   UNL     1       0.977   2.293  22.458  0.00  0.00    +0.000 F 
ENDBRANCH  11  12
ENDBRANCH   8  11
ENDBRANCH   3   5
BRANCH   1  15
ATOM     15  C   UNL     1       7.200   5.385  15.313  0.00  0.00    +0.000 C 
BRANCH  15  16
ATOM     16  O   UNL     1       7.263   4.409  14.268  0.00  0.00    +0.000 OA
BRANCH  16  17
ATOM     17  C   UNL     1       7.639   4.924  13.063  0.00  0.00    +0.000 C 
ATOM     18  O   UNL     1       8.330   5.926  12.928  0.00  0.00    +0.000 OA
BRANCH  17  19
ATOM     19  C   UNL     1       7.056   4.107  11.934  0.00  0.00    +0.000 C 
BRANCH  19  20
ATOM     20  C   UNL     1       5.791   3.351  12.346  0.00  0.00    +0.000 C 
BRANCH  20  22
ATOM     21  C   UNL     1       6.891   1.523  10.998  0.00  0.00    +0.000 C 
ATOM     22  C   UNL     1       5.578   2.065  11.542  0.00  0.00    +0.000 C 
ENDBRANCH  20  22
ENDBRANCH  19  20
ENDBRANCH  17  19
ENDBRANCH  16  17
ENDBRANCH  15  16
ENDBRANCH   1  15
TORSDOF 9
ENDMDL
MODEL 3
REMARK VINA RESULT:      -6.5      4.890      7.720
REMARK  Name = 
REMARK  10 active torsions:
REMARK  status: ('A' for Active; 'I' for Inactive)
REMARK    1  A    between atoms: C_1  and  C_2
REMARK    2  A    between atoms: C_2  and  C_3
REMARK    3  A    between atoms: C_3  and  C_4
REMARK    4  A    between atoms: C_4  and  C_5
REMARK    5  A    between atoms: C_5  and  O_7
REMARK    6  A    between atoms: O_7  and  C_8
REMARK    7  A    between atoms: C_8  and  C_9
REMARK    8  A    between atoms: N_11  and  C_12
REMARK    9  A    between atoms: C_15  and  S_16
REMARK   10  A    between atoms: S_16  and  C_17
REMARK                            x       y       z     vdW  Elec       q    Type
REMARK                         _______ _______ _______ _____ _____    ______ ____
ROOT
ATOM      1  C   UNL     1       3.491   5.482  19.418  0.00  0.00    +0.000 C 
ATOM      2  O   UNL     1       4.611   5.417  19.923  0.00  0.00    +0.000 OA
ATOM      3  N   UNL     1       3.217   5.503  18.055  0.00  0.00    +0.000 N 
ATOM      4  H   UNL     1       2.270   5.719  17.771  0.00  0.00    +0.000 HD
ENDROOT
BRANCH   3   5
ATOM      5  C   UNL     1       4.159   5.319  17.016  0.00  0.00    +0.000 A 
ATOM      6  C   UNL     1       4.584   4.061  16.584  0.00  0.00    +0.000 A 
ATOM      7  C   UNL     1       5.533   3.932  15.565  0.00  0.00    +0.000 A 
ATOM      8  C   UNL     1       6.070   5.062  14.948  0.00  0.00    +0.000 A 
ATOM      9  C   UNL     1       5.640   6.324  15.364  0.00  0.00    +0.000 A 
ATOM     10  C   UNL     1       4.682   6.452  16.382  0.00  0.00    +0.000 A 
BRANCH   8  11
ATOM     11  S   UNL     1       7.342   4.849  13.720  0.00  0.00    +0.000 S 
BRANCH  11  12
ATOM     12  C   UNL     1       6.586   3.569  12.699  0.00  0.00    +0.000 C 
ATOM     13  F   UNL     1       5.306   3.898  12.387  0.00  0.00    +0.000 F 
ATOM     14  F   UNL     1       7.252   3.474  11.518  0.00  0.00    +0.000 F 
ENDBRANCH  11  12
ENDBRANCH   8  11
ENDBRANCH   3   5
BRANCH   1  15
ATOM     15  C   UNL     1       2.243   5.587  20.304  0.00  0.00    +0.000 C 
BRANCH  15  16
ATOM     16  O   UNL     1       2.403   4.852  21.522  0.00  0.00    +0.000 OA
BRANCH  16  17
ATOM     17  C   UNL     1       2.058   3.537  21.415  0.00  0.00    +0.000 C 
ATOM     18  O   UNL     1       2.623   2.627  22.008  0.00  0.00    +0.000 OA
BRANCH  17  19
ATOM     19  C   UNL     1       0.915   3.368  20.442  0.00  0.00    +0.000 C 
BRANCH  19  20
ATOM     20  C   UNL     1       1.031   2.088  19.612  0.00  0.00    +0.000 C 
BRANCH  20  22
ATOM     21  C   UNL     1       3.254   1.588  18.527  0.00  0.00    +0.000 C 
ATOM     22  C   UNL     1       1.902   2.265  18.364  0.00  0.00    +0.000 C 
ENDBRANCH  20  22
ENDBRANCH  19  20
ENDBRANCH  17  19
ENDBRANCH  16  17
ENDBRANCH  15  16
ENDBRANCH   1  15
TORSDOF 9
ENDMDL
MODEL 4
REMARK VINA RESULT:      -6.4      5.400      6.924
REMARK  Name = 
REMARK  10 active torsions:
REMARK  status: ('A' for Active; 'I' for Inactive)
REMARK    1  A    between atoms: C_1  and  C_2
REMARK    2  A    between atoms: C_2  and  C_3
REMARK    3  A    between atoms: C_3  and  C_4
REMARK    4  A    between atoms: C_4  and  C_5
REMARK    5  A    between atoms: C_5  and  O_7
REMARK    6  A    between atoms: O_7  and  C_8
REMARK    7  A    between atoms: C_8  and  C_9
REMARK    8  A    between atoms: N_11  and  C_12
REMARK    9  A    between atoms: C_15  and  S_16
REMARK   10  A    between atoms: S_16  and  C_17
REMARK                            x       y       z     vdW  Elec       q    Type
REMARK                         _______ _______ _______ _____ _____    ______ ____
ROOT
ATOM      1  C   UNL     1       4.248   5.303  18.789  0.00  0.00    +0.000 C 
ATOM      2  O   UNL     1       5.081   6.054  18.283  0.00  0.00    +0.000 OA
ATOM      3  N   UNL     1       3.018   5.691  19.309  0.00  0.00    +0.000 N 
ATOM      4  H   UNL     1       2.496   5.004  19.838  0.00  0.00    +0.000 HD
ENDROOT
BRANCH   3   5
ATOM      5  C   UNL     1       2.453   6.985  19.227  0.00  0.00    +0.000 A 
ATOM      6  C   UNL     1       1.811   7.608  20.299  0.00  0.00    +0.000 A 
ATOM      7  C   UNL     1       1.251   8.882  20.162  0.00  0.00    +0.000 A 
ATOM      8  C   UNL     1       1.333   9.565  18.949  0.00  0.00    +0.000 A 
ATOM      9  C   UNL     1       1.985   8.956  17.875  0.00  0.00    +0.000 A 
ATOM     10  C   UNL     1       2.553   7.681  18.016  0.00  0.00    +0.000 A 
BRANCH   8  11
ATOM     11  S   UNL     1       0.525  11.146  18.795  0.00  0.00    +0.000 S 
BRANCH  11  12
ATOM     12  C   UNL     1      -1.070  10.623  18.133  0.00  0.00    +0.000 C 
ATOM     13  F   UNL     1      -0.912   9.605  17.249  0.00  0.00    +0.000 F 
ATOM     14  F   UNL     1      -1.844  10.136  19.139  0.00  0.00    +0.000 F 
ENDBRANCH  11  12
ENDBRANCH   8  11
ENDBRANCH   3   5
BRANCH   1  15
ATOM     15  C   UNL     1       4.535   3.802  18.924  0.00  0.00    +0.000 C 
BRANCH  15  16
ATOM     16  O   UNL     1       4.100   3.080  17.768  0.00  0.00    +0.000 OA
BRANCH  16  17
ATOM     17  C   UNL     1       2.745   2.959  17.678  0.00  0.00    +0.000 C 
ATOM     18  O   UNL     1       2.061   3.505  16.822  0.00  0.00    +0.000 OA
BRANCH  17  19
ATOM     19  C   UNL     1       2.216   2.093  18.797  0.00  0.00    +0.000 C 
BRANCH  19  20
ATOM     20  C   UNL     1       0.871   2.584  19.338  0.00  0.00    +0.000 C 
BRANCH  20  22
ATOM     21  C   UNL     1       2.072   2.811  21.546  0.00  0.00    +0.000 C 
ATOM     22  C   UNL     1       1.010   3.397  20.629  0.00  0.00    +0.000 C 
ENDBRANCH  20  22
ENDBRANCH  19  20
ENDBRANCH  17  19
ENDBRANCH  16  17
ENDBRANCH  15  16
ENDBRANCH   1  15
TORSDOF 9
ENDMDL
MODEL 5
REMARK VINA RESULT:      -6.3      1.144      1.280
REMARK  Name = 
REMARK  10 active torsions:
REMARK  status: ('A' for Active; 'I' for Inactive)
REMARK    1  A    between atoms: C_1  and  C_2
REMARK    2  A    between atoms: C_2  and  C_3
REMARK    3  A    between atoms: C_3  and  C_4
REMARK    4  A    between atoms: C_4  and  C_5
REMARK    5  A    between atoms: C_5  and  O_7
REMARK    6  A    between atoms: O_7  and  C_8
REMARK    7  A    between atoms: C_8  and  C_9
REMARK    8  A    between atoms: N_11  and  C_12
REMARK    9  A    between atoms: C_15  and  S_16
REMARK   10  A    between atoms: S_16  and  C_17
REMARK                            x       y       z     vdW  Elec       q    Type
REMARK                         _______ _______ _______ _____ _____    ______ ____
ROOT
ATOM      1  C   UNL     1       5.868   5.039  15.696  0.00  0.00    +0.000 C 
ATOM      2  O   UNL     1       5.296   6.093  15.969  0.00  0.00    +0.000 OA
ATOM      3  N   UNL     1       5.650   3.814  16.317  0.00  0.00    +0.000 N 
ATOM      4  H   UNL     1       6.295   3.062  16.111  0.00  0.00    +0.000 HD
ENDROOT
BRANCH   3   5
ATOM      5  C   UNL     1       4.643   3.536  17.272  0.00  0.00    +0.000 A 
ATOM      6  C   UNL     1       4.905   3.374  18.634  0.00  0.00    +0.000 A 
ATOM      7  C   UNL     1       3.878   3.080  19.535  0.00  0.00    +0.000 A 
ATOM      8  C   UNL     1       2.561   2.953  19.092  0.00  0.00    +0.000 A 
ATOM      9  C   UNL     1       2.287   3.127  17.734  0.00  0.00    +0.000 A 
ATOM     10  C   UNL     1       3.319   3.429  16.831  0.00  0.00    +0.000 A 
BRANCH   8  11
ATOM     11  S   UNL     1       1.301   2.488  20.262  0.00  0.00    +0.000 S 
BRANCH  11  12
ATOM     12  C   UNL     1       1.339   3.922  21.356  0.00  0.00    +0.000 C 
ATOM     13  F   UNL     1       2.399   3.853  22.202  0.00  0.00    +0.000 F 
ATOM     14  F   UNL     1       1.514   5.052  20.620  0.00  0.00    +0.000 F 
ENDBRANCH  11  12
ENDBRANCH   8  11
ENDBRANCH   3   5
BRANCH   1  15
ATOM     15  C   UNL     1       6.954   5.001  14.613  0.00  0.00    +0.000 C 
BRANCH  15  16
ATOM     16  O   UNL     1       6.939   3.760  13.900  0.00  0.00    +0.000 OA
BRANCH  16  17
ATOM     17  C   UNL     1       6.513   3.876  12.610  0.00  0.00    +0.000 C 
ATOM     18  O   UNL     1       7.222   4.241  11.682  0.00  0.00    +0.000 OA
BRANCH  17  19
ATOM     19  C   UNL     1       5.048   3.526  12.505  0.00  0.00    +0.000 C 
BRANCH  19  20
ATOM     20  C   UNL     1       4.680   2.932  11.143  0.00  0.00    +0.000 C 
BRANCH  20  22
ATOM     21  C   UNL     1       3.052   4.172   9.666  0.00  0.00    +0.000 C 
ATOM     22  C   UNL     1       3.208   3.147  10.779  0.00  0.00    +0.000 C 
ENDBRANCH  20  22
ENDBRANCH  19  20
ENDBRANCH  17  19
ENDBRANCH  16  17
ENDBRANCH  15  16
ENDBRANCH   1  15
TORSDOF 9
ENDMDL
MODEL 6
REMARK VINA RESULT:      -6.2      5.046      6.618
REMARK  Name = 
REMARK  10 active torsions:
REMARK  status: ('A' for Active; 'I' for Inactive)
REMARK    1  A    between atoms: C_1  and  C_2
REMARK    2  A    between atoms: C_2  and  C_3
REMARK    3  A    between atoms: C_3  and  C_4
REMARK    4  A    between atoms: C_4  and  C_5
REMARK    5  A    between atoms: C_5  and  O_7
REMARK    6  A    between atoms: O_7  and  C_8
REMARK    7  A    between atoms: C_8  and  C_9
REMARK    8  A    between atoms: N_11  and  C_12
REMARK    9  A    between atoms: C_15  and  S_16
REMARK   10  A    between atoms: S_16  and  C_17
REMARK                            x       y       z     vdW  Elec       q    Type
REMARK                         _______ _______ _______ _____ _____    ______ ____
ROOT
ATOM      1  C   UNL     1       2.490   4.860  19.437  0.00  0.00    +0.000 C 
ATOM      2  O   UNL     1       1.568   4.639  18.653  0.00  0.00    +0.000 OA
ATOM      3  N   UNL     1       2.916   6.117  19.852  0.00  0.00    +0.000 N 
ATOM      4  H   UNL     1       3.783   6.170  20.371  0.00  0.00    +0.000 HD
ENDROOT
BRANCH   3   5
ATOM      5  C   UNL     1       2.283   7.347  19.558  0.00  0.00    +0.000 A 
ATOM      6  C   UNL     1       2.369   7.972  18.312  0.00  0.00    +0.000 A 
ATOM      7  C   UNL     1       1.740   9.199  18.076  0.00  0.00    +0.000 A 
ATOM      8  C   UNL     1       1.001   9.822  19.082  0.00  0.00    +0.000 A 
ATOM      9  C   UNL     1       0.898   9.198  20.327  0.00  0.00    +0.000 A 
ATOM     10  C   UNL     1       1.523   7.963  20.560  0.00  0.00    +0.000 A 
BRANCH   8  11
ATOM     11  S   UNL     1       0.296  11.426  18.763  0.00  0.00    +0.000 S 
BRANCH  11  12
ATOM     12  C   UNL     1      -1.369  10.946  18.260  0.00  0.00    +0.000 C 
ATOM     13  F   UNL     1      -1.953  11.932  17.532  0.00  0.00    +0.000 F 
ATOM     14  F   UNL     1      -1.303   9.860  17.443  0.00  0.00    +0.000 F 
ENDBRANCH  11  12
ENDBRANCH   8  11
ENDBRANCH   3   5
BRANCH   1  15
ATOM     15  C   UNL     1       3.311   3.702  20.019  0.00  0.00    +0.000 C 
BRANCH  15  16
ATOM     16  O   UNL     1       4.042   3.014  18.999  0.00  0.00    +0.000 OA
BRANCH  16  17
ATOM     17  C   UNL     1       5.050   3.756  18.456  0.00  0.00    +0.000 C 
ATOM     18  O   UNL     1       5.975   4.235  19.098  0.00  0.00    +0.000 OA
BRANCH  17  19
ATOM     19  C   UNL     1       4.838   3.926  16.970  0.00  0.00    +0.000 C 
BRANCH  19  20
ATOM     20  C   UNL     1       4.913   5.389  16.527  0.00  0.00    +0.000 C 
BRANCH  20  22
ATOM     21  C   UNL     1       6.698   4.571  14.942  0.00  0.00    +0.000 C 
ATOM     22  C   UNL     1       5.563   5.561  15.151  0.00  0.00    +0.000 C 
ENDBRANCH  20  22
ENDBRANCH  19  20
ENDBRANCH  17  19
ENDBRANCH  16  17
ENDBRANCH  15  16
ENDBRANCH   1  15
TORSDOF 9
ENDMDL
MODEL 7
REMARK VINA RESULT:      -6.2      1.371      1.673
REMARK  Name = 
REMARK  10 active torsions:
REMARK  status: ('A' for Active; 'I' for Inactive)
REMARK    1  A    between atoms: C_1  and  C_2
REMARK    2  A    between atoms: C_2  and  C_3
REMARK    3  A    between atoms: C_3  and  C_4
REMARK    4  A    between atoms: C_4  and  C_5
REMARK    5  A    between atoms: C_5  and  O_7
REMARK    6  A    between atoms: O_7  and  C_8
REMARK    7  A    between atoms: C_8  and  C_9
REMARK    8  A    between atoms: N_11  and  C_12
REMARK    9  A    between atoms: C_15  and  S_16
REMARK   10  A    between atoms: S_16  and  C_17
REMARK                            x       y       z     vdW  Elec       q    Type
REMARK                         _______ _______ _______ _____ _____    ______ ____
ROOT
ATOM      1  C   UNL     1       6.244   5.023  15.740  0.00  0.00    +0.000 C 
ATOM      2  O   UNL     1       6.013   6.225  15.867  0.00  0.00    +0.000 OA
ATOM      3  N   UNL     1       5.671   4.005  16.494  0.00  0.00    +0.000 N 
ATOM      4  H   UNL     1       6.062   3.076  16.400  0.00  0.00    +0.000 HD
ENDROOT
BRANCH   3   5
ATOM      5  C   UNL     1       4.629   4.156  17.439  0.00  0.00    +0.000 A 
ATOM      6  C   UNL     1       4.828   4.678  18.719  0.00  0.00    +0.000 A 
ATOM      7  C   UNL     1       3.768   4.790  19.623  0.00  0.00    +0.000 A 
ATOM      8  C   UNL     1       2.481   4.391  19.261  0.00  0.00    +0.000 A 
ATOM      9  C   UNL     1       2.270   3.881  17.979  0.00  0.00    +0.000 A 
ATOM     10  C   UNL     1       3.333   3.776  17.069  0.00  0.00    +0.000 A 
BRANCH   8  11
ATOM     11  S   UNL     1       1.183   4.467  20.478  0.00  0.00    +0.000 S 
BRANCH  11  12
ATOM     12  C   UNL     1       1.431   2.883  21.305  0.00  0.00    +0.000 C 
ATOM     13  F   UNL     1       1.603   1.889  20.396  0.00  0.00    +0.000 F 
ATOM     14  F   UNL     1       2.574   2.926  22.040  0.00  0.00    +0.000 F 
ENDBRANCH  11  12
ENDBRANCH   8  11
ENDBRANCH   3   5
BRANCH   1  15
ATOM     15  C   UNL     1       7.267   4.532  14.708  0.00  0.00    +0.000 C 
BRANCH  15  16
ATOM     16  O   UNL     1       7.542   5.536  13.725  0.00  0.00    +0.000 OA
BRANCH  16  17
ATOM     17  C   UNL     1       7.460   5.081  12.443  0.00  0.00    +0.000 C 
ATOM     18  O   UNL     1       7.664   5.772  11.453  0.00  0.00    +0.000 OA
BRANCH  17  19
ATOM     19  C   UNL     1       7.053   3.626  12.424  0.00  0.00    +0.000 C 
BRANCH  19  20
ATOM     20  C   UNL     1       5.584   3.430  12.043  0.00  0.00    +0.000 C 
BRANCH  20  22
ATOM     21  C   UNL     1       6.605   1.340  11.063  0.00  0.00    +0.000 C 
ATOM     22  C   UNL     1       5.312   2.064  11.406  0.00  0.00    +0.000 C 
ENDBRANCH  20  22
ENDBRANCH  19  20
ENDBRANCH  17  19
ENDBRANCH  16  17
ENDBRANCH  15  16
ENDBRANCH   1  15
TORSDOF 9
ENDMDL
MODEL 8
REMARK VINA RESULT:      -6.2      4.597      7.591
REMARK  Name = 
REMARK  10 active torsions:
REMARK  status: ('A' for Active; 'I' for Inactive)
REMARK    1  A    between atoms: C_1  and  C_2
REMARK    2  A    between atoms: C_2  and  C_3
REMARK    3  A    between atoms: C_3  and  C_4
REMARK    4  A    between atoms: C_4  and  C_5
REMARK    5  A    between atoms: C_5  and  O_7
REMARK    6  A    between atoms: O_7  and  C_8
REMARK    7  A    between atoms: C_8  and  C_9
REMARK    8  A    between atoms: N_11  and  C_12
REMARK    9  A    between atoms: C_15  and  S_16
REMARK   10  A    between atoms: S_16  and  C_17
REMARK                            x       y       z     vdW  Elec       q    Type
REMARK                         _______ _______ _______ _____ _____    ______ ____
ROOT
ATOM      1  C   UNL     1       2.726   5.554  18.511  0.00  0.00    +0.000 C 
ATOM      2  O   UNL     1       1.897   5.614  17.605  0.00  0.00    +0.000 OA
ATOM      3  N   UNL     1       4.062   5.198  18.364  0.00  0.00    +0.000 N 
ATOM      4  H   UNL     1       4.599   5.032  19.206  0.00  0.00    +0.000 HD
ENDROOT
BRANCH   3   5
ATOM      5  C   UNL     1       4.732   4.975  17.138  0.00  0.00    +0.000 A 
ATOM      6  C   UNL     1       5.128   3.709  16.702  0.00  0.00    +0.000 A 
ATOM      7  C   UNL     1       5.805   3.545  15.490  0.00  0.00    +0.000 A 
ATOM      8  C   UNL     1       6.090   4.644  14.681  0.00  0.00    +0.000 A 
ATOM      9  C   UNL     1       5.685   5.913  15.102  0.00  0.00    +0.000 A 
ATOM     10  C   UNL     1       4.999   6.077  16.315  0.00  0.00    +0.000 A 
BRANCH   8  11
ATOM     11  S   UNL     1       7.035   4.396  13.191  0.00  0.00    +0.000 S 
BRANCH  11  12
ATOM     12  C   UNL     1       5.788   3.606  12.154  0.00  0.00    +0.000 C 
ATOM     13  F   UNL     1       5.969   2.260  12.126  0.00  0.00    +0.000 F 
ATOM     14  F   UNL     1       4.554   3.812  12.687  0.00  0.00    +0.000 F 
ENDBRANCH  11  12
ENDBRANCH   8  11
ENDBRANCH   3   5
BRANCH   1  15
ATOM     15  C   UNL     1       2.318   5.848  19.960  0.00  0.00    +0.000 C 
BRANCH  15  16
ATOM     16  O   UNL     1       2.907   4.914  20.870  0.00  0.00    +0.000 OA
BRANCH  16  17
ATOM     17  C   UNL     1       2.049   3.937  21.281  0.00  0.00    +0.000 C 
ATOM     18  O   UNL     1       2.218   3.247  22.278  0.00  0.00    +0.000 OA
BRANCH  17  19
ATOM     19  C   UNL     1       0.893   3.811  20.317  0.00  0.00    +0.000 C 
BRANCH  19  20
ATOM     20  C   UNL     1       0.790   2.415  19.698  0.00  0.00    +0.000 C 
BRANCH  20  22
ATOM     21  C   UNL     1       2.947   1.649  18.635  0.00  0.00    +0.000 C 
ATOM     22  C   UNL     1       1.586   2.283  18.396  0.00  0.00    +0.000 C 
ENDBRANCH  20  22
ENDBRANCH  19  20
ENDBRANCH  17  19
ENDBRANCH  16  17
ENDBRANCH  15  16
ENDBRANCH   1  15
TORSDOF 9
ENDMDL
MODEL 9
REMARK VINA RESULT:      -6.1      1.723      2.149
REMARK  Name = 
REMARK  10 active torsions:
REMARK  status: ('A' for Active; 'I' for Inactive)
REMARK    1  A    between atoms: C_1  and  C_2
REMARK    2  A    between atoms: C_2  and  C_3
REMARK    3  A    between atoms: C_3  and  C_4
REMARK    4  A    between atoms: C_4  and  C_5
REMARK    5  A    between atoms: C_5  and  O_7
REMARK    6  A    between atoms: O_7  and  C_8
REMARK    7  A    between atoms: C_8  and  C_9
REMARK    8  A    between atoms: N_11  and  C_12
REMARK    9  A    between atoms: C_15  and  S_16
REMARK   10  A    between atoms: S_16  and  C_17
REMARK                            x       y       z     vdW  Elec       q    Type
REMARK                         _______ _______ _______ _____ _____    ______ ____
ROOT
ATOM      1  C   UNL     1       6.163   5.002  16.397  0.00  0.00    +0.000 C 
ATOM      2  O   UNL     1       5.974   6.060  16.995  0.00  0.00    +0.000 OA
ATOM      3  N   UNL     1       5.480   3.811  16.623  0.00  0.00    +0.000 N 
ATOM      4  H   UNL     1       5.837   2.975  16.179  0.00  0.00    +0.000 HD
ENDROOT
BRANCH   3   5
ATOM      5  C   UNL     1       4.365   3.643  17.477  0.00  0.00    +0.000 A 
ATOM      6  C   UNL     1       3.932   2.396  17.933  0.00  0.00    +0.000 A 
ATOM      7  C   UNL     1       2.811   2.282  18.760  0.00  0.00    +0.000 A 
ATOM      8  C   UNL     1       2.104   3.416  19.158  0.00  0.00    +0.000 A 
ATOM      9  C   UNL     1       2.537   4.669  18.719  0.00  0.00    +0.000 A 
ATOM     10  C   UNL     1       3.667   4.784  17.894  0.00  0.00    +0.000 A 
BRANCH   8  11
ATOM     11  S   UNL     1       0.629   3.212  20.137  0.00  0.00    +0.000 S 
BRANCH  11  12
ATOM     12  C   UNL     1       1.359   3.053  21.779  0.00  0.00    +0.000 C 
ATOM     13  F   UNL     1       1.946   1.838  21.927  0.00  0.00    +0.000 F 
ATOM     14  F   UNL     1       2.347   3.974  21.930  0.00  0.00    +0.000 F 
ENDBRANCH  11  12
ENDBRANCH   8  11
ENDBRANCH   3   5
BRANCH   1  15
ATOM     15  C   UNL     1       7.253   4.899  15.323  0.00  0.00    +0.000 C 
BRANCH  15  16
ATOM     16  O   UNL     1       6.783   5.365  14.054  0.00  0.00    +0.000 OA
BRANCH  16  17
ATOM     17  C   UNL     1       7.701   5.241  13.053  0.00  0.00    +0.000 C 
ATOM     18  O   UNL     1       8.763   5.848  13.015  0.00  0.00    +0.000 OA
BRANCH  17  19
ATOM     19  C   UNL     1       7.203   4.284  11.996  0.00  0.00    +0.000 C 
BRANCH  19  20
ATOM     20  C   UNL     1       6.144   3.316  12.528  0.00  0.00    +0.000 C 
BRANCH  20  22
ATOM     21  C   UNL     1       6.552   1.299  11.068  0.00  0.00    +0.000 C 
ATOM     22  C   UNL     1       5.574   2.402  11.439  0.00  0.00    +0.000 C 
ENDBRANCH  20  22
ENDBRANCH  19  20
ENDBRANCH  17  19
ENDBRANCH  16  17
ENDBRANCH  15  16
ENDBRANCH   1  15
TORSDOF 9
ENDMDL
