MODEL 1
REMARK VINA RESULT:      -8.1      0.000      0.000
REMARK  Name = 
REMARK  7 active torsions:
REMARK  status: ('A' for Active; 'I' for Inactive)
REMARK    1  A    between atoms: C_2  and  N_3
REMARK    2  A    between atoms: C_2  and  N_20
REMARK    3  A    between atoms: N_3  and  N_4
REMARK    4  A    between atoms: C_5  and  C_6
REMARK    5  A    between atoms: C_9  and  O_10
REMARK    6  A    between atoms: O_10  and  C_11
REMARK    7  A    between atoms: N_20  and  C_21
REMARK                            x       y       z     vdW  Elec       q    Type
REMARK                         _______ _______ _______ _____ _____    ______ ____
ROOT
ATOM      1  N   UNL     1       2.692   5.201  19.125  0.00  0.00    +0.000 NA
ATOM      2  C   UNL     1       2.805   6.255  19.871  0.00  0.00    +0.000 C 
ENDROOT
BRANCH   2   3
ATOM      3  C   UNL     1       2.161   7.530  19.498  0.00  0.00    +0.000 A 
ATOM      4  C   UNL     1       1.446   8.266  20.446  0.00  0.00    +0.000 A 
ATOM      5  C   UNL     1       0.850   9.474  20.081  0.00  0.00    +0.000 A 
ATOM      6  C   UNL     1       0.967   9.947  18.773  0.00  0.00    +0.000 A 
ATOM      7  C   UNL     1       1.637   9.180  17.814  0.00  0.00    +0.000 A 
ATOM      8  C   UNL     1       2.261   7.985  18.181  0.00  0.00    +0.000 A 
BRANCH   6   9
ATOM      9  O   UNL     1       0.326  11.135  18.510  0.00  0.00    +0.000 OA
BRANCH   9  10
ATOM     10  C   UNL     1      -1.048  11.186  18.458  0.00  0.00    +0.000 A 
ATOM     11  C   UNL     1      -1.652  10.279  17.582  0.00  0.00    +0.000 A 
ATOM     12  C   UNL     1      -3.043  10.243  17.454  0.00  0.00    +0.000 A 
ATOM     13  C   UNL     1      -3.826  11.115  18.206  0.00  0.00    +0.000 A 
ATOM     14 BR   UNL     1      -5.706  11.095  18.012  0.00  0.00    +0.000 Br
ATOM     15  C   UNL     1      -3.235  11.998  19.108  0.00  0.00    +0.000 A 
ATOM     16  C   UNL     1      -1.846  12.013  19.253  0.00  0.00    +0.000 A 
ENDBRANCH   9  10
ENDBRANCH   6   9
ENDBRANCH   2   3
BRANCH   1  17
ATOM     17  N   UNL     1       3.335   4.089  19.595  0.00  0.00    +0.000 N 
ATOM     18  H   UNL     1       3.126   3.715  20.515  0.00  0.00    +0.000 HD
BRANCH  17  20
ATOM     19  S   UNL     1       3.575   1.967  18.051  0.00  0.00    +0.000 S 
ATOM     20  C   UNL     1       4.157   3.351  18.769  0.00  0.00    +0.000 C 
BRANCH  20  21
ATOM     21  N   UNL     1       5.413   3.887  18.644  0.00  0.00    +0.000 N 
ATOM     22  H   UNL     1       5.638   4.439  19.469  0.00  0.00    +0.000 HD
BRANCH  21  23
ATOM     23  C   UNL     1       6.128   4.188  17.404  0.00  0.00    +0.000 C 
ATOM     24  C   UNL     1       5.357   5.245  16.598  0.00  0.00    +0.000 C 
ATOM     25  C   UNL     1       5.441   6.639  17.224  0.00  0.00    +0.000 C 
ATOM     26  C   UNL     1       6.886   7.064  17.457  0.00  0.00    +0.000 C 
ATOM     27  C   UNL     1       7.648   6.041  18.293  0.00  0.00    +0.000 C 
ATOM     28  C   UNL     1       7.565   4.641  17.687  0.00  0.00    +0.000 C 
ENDBRANCH  21  23
ENDBRANCH  20  21
ENDBRANCH  17  20
ENDBRANCH   1  17
TORSDOF 7
ENDMDL
MODEL 2
REMARK VINA RESULT:      -7.6      5.041      9.159
REMARK  Name = 
REMARK  7 active torsions:
REMARK  status: ('A' for Active; 'I' for Inactive)
REMARK    1  A    between atoms: C_2  and  N_3
REMARK    2  A    between atoms: C_2  and  N_20
REMARK    3  A    between atoms: N_3  and  N_4
REMARK    4  A    between atoms: C_5  and  C_6
REMARK    5  A    between atoms: C_9  and  O_10
REMARK    6  A    between atoms: O_10  and  C_11
REMARK    7  A    between atoms: N_20  and  C_21
REMARK                            x       y       z     vdW  Elec       q    Type
REMARK                         _______ _______ _______ _____ _____    ______ ____
ROOT
ATOM      1  N   UNL     1      -0.754  11.266  20.066  0.00  0.00    +0.000 NA
ATOM      2  C   UNL     1       0.079  10.965  19.120  0.00  0.00    +0.000 C 
ENDROOT
BRANCH   2   3
ATOM      3  C   UNL     1       0.871   9.720  19.166  0.00  0.00    +0.000 A 
ATOM      4  C   UNL     1       1.042   9.033  20.370  0.00  0.00    +0.000 A 
ATOM      5  C   UNL     1       1.786   7.853  20.397  0.00  0.00    +0.000 A 
ATOM      6  C   UNL     1       2.359   7.359  19.224  0.00  0.00    +0.000 A 
ATOM      7  C   UNL     1       2.232   8.079  18.030  0.00  0.00    +0.000 A 
ATOM      8  C   UNL     1       1.463   9.245  17.993  0.00  0.00    +0.000 A 
BRANCH   6   9
ATOM      9  O   UNL     1       3.090   6.202  19.360  0.00  0.00    +0.000 OA
BRANCH   9  10
ATOM     10  C   UNL     1       3.733   5.655  18.273  0.00  0.00    +0.000 A 
ATOM     11  C   UNL     1       4.813   6.392  17.779  0.00  0.00    +0.000 A 
ATOM     12  C   UNL     1       5.540   5.926  16.680  0.00  0.00    +0.000 A 
ATOM     13  C   UNL     1       5.184   4.721  16.080  0.00  0.00    +0.000 A 
ATOM     14 BR   UNL     1       6.140   4.103  14.572  0.00  0.00    +0.000 Br
ATOM     15  C   UNL     1       4.131   3.963  16.589  0.00  0.00    +0.000 A 
ATOM     16  C   UNL     1       3.423   4.417  17.704  0.00  0.00    +0.000 A 
ENDBRANCH   9  10
ENDBRANCH   6   9
ENDBRANCH   2   3
BRANCH   1  17
ATOM     17  N   UNL     1      -1.426  12.444  19.891  0.00  0.00    +0.000 N 
ATOM     18  H   UNL     1      -0.926  13.321  19.790  0.00  0.00    +0.000 HD
BRANCH  17  20
ATOM     19  S   UNL     1      -3.816  12.850  20.927  0.00  0.00    +0.000 S 
ATOM     20  C   UNL     1      -2.790  12.450  19.679  0.00  0.00    +0.000 C 
BRANCH  20  21
ATOM     21  N   UNL     1      -3.135  12.108  18.396  0.00  0.00    +0.000 N 
ATOM     22  H   UNL     1      -3.107  12.931  17.799  0.00  0.00    +0.000 HD
BRANCH  21  23
ATOM     23  C   UNL     1      -3.968  10.984  17.974  0.00  0.00    +0.000 C 
ATOM     24  C   UNL     1      -4.648  11.309  16.635  0.00  0.00    +0.000 C 
ATOM     25  C   UNL     1      -3.670  11.289  15.459  0.00  0.00    +0.000 C 
ATOM     26  C   UNL     1      -2.904   9.974  15.387  0.00  0.00    +0.000 C 
ATOM     27  C   UNL     1      -2.190   9.663  16.698  0.00  0.00    +0.000 C 
ATOM     28  C   UNL     1      -3.151   9.689  17.885  0.00  0.00    +0.000 C 
ENDBRANCH  21  23
ENDBRANCH  20  21
ENDBRANCH  17  20
ENDBRANCH   1  17
TORSDOF 7
ENDMDL
MODEL 3
REMARK VINA RESULT:      -7.4      0.652      1.695
REMARK  Name = 
REMARK  7 active torsions:
REMARK  status: ('A' for Active; 'I' for Inactive)
REMARK    1  A    between atoms: C_2  and  N_3
REMARK    2  A    between atoms: C_2  and  N_20
REMARK    3  A    between atoms: N_3  and  N_4
REMARK    4  A    between atoms: C_5  and  C_6
REMARK    5  A    between atoms: C_9  and  O_10
REMARK    6  A    between atoms: O_10  and  C_11
REMARK    7  A    between atoms: N_20  and  C_21
REMARK                            x       y       z     vdW  Elec       q    Type
REMARK                         _______ _______ _______ _____ _____    ______ ____
ROOT
ATOM      1  N   UNL     1       2.749   5.275  19.211  0.00  0.00    +0.000 NA
ATOM      2  C   UNL     1       2.769   6.312  19.988  0.00  0.00    +0.000 C 
ENDROOT
BRANCH   2   3
ATOM      3  C   UNL     1       2.081   7.563  19.612  0.00  0.00    +0.000 A 
ATOM      4  C   UNL     1       2.159   8.050  18.305  0.00  0.00    +0.000 A 
ATOM      5  C   UNL     1       1.496   9.228  17.962  0.00  0.00    +0.000 A 
ATOM      6  C   UNL     1       0.755   9.920  18.921  0.00  0.00    +0.000 A 
ATOM      7  C   UNL     1       0.723   9.459  20.242  0.00  0.00    +0.000 A 
ATOM      8  C   UNL     1       1.362   8.263  20.583  0.00  0.00    +0.000 A 
BRANCH   6   9
ATOM      9  O   UNL     1       0.157  11.081  18.488  0.00  0.00    +0.000 OA
BRANCH   9  10
ATOM     10  C   UNL     1      -1.215  11.177  18.436  0.00  0.00    +0.000 A 
ATOM     11  C   UNL     1      -1.847  10.300  17.549  0.00  0.00    +0.000 A 
ATOM     12  C   UNL     1      -3.238  10.311  17.421  0.00  0.00    +0.000 A 
ATOM     13  C   UNL     1      -3.994  11.198  18.183  0.00  0.00    +0.000 A 
ATOM     14 BR   UNL     1      -5.873  11.242  17.988  0.00  0.00    +0.000 Br
ATOM     15  C   UNL     1      -3.374  12.051  19.095  0.00  0.00    +0.000 A 
ATOM     16  C   UNL     1      -1.986  12.019  19.241  0.00  0.00    +0.000 A 
ENDBRANCH   9  10
ENDBRANCH   6   9
ENDBRANCH   2   3
BRANCH   1  17
ATOM     17  N   UNL     1       3.422   4.184  19.687  0.00  0.00    +0.000 N 
ATOM     18  H   UNL     1       3.389   3.938  20.670  0.00  0.00    +0.000 HD
BRANCH  17  20
ATOM     19  S   UNL     1       3.268   1.853  18.464  0.00  0.00    +0.000 S 
ATOM     20  C   UNL     1       4.022   3.294  18.819  0.00  0.00    +0.000 C 
BRANCH  20  21
ATOM     21  N   UNL     1       5.226   3.743  18.339  0.00  0.00    +0.000 N 
ATOM     22  H   UNL     1       5.983   3.184  18.727  0.00  0.00    +0.000 HD
BRANCH  21  23
ATOM     23  C   UNL     1       5.543   5.088  17.862  0.00  0.00    +0.000 C 
ATOM     24  C   UNL     1       7.066   5.257  17.744  0.00  0.00    +0.000 C 
ATOM     25  C   UNL     1       7.654   4.480  16.565  0.00  0.00    +0.000 C 
ATOM     26  C   UNL     1       6.954   4.829  15.256  0.00  0.00    +0.000 C 
ATOM     27  C   UNL     1       5.446   4.624  15.351  0.00  0.00    +0.000 C 
ATOM     28  C   UNL     1       4.844   5.385  16.530  0.00  0.00    +0.000 C 
ENDBRANCH  21  23
ENDBRANCH  20  21
ENDBRANCH  17  20
ENDBRANCH   1  17
TORSDOF 7
ENDMDL
MODEL 4
REMARK VINA RESULT:      -7.3      2.874      3.553
REMARK  Name = 
REMARK  7 active torsions:
REMARK  status: ('A' for Active; 'I' for Inactive)
REMARK    1  A    between atoms: C_2  and  N_3
REMARK    2  A    between atoms: C_2  and  N_20
REMARK    3  A    between atoms: N_3  and  N_4
REMARK    4  A    between atoms: C_5  and  C_6
REMARK    5  A    between atoms: C_9  and  O_10
REMARK    6  A    between atoms: O_10  and  C_11
REMARK    7  A    between atoms: N_20  and  C_21
REMARK                            x       y       z     vdW  Elec       q    Type
REMARK                         _______ _______ _______ _____ _____    ______ ____
ROOT
ATOM      1  N   UNL     1       2.568   5.116  19.023  0.00  0.00    +0.000 NA
ATOM      2  C   UNL     1       2.670   6.093  19.869  0.00  0.00    +0.000 C 
ENDROOT
BRANCH   2   3
ATOM      3  C   UNL     1       2.141   7.435  19.555  0.00  0.00    +0.000 A 
ATOM      4  C   UNL     1       2.286   7.971  18.272  0.00  0.00    +0.000 A 
ATOM      5  C   UNL     1       1.773   9.237  17.987  0.00  0.00    +0.000 A 
ATOM      6  C   UNL     1       1.116   9.967  18.979  0.00  0.00    +0.000 A 
ATOM      7  C   UNL     1       1.020   9.449  20.276  0.00  0.00    +0.000 A 
ATOM      8  C   UNL     1       1.507   8.170  20.559  0.00  0.00    +0.000 A 
BRANCH   6   9
ATOM      9  O   UNL     1       0.666  11.211  18.603  0.00  0.00    +0.000 OA
BRANCH   9  10
ATOM     10  C   UNL     1       1.338  12.343  19.004  0.00  0.00    +0.000 A 
ATOM     11  C   UNL     1       2.357  12.772  18.149  0.00  0.00    +0.000 A 
ATOM     12  C   UNL     1       3.100  13.914  18.458  0.00  0.00    +0.000 A 
ATOM     13  C   UNL     1       2.819  14.624  19.623  0.00  0.00    +0.000 A 
ATOM     14 BR   UNL     1       3.845  16.149  20.065  0.00  0.00    +0.000 Br
ATOM     15  C   UNL     1       1.782  14.223  20.463  0.00  0.00    +0.000 A 
ATOM     16  C   UNL     1       1.023  13.097  20.137  0.00  0.00    +0.000 A 
ENDBRANCH   9  10
ENDBRANCH   6   9
ENDBRANCH   2   3
BRANCH   1  17
ATOM     17  N   UNL     1       3.095   3.927  19.448  0.00  0.00    +0.000 N 
ATOM     18  H   UNL     1       2.729   3.458  20.270  0.00  0.00    +0.000 HD
BRANCH  17  20
ATOM     19  S   UNL     1       3.641   1.754  18.059  0.00  0.00    +0.000 S 
ATOM     20  C   UNL     1       4.020   3.253  18.677  0.00  0.00    +0.000 C 
BRANCH  20  21
ATOM     21  N   UNL     1       5.191   3.947  18.516  0.00  0.00    +0.000 N 
ATOM     22  H   UNL     1       5.323   4.589  19.293  0.00  0.00    +0.000 HD
BRANCH  21  23
ATOM     23  C   UNL     1       5.879   4.242  17.260  0.00  0.00    +0.000 C 
ATOM     24  C   UNL     1       5.158   5.382  16.523  0.00  0.00    +0.000 C 
ATOM     25  C   UNL     1       5.368   6.741  17.194  0.00  0.00    +0.000 C 
ATOM     26  C   UNL     1       6.848   7.051  17.384  0.00  0.00    +0.000 C 
ATOM     27  C   UNL     1       7.563   5.945  18.151  0.00  0.00    +0.000 C 
ATOM     28  C   UNL     1       7.355   4.579  17.500  0.00  0.00    +0.000 C 
ENDBRANCH  21  23
ENDBRANCH  20  21
ENDBRANCH  17  20
ENDBRANCH   1  17
TORSDOF 7
ENDMDL
MODEL 5
REMARK VINA RESULT:      -7.2      0.678      1.504
REMARK  Name = 
REMARK  7 active torsions:
REMARK  status: ('A' for Active; 'I' for Inactive)
REMARK    1  A    between atoms: C_2  and  N_3
REMARK    2  A    between atoms: C_2  and  N_20
REMARK    3  A    between atoms: N_3  and  N_4
REMARK    4  A    between atoms: C_5  and  C_6
REMARK    5  A    between atoms: C_9  and  O_10
REMARK    6  A    between atoms: O_10  and  C_11
REMARK    7  A    between atoms: N_20  and  C_21
REMARK                            x       y       z     vdW  Elec       q    Type
REMARK                         _______ _______ _______ _____ _____    ______ ____
ROOT
ATOM      1  N   UNL     1       3.222   5.894  19.215  0.00  0.00    +0.000 NA
ATOM      2  C   UNL     1       2.460   6.487  20.080  0.00  0.00    +0.000 C 
ENDROOT
BRANCH   2   3
ATOM      3  C   UNL     1       1.821   7.783  19.777  0.00  0.00    +0.000 A 
ATOM      4  C   UNL     1       1.904   8.330  18.494  0.00  0.00    +0.000 A 
ATOM      5  C   UNL     1       1.287   9.551  18.220  0.00  0.00    +0.000 A 
ATOM      6  C   UNL     1       0.589  10.225  19.223  0.00  0.00    +0.000 A 
ATOM      7  C   UNL     1       0.555   9.701  20.520  0.00  0.00    +0.000 A 
ATOM      8  C   UNL     1       1.146   8.464  20.792  0.00  0.00    +0.000 A 
BRANCH   6   9
ATOM      9  O   UNL     1       0.036  11.430  18.857  0.00  0.00    +0.000 OA
BRANCH   9  10
ATOM     10  C   UNL     1      -1.331  11.580  18.809  0.00  0.00    +0.000 A 
ATOM     11  C   UNL     1      -1.890  12.342  19.839  0.00  0.00    +0.000 A 
ATOM     12  C   UNL     1      -3.269  12.561  19.885  0.00  0.00    +0.000 A 
ATOM     13  C   UNL     1      -4.086  12.018  18.896  0.00  0.00    +0.000 A 
ATOM     14 BR   UNL     1      -5.955  12.281  18.971  0.00  0.00    +0.000 Br
ATOM     15  C   UNL     1      -3.533  11.287  17.846  0.00  0.00    +0.000 A 
ATOM     16  C   UNL     1      -2.151  11.092  17.788  0.00  0.00    +0.000 A 
ENDBRANCH   9  10
ENDBRANCH   6   9
ENDBRANCH   2   3
BRANCH   1  17
ATOM     17  N   UNL     1       3.741   4.698  19.626  0.00  0.00    +0.000 N 
ATOM     18  H   UNL     1       3.627   4.380  20.582  0.00  0.00    +0.000 HD
BRANCH  17  20
ATOM     19  S   UNL     1       3.292   2.761  17.895  0.00  0.00    +0.000 S 
ATOM     20  C   UNL     1       4.285   3.817  18.713  0.00  0.00    +0.000 C 
BRANCH  20  21
ATOM     21  N   UNL     1       5.646   3.937  18.597  0.00  0.00    +0.000 N 
ATOM     22  H   UNL     1       6.049   4.188  19.497  0.00  0.00    +0.000 HD
BRANCH  21  23
ATOM     23  C   UNL     1       6.406   4.265  17.392  0.00  0.00    +0.000 C 
ATOM     24  C   UNL     1       5.645   5.308  16.559  0.00  0.00    +0.000 C 
ATOM     25  C   UNL     1       5.667   6.699  17.196  0.00  0.00    +0.000 C 
ATOM     26  C   UNL     1       7.090   7.158  17.495  0.00  0.00    +0.000 C 
ATOM     27  C   UNL     1       7.839   6.148  18.357  0.00  0.00    +0.000 C 
ATOM     28  C   UNL     1       7.818   4.751  17.739  0.00  0.00    +0.000 C 
ENDBRANCH  21  23
ENDBRANCH  20  21
ENDBRANCH  17  20
ENDBRANCH   1  17
TORSDOF 7
ENDMDL
MODEL 6
REMARK VINA RESULT:      -7.2      0.883      1.763
REMARK  Name = 
REMARK  7 active torsions:
REMARK  status: ('A' for Active; 'I' for Inactive)
REMARK    1  A    between atoms: C_2  and  N_3
REMARK    2  A    between atoms: C_2  and  N_20
REMARK    3  A    between atoms: N_3  and  N_4
REMARK    4  A    between atoms: C_5  and  C_6
REMARK    5  A    between atoms: C_9  and  O_10
REMARK    6  A    between atoms: O_10  and  C_11
REMARK    7  A    between atoms: N_20  and  C_21
REMARK                            x       y       z     vdW  Elec       q    Type
REMARK                         _______ _______ _______ _____ _____    ______ ____
ROOT
ATOM      1  N   UNL     1       2.175   5.636  19.590  0.00  0.00    +0.000 NA
ATOM      2  C   UNL     1       2.681   6.825  19.697  0.00  0.00    +0.000 C 
ENDROOT
BRANCH   2   3
ATOM      3  C   UNL     1       1.879   8.028  19.401  0.00  0.00    +0.000 A 
ATOM      4  C   UNL     1       1.090   8.615  20.393  0.00  0.00    +0.000 A 
ATOM      5  C   UNL     1       0.344   9.758  20.101  0.00  0.00    +0.000 A 
ATOM      6  C   UNL     1       0.385  10.314  18.822  0.00  0.00    +0.000 A 
ATOM      7  C   UNL     1       1.134   9.692  17.816  0.00  0.00    +0.000 A 
ATOM      8  C   UNL     1       1.905   8.564  18.112  0.00  0.00    +0.000 A 
BRANCH   6   9
ATOM      9  O   UNL     1      -0.402  11.426  18.630  0.00  0.00    +0.000 OA
BRANCH   9  10
ATOM     10  C   UNL     1      -1.764  11.296  18.486  0.00  0.00    +0.000 A 
ATOM     11  C   UNL     1      -2.537  12.165  19.261  0.00  0.00    +0.000 A 
ATOM     12  C   UNL     1      -3.932  12.121  19.188  0.00  0.00    +0.000 A 
ATOM     13  C   UNL     1      -4.549  11.208  18.336  0.00  0.00    +0.000 A 
ATOM     14 BR   UNL     1      -6.435  11.120  18.259  0.00  0.00    +0.000 Br
ATOM     15  C   UNL     1      -3.785  10.363  17.533  0.00  0.00    +0.000 A 
ATOM     16  C   UNL     1      -2.390  10.428  17.588  0.00  0.00    +0.000 A 
ENDBRANCH   9  10
ENDBRANCH   6   9
ENDBRANCH   2   3
BRANCH   1  17
ATOM     17  N   UNL     1       3.029   4.615  19.902  0.00  0.00    +0.000 N 
ATOM     18  H   UNL     1       3.245   4.392  20.868  0.00  0.00    +0.000 HD
BRANCH  17  20
ATOM     19  S   UNL     1       2.494   2.534  18.375  0.00  0.00    +0.000 S 
ATOM     20  C   UNL     1       3.484   3.755  18.923  0.00  0.00    +0.000 C 
BRANCH  20  21
ATOM     21  N   UNL     1       4.760   4.038  18.512  0.00  0.00    +0.000 N 
ATOM     22  H   UNL     1       5.403   3.334  18.867  0.00  0.00    +0.000 HD
BRANCH  21  23
ATOM     23  C   UNL     1       5.307   5.348  18.159  0.00  0.00    +0.000 C 
ATOM     24  C   UNL     1       6.843   5.296  18.170  0.00  0.00    +0.000 C 
ATOM     25  C   UNL     1       7.413   4.513  16.986  0.00  0.00    +0.000 C 
ATOM     26  C   UNL     1       6.885   5.041  15.657  0.00  0.00    +0.000 C 
ATOM     27  C   UNL     1       5.361   5.056  15.621  0.00  0.00    +0.000 C 
ATOM     28  C   UNL     1       4.775   5.825  16.803  0.00  0.00    +0.000 C 
ENDBRANCH  21  23
ENDBRANCH  20  21
ENDBRANCH  17  20
ENDBRANCH   1  17
TORSDOF 7
ENDMDL
MODEL 7
REMARK VINA RESULT:      -7.1      4.962      9.048
REMARK  Name = 
REMARK  7 active torsions:
REMARK  status: ('A' for Active; 'I' for Inactive)
REMARK    1  A    between atoms: C_2  and  N_3
REMARK    2  A    between atoms: C_2  and  N_20
REMARK    3  A    between atoms: N_3  and  N_4
REMARK    4  A    between atoms: C_5  and  C_6
REMARK    5  A    between atoms: C_9  and  O_10
REMARK    6  A    between atoms: O_10  and  C_11
REMARK    7  A    between atoms: N_20  and  C_21
REMARK                            x       y       z     vdW  Elec       q    Type
REMARK                         _______ _______ _______ _____ _____    ______ ____
ROOT
ATOM      1  N   UNL     1       0.451  11.527  18.693  0.00  0.00    +0.000 NA
ATOM      2  C   UNL     1       0.508  10.688  19.679  0.00  0.00    +0.000 C 
ENDROOT
BRANCH   2   3
ATOM      3  C   UNL     1       1.186   9.384  19.537  0.00  0.00    +0.000 A 
ATOM      4  C   UNL     1       1.778   9.022  18.324  0.00  0.00    +0.000 A 
ATOM      5  C   UNL     1       2.423   7.791  18.206  0.00  0.00    +0.000 A 
ATOM      6  C   UNL     1       2.479   6.922  19.297  0.00  0.00    +0.000 A 
ATOM      7  C   UNL     1       1.839   7.264  20.494  0.00  0.00    +0.000 A 
ATOM      8  C   UNL     1       1.217   8.509  20.625  0.00  0.00    +0.000 A 
BRANCH   6   9
ATOM      9  O   UNL     1       3.119   5.725  19.073  0.00  0.00    +0.000 OA
BRANCH   9  10
ATOM     10  C   UNL     1       3.998   5.594  18.022  0.00  0.00    +0.000 A 
ATOM     11  C   UNL     1       3.785   4.491  17.192  0.00  0.00    +0.000 A 
ATOM     12  C   UNL     1       4.617   4.265  16.092  0.00  0.00    +0.000 A 
ATOM     13  C   UNL     1       5.661   5.148  15.826  0.00  0.00    +0.000 A 
ATOM     14 BR   UNL     1       6.812   4.829  14.362  0.00  0.00    +0.000 Br
ATOM     15  C   UNL     1       5.859   6.270  16.628  0.00  0.00    +0.000 A 
ATOM     16  C   UNL     1       5.009   6.508  17.711  0.00  0.00    +0.000 A 
ENDBRANCH   9  10
ENDBRANCH   6   9
ENDBRANCH   2   3
BRANCH   1  17
ATOM     17  N   UNL     1      -0.201  12.697  18.968  0.00  0.00    +0.000 N 
ATOM     18  H   UNL     1       0.284  13.587  18.925  0.00  0.00    +0.000 HD
BRANCH  17  20
ATOM     19  S   UNL     1      -2.206  13.189  20.606  0.00  0.00    +0.000 S 
ATOM     20  C   UNL     1      -1.569  12.715  19.143  0.00  0.00    +0.000 C 
BRANCH  20  21
ATOM     21  N   UNL     1      -2.259  12.318  18.026  0.00  0.00    +0.000 N 
ATOM     22  H   UNL     1      -2.308  13.084  17.359  0.00  0.00    +0.000 HD
BRANCH  21  23
ATOM     23  C   UNL     1      -3.272  11.268  17.938  0.00  0.00    +0.000 C 
ATOM     24  C   UNL     1      -4.128  11.469  16.678  0.00  0.00    +0.000 C 
ATOM     25  C   UNL     1      -3.371  11.128  15.393  0.00  0.00    +0.000 C 
ATOM     26  C   UNL     1      -2.780   9.724  15.444  0.00  0.00    +0.000 C 
ATOM     27  C   UNL     1      -1.895   9.528  16.670  0.00  0.00    +0.000 C 
ATOM     28  C   UNL     1      -2.633   9.875  17.961  0.00  0.00    +0.000 C 
ENDBRANCH  21  23
ENDBRANCH  20  21
ENDBRANCH  17  20
ENDBRANCH   1  17
TORSDOF 7
ENDMDL
MODEL 8
REMARK VINA RESULT:      -7.1      1.886      3.100
REMARK  Name = 
REMARK  7 active torsions:
REMARK  status: ('A' for Active; 'I' for Inactive)
REMARK    1  A    between atoms: C_2  and  N_3
REMARK    2  A    between atoms: C_2  and  N_20
REMARK    3  A    between atoms: N_3  and  N_4
REMARK    4  A    between atoms: C_5  and  C_6
REMARK    5  A    between atoms: C_9  and  O_10
REMARK    6  A    between atoms: O_10  and  C_11
REMARK    7  A    between atoms: N_20  and  C_21
REMARK                            x       y       z     vdW  Elec       q    Type
REMARK                         _______ _______ _______ _____ _____    ______ ____
ROOT
ATOM      1  N   UNL     1       3.117   6.853  19.355  0.00  0.00    +0.000 NA
ATOM      2  C   UNL     1       2.170   7.320  20.106  0.00  0.00    +0.000 C 
ENDROOT
BRANCH   2   3
ATOM      3  C   UNL     1       1.410   8.525  19.718  0.00  0.00    +0.000 A 
ATOM      4  C   UNL     1       0.598   9.180  20.648  0.00  0.00    +0.000 A 
ATOM      5  C   UNL     1      -0.107  10.323  20.270  0.00  0.00    +0.000 A 
ATOM      6  C   UNL     1      -0.001  10.813  18.967  0.00  0.00    +0.000 A 
ATOM      7  C   UNL     1       0.770  10.124  18.025  0.00  0.00    +0.000 A 
ATOM      8  C   UNL     1       1.501   8.996  18.406  0.00  0.00    +0.000 A 
BRANCH   6   9
ATOM      9  O   UNL     1      -0.751  11.932  18.690  0.00  0.00    +0.000 OA
BRANCH   9  10
ATOM     10  C   UNL     1      -2.125  11.860  18.671  0.00  0.00    +0.000 A 
ATOM     11  C   UNL     1      -2.676  11.128  17.615  0.00  0.00    +0.000 A 
ATOM     12  C   UNL     1      -4.061  10.988  17.502  0.00  0.00    +0.000 A 
ATOM     13  C   UNL     1      -4.893  11.579  18.450  0.00  0.00    +0.000 A 
ATOM     14 BR   UNL     1      -6.768  11.422  18.284  0.00  0.00    +0.000 Br
ATOM     15  C   UNL     1      -4.351  12.281  19.526  0.00  0.00    +0.000 A 
ATOM     16  C   UNL     1      -2.965  12.397  19.651  0.00  0.00    +0.000 A 
ENDBRANCH   9  10
ENDBRANCH   6   9
ENDBRANCH   2   3
BRANCH   1  17
ATOM     17  N   UNL     1       3.731   5.728  19.833  0.00  0.00    +0.000 N 
ATOM     18  H   UNL     1       3.456   5.320  20.720  0.00  0.00    +0.000 HD
BRANCH  17  20
ATOM     19  S   UNL     1       5.812   5.841  18.218  0.00  0.00    +0.000 S 
ATOM     20  C   UNL     1       4.620   5.025  19.046  0.00  0.00    +0.000 C 
BRANCH  20  21
ATOM     21  N   UNL     1       4.390   3.673  19.053  0.00  0.00    +0.000 N 
ATOM     22  H   UNL     1       5.056   3.211  19.667  0.00  0.00    +0.000 HD
BRANCH  21  23
ATOM     23  C   UNL     1       3.765   2.876  17.997  0.00  0.00    +0.000 C 
ATOM     24  C   UNL     1       3.180   1.585  18.591  0.00  0.00    +0.000 C 
ATOM     25  C   UNL     1       1.923   1.839  19.425  0.00  0.00    +0.000 C 
ATOM     26  C   UNL     1       0.872   2.613  18.637  0.00  0.00    +0.000 C 
ATOM     27  C   UNL     1       1.432   3.916  18.079  0.00  0.00    +0.000 C 
ATOM     28  C   UNL     1       2.695   3.682  17.252  0.00  0.00    +0.000 C 
ENDBRANCH  21  23
ENDBRANCH  20  21
ENDBRANCH  17  20
ENDBRANCH   1  17
TORSDOF 7
ENDMDL
MODEL 9
REMARK VINA RESULT:      -7.1      0.769      1.220
REMARK  Name = 
REMARK  7 active torsions:
REMARK  status: ('A' for Active; 'I' for Inactive)
REMARK    1  A    between atoms: C_2  and  N_3
REMARK    2  A    between atoms: C_2  and  N_20
REMARK    3  A    between atoms: N_3  and  N_4
REMARK    4  A    between atoms: C_5  and  C_6
REMARK    5  A    between atoms: C_9  and  O_10
REMARK    6  A    between atoms: O_10  and  C_11
REMARK    7  A    between atoms: N_20  and  C_21
REMARK                            x       y       z     vdW  Elec       q    Type
REMARK                         _______ _______ _______ _____ _____    ______ ____
ROOT
ATOM      1  N   UNL     1       3.491   6.039  19.287  0.00  0.00    +0.000 NA
ATOM      2  C   UNL     1       2.595   6.577  20.053  0.00  0.00    +0.000 C 
ENDROOT
BRANCH   2   3
ATOM      3  C   UNL     1       1.882   7.805  19.651  0.00  0.00    +0.000 A 
ATOM      4  C   UNL     1       1.072   8.486  20.564  0.00  0.00    +0.000 A 
ATOM      5  C   UNL     1       0.412   9.651  20.172  0.00  0.00    +0.000 A 
ATOM      6  C   UNL     1       0.558  10.137  18.872  0.00  0.00    +0.000 A 
ATOM      7  C   UNL     1       1.326   9.423  17.945  0.00  0.00    +0.000 A 
ATOM      8  C   UNL     1       2.013   8.272  18.341  0.00  0.00    +0.000 A 
BRANCH   6   9
ATOM      9  O   UNL     1      -0.150  11.279  18.580  0.00  0.00    +0.000 OA
BRANCH   9  10
ATOM     10  C   UNL     1      -1.514  11.224  18.404  0.00  0.00    +0.000 A 
ATOM     11  C   UNL     1      -2.261  12.078  19.220  0.00  0.00    +0.000 A 
ATOM     12  C   UNL     1      -3.655  12.106  19.121  0.00  0.00    +0.000 A 
ATOM     13  C   UNL     1      -4.296  11.279  18.202  0.00  0.00    +0.000 A 
ATOM     14 BR   UNL     1      -6.182  11.286  18.088  0.00  0.00    +0.000 Br
ATOM     15  C   UNL     1      -3.557  10.450  17.361  0.00  0.00    +0.000 A 
ATOM     16  C   UNL     1      -2.162  10.444  17.443  0.00  0.00    +0.000 A 
ENDBRANCH   9  10
ENDBRANCH   6   9
ENDBRANCH   2   3
BRANCH   1  17
ATOM     17  N   UNL     1       4.066   4.901  19.781  0.00  0.00    +0.000 N 
ATOM     18  H   UNL     1       4.254   4.799  20.773  0.00  0.00    +0.000 HD
BRANCH  17  20
ATOM     19  S   UNL     1       4.329   2.281  19.655  0.00  0.00    +0.000 S 
ATOM     20  C   UNL     1       4.251   3.798  18.973  0.00  0.00    +0.000 C 
BRANCH  20  21
ATOM     21  N   UNL     1       4.351   4.118  17.643  0.00  0.00    +0.000 N 
ATOM     22  H   UNL     1       3.479   3.896  17.168  0.00  0.00    +0.000 HD
BRANCH  21  23
ATOM     23  C   UNL     1       5.569   4.191  16.839  0.00  0.00    +0.000 C 
ATOM     24  C   UNL     1       5.406   5.245  15.733  0.00  0.00    +0.000 C 
ATOM     25  C   UNL     1       5.435   6.675  16.275  0.00  0.00    +0.000 C 
ATOM     26  C   UNL     1       6.684   6.935  17.109  0.00  0.00    +0.000 C 
ATOM     27  C   UNL     1       6.832   5.920  18.236  0.00  0.00    +0.000 C 
ATOM     28  C   UNL     1       6.795   4.485  17.712  0.00  0.00    +0.000 C 
ENDBRANCH  21  23
ENDBRANCH  20  21
ENDBRANCH  17  20
ENDBRANCH   1  17
TORSDOF 7
ENDMDL
