MODEL 1
REMARK VINA RESULT:      -7.3      0.000      0.000
REMARK  Name = 
REMARK  8 active torsions:
REMARK  status: ('A' for Active; 'I' for Inactive)
REMARK    1  A    between atoms: C_1  and  C_2
REMARK    2  A    between atoms: C_2  and  N_3
REMARK    3  A    between atoms: C_6  and  C_7
REMARK    4  A    between atoms: C_15  and  N_16
REMARK    5  A    between atoms: C_19  and  C_20
REMARK    6  A    between atoms: C_20  and  C_21
REMARK    7  A    between atoms: C_21  and  O_22
REMARK    8  A    between atoms: O_22  and  C_23
REMARK                            x       y       z     vdW  Elec       q    Type
REMARK                         _______ _______ _______ _____ _____    ______ ____
ROOT
ATOM      1  C   UNL     1       4.809   3.645  19.338  0.00  0.00    +0.000 C 
ATOM      2  O   UNL     1       4.842   2.421  19.497  0.00  0.00    +0.000 OA
ATOM      3  N   UNL     1       3.794   4.412  19.952  0.00  0.00    +0.000 N 
ATOM      4  C   UNL     1       2.974   3.753  20.966  0.00  0.00    +0.000 C 
ATOM      5  C   UNL     1       1.548   3.383  20.544  0.00  0.00    +0.000 C 
ATOM      6  C   UNL     1       1.394   2.877  19.111  0.00  0.00    +0.000 C 
ATOM      7  C   UNL     1       0.935   3.931  18.100  0.00  0.00    +0.000 C 
ATOM      8  C   UNL     1       1.886   5.095  17.803  0.00  0.00    +0.000 C 
ATOM      9  C   UNL     1       2.109   6.078  18.984  0.00  0.00    +0.000 C 
ATOM     10  C   UNL     1       3.489   5.821  19.654  0.00  0.00    +0.000 C 
ENDROOT
BRANCH   9  11
ATOM     11  N   UNL     1       2.025   7.451  18.461  0.00  0.00    +0.000 N 
ATOM     12  C   UNL     1       1.539   8.470  19.212  0.00  0.00    +0.000 A 
ATOM     13  N   UNL     1       1.190   8.435  20.478  0.00  0.00    +0.000 NA
ATOM     14  C   UNL     1       0.763   9.703  20.867  0.00  0.00    +0.000 A 
ATOM     15  N   UNL     1       0.742  10.693  19.972  0.00  0.00    +0.000 NA
ATOM     16  S   UNL     1       1.294  10.046  18.540  0.00  0.00    +0.000 S 
ATOM     17  H   UNL     1       1.849   7.529  17.465  0.00  0.00    +0.000 HD
BRANCH  14  18
ATOM     18  C   UNL     1       0.232   9.931  22.239  0.00  0.00    +0.000 C 
BRANCH  18  19
ATOM     19  C   UNL     1      -0.830  11.025  22.218  0.00  0.00    +0.000 C 
BRANCH  19  20
ATOM     20  O   UNL     1      -0.361  12.192  22.897  0.00  0.00    +0.000 OA
ATOM     21  C   UNL     1      -1.426  13.114  23.107  0.00  0.00    +0.000 C 
ENDBRANCH  19  20
ENDBRANCH  18  19
ENDBRANCH  14  18
ENDBRANCH   9  11
BRANCH   1  25
ATOM     22  N   UNL     1       6.942   4.932  16.776  0.00  0.00    +0.000 N 
ATOM     23  C   UNL     1       7.515   5.598  17.818  0.00  0.00    +0.000 A 
ATOM     24  C   UNL     1       6.814   5.209  18.934  0.00  0.00    +0.000 A 
ATOM     25  C   UNL     1       5.840   4.274  18.480  0.00  0.00    +0.000 A 
ATOM     26  N   UNL     1       5.921   4.136  17.143  0.00  0.00    +0.000 NA
BRANCH  22  28
ATOM     27  C   UNL     1       6.363   4.259  14.467  0.00  0.00    +0.000 C 
ATOM     28  C   UNL     1       7.264   5.081  15.370  0.00  0.00    +0.000 C 
ENDBRANCH  22  28
ENDBRANCH   1  25
TORSDOF 6
ENDMDL
MODEL 2
REMARK VINA RESULT:      -7.1      1.110      1.588
REMARK  Name = 
REMARK  8 active torsions:
REMARK  status: ('A' for Active; 'I' for Inactive)
REMARK    1  A    between atoms: C_1  and  C_2
REMARK    2  A    between atoms: C_2  and  N_3
REMARK    3  A    between atoms: C_6  and  C_7
REMARK    4  A    between atoms: C_15  and  N_16
REMARK    5  A    between atoms: C_19  and  C_20
REMARK    6  A    between atoms: C_20  and  C_21
REMARK    7  A    between atoms: C_21  and  O_22
REMARK    8  A    between atoms: O_22  and  C_23
REMARK                            x       y       z     vdW  Elec       q    Type
REMARK                         _______ _______ _______ _____ _____    ______ ____
ROOT
ATOM      1  C   UNL     1       4.816   3.757  19.401  0.00  0.00    +0.000 C 
ATOM      2  O   UNL     1       4.938   2.529  19.441  0.00  0.00    +0.000 OA
ATOM      3  N   UNL     1       3.686   4.377  19.980  0.00  0.00    +0.000 N 
ATOM      4  C   UNL     1       2.833   3.554  20.835  0.00  0.00    +0.000 C 
ATOM      5  C   UNL     1       1.490   3.125  20.234  0.00  0.00    +0.000 C 
ATOM      6  C   UNL     1       1.515   2.764  18.750  0.00  0.00    +0.000 C 
ATOM      7  C   UNL     1       1.066   3.882  17.805  0.00  0.00    +0.000 C 
ATOM      8  C   UNL     1       1.938   5.140  17.724  0.00  0.00    +0.000 C 
ATOM      9  C   UNL     1       1.964   6.005  19.013  0.00  0.00    +0.000 C 
ATOM     10  C   UNL     1       3.292   5.783  19.792  0.00  0.00    +0.000 C 
ENDROOT
BRANCH   9  11
ATOM     11  N   UNL     1       1.814   7.416  18.620  0.00  0.00    +0.000 N 
ATOM     12  C   UNL     1       1.463   8.370  19.518  0.00  0.00    +0.000 A 
ATOM     13  N   UNL     1       1.315   8.231  20.816  0.00  0.00    +0.000 NA
ATOM     14  C   UNL     1       0.968   9.463  21.367  0.00  0.00    +0.000 A 
ATOM     15  N   UNL     1       0.817  10.522  20.570  0.00  0.00    +0.000 NA
ATOM     16  S   UNL     1       1.131   9.995  19.022  0.00  0.00    +0.000 S 
ATOM     17  H   UNL     1       1.485   7.573  17.674  0.00  0.00    +0.000 HD
BRANCH  14  18
ATOM     18  C   UNL     1       0.661   9.579  22.820  0.00  0.00    +0.000 C 
BRANCH  18  19
ATOM     19  C   UNL     1      -0.819   9.883  23.024  0.00  0.00    +0.000 C 
BRANCH  19  20
ATOM     20  O   UNL     1      -1.000  11.239  23.437  0.00  0.00    +0.000 OA
ATOM     21  C   UNL     1      -1.792  11.951  22.493  0.00  0.00    +0.000 C 
ENDBRANCH  19  20
ENDBRANCH  18  19
ENDBRANCH  14  18
ENDBRANCH   9  11
BRANCH   1  25
ATOM     22  N   UNL     1       7.399   5.979  18.323  0.00  0.00    +0.000 N 
ATOM     23  C   UNL     1       7.435   5.149  17.243  0.00  0.00    +0.000 A 
ATOM     24  C   UNL     1       6.468   4.200  17.475  0.00  0.00    +0.000 A 
ATOM     25  C   UNL     1       5.866   4.549  18.719  0.00  0.00    +0.000 A 
ATOM     26  N   UNL     1       6.472   5.635  19.235  0.00  0.00    +0.000 NA
BRANCH  22  28
ATOM     27  C   UNL     1       7.991   8.314  17.760  0.00  0.00    +0.000 C 
ATOM     28  C   UNL     1       8.297   7.085  18.596  0.00  0.00    +0.000 C 
ENDBRANCH  22  28
ENDBRANCH   1  25
TORSDOF 6
ENDMDL
MODEL 3
REMARK VINA RESULT:      -6.5      3.146      6.628
REMARK  Name = 
REMARK  8 active torsions:
REMARK  status: ('A' for Active; 'I' for Inactive)
REMARK    1  A    between atoms: C_1  and  C_2
REMARK    2  A    between atoms: C_2  and  N_3
REMARK    3  A    between atoms: C_6  and  C_7
REMARK    4  A    between atoms: C_15  and  N_16
REMARK    5  A    between atoms: C_19  and  C_20
REMARK    6  A    between atoms: C_20  and  C_21
REMARK    7  A    between atoms: C_21  and  O_22
REMARK    8  A    between atoms: O_22  and  C_23
REMARK                            x       y       z     vdW  Elec       q    Type
REMARK                         _______ _______ _______ _____ _____    ______ ____
ROOT
ATOM      1  C   UNL     1       1.736   5.478  19.434  0.00  0.00    +0.000 C 
ATOM      2  O   UNL     1       1.267   5.593  20.570  0.00  0.00    +0.000 OA
ATOM      3  N   UNL     1       1.807   4.208  18.820  0.00  0.00    +0.000 N 
ATOM      4  C   UNL     1       1.081   3.112  19.459  0.00  0.00    +0.000 C 
ATOM      5  C   UNL     1       1.934   2.086  20.212  0.00  0.00    +0.000 C 
ATOM      6  C   UNL     1       3.123   2.655  20.985  0.00  0.00    +0.000 C 
ATOM      7  C   UNL     1       4.468   2.567  20.258  0.00  0.00    +0.000 C 
ATOM      8  C   UNL     1       4.642   3.393  18.978  0.00  0.00    +0.000 C 
ATOM      9  C   UNL     1       3.769   2.937  17.778  0.00  0.00    +0.000 C 
ATOM     10  C   UNL     1       2.555   3.891  17.593  0.00  0.00    +0.000 C 
ENDROOT
BRANCH   9  11
ATOM     11  N   UNL     1       4.616   2.922  16.574  0.00  0.00    +0.000 N 
ATOM     12  C   UNL     1       5.482   3.928  16.302  0.00  0.00    +0.000 A 
ATOM     13  N   UNL     1       5.775   4.959  17.062  0.00  0.00    +0.000 NA
ATOM     14  C   UNL     1       6.727   5.745  16.415  0.00  0.00    +0.000 A 
ATOM     15  N   UNL     1       7.158   5.391  15.203  0.00  0.00    +0.000 NA
ATOM     16  S   UNL     1       6.357   3.985  14.810  0.00  0.00    +0.000 S 
ATOM     17  H   UNL     1       4.212   2.470  15.762  0.00  0.00    +0.000 HD
BRANCH  14  18
ATOM     18  C   UNL     1       7.184   7.026  17.020  0.00  0.00    +0.000 C 
BRANCH  18  19
ATOM     19  C   UNL     1       7.833   6.768  18.376  0.00  0.00    +0.000 C 
BRANCH  19  20
ATOM     20  O   UNL     1       8.587   7.907  18.796  0.00  0.00    +0.000 OA
ATOM     21  C   UNL     1       8.249   9.050  18.016  0.00  0.00    +0.000 C 
ENDBRANCH  19  20
ENDBRANCH  18  19
ENDBRANCH  14  18
ENDBRANCH   9  11
BRANCH   1  25
ATOM     22  N   UNL     1       2.444   8.713  18.087  0.00  0.00    +0.000 N 
ATOM     23  C   UNL     1       3.587   8.104  17.663  0.00  0.00    +0.000 A 
ATOM     24  C   UNL     1       3.491   6.801  18.091  0.00  0.00    +0.000 A 
ATOM     25  C   UNL     1       2.231   6.695  18.748  0.00  0.00    +0.000 A 
ATOM     26  N   UNL     1       1.614   7.891  18.755  0.00  0.00    +0.000 NA
BRANCH  22  28
ATOM     27  C   UNL     1       0.862  10.502  18.732  0.00  0.00    +0.000 C 
ATOM     28  C   UNL     1       2.116  10.120  17.966  0.00  0.00    +0.000 C 
ENDBRANCH  22  28
ENDBRANCH   1  25
TORSDOF 6
ENDMDL
MODEL 4
REMARK VINA RESULT:      -6.3      1.353      1.621
REMARK  Name = 
REMARK  8 active torsions:
REMARK  status: ('A' for Active; 'I' for Inactive)
REMARK    1  A    between atoms: C_1  and  C_2
REMARK    2  A    between atoms: C_2  and  N_3
REMARK    3  A    between atoms: C_6  and  C_7
REMARK    4  A    between atoms: C_15  and  N_16
REMARK    5  A    between atoms: C_19  and  C_20
REMARK    6  A    between atoms: C_20  and  C_21
REMARK    7  A    between atoms: C_21  and  O_22
REMARK    8  A    between atoms: O_22  and  C_23
REMARK                            x       y       z     vdW  Elec       q    Type
REMARK                         _______ _______ _______ _____ _____    ______ ____
ROOT
ATOM      1  C   UNL     1       4.806   3.420  17.636  0.00  0.00    +0.000 C 
ATOM      2  O   UNL     1       4.826   2.188  17.703  0.00  0.00    +0.000 OA
ATOM      3  N   UNL     1       4.323   4.182  18.723  0.00  0.00    +0.000 N 
ATOM      4  C   UNL     1       4.108   3.484  19.989  0.00  0.00    +0.000 C 
ATOM      5  C   UNL     1       2.649   3.206  20.366  0.00  0.00    +0.000 C 
ATOM      6  C   UNL     1       1.730   2.815  19.209  0.00  0.00    +0.000 C 
ATOM      7  C   UNL     1       0.890   3.960  18.635  0.00  0.00    +0.000 C 
ATOM      8  C   UNL     1       1.631   5.103  17.931  0.00  0.00    +0.000 C 
ATOM      9  C   UNL     1       2.511   5.984  18.858  0.00  0.00    +0.000 C 
ATOM     10  C   UNL     1       4.014   5.621  18.690  0.00  0.00    +0.000 C 
ENDROOT
BRANCH   9  11
ATOM     11  N   UNL     1       2.269   7.395  18.514  0.00  0.00    +0.000 N 
ATOM     12  C   UNL     1       1.752   8.268  19.414  0.00  0.00    +0.000 A 
ATOM     13  N   UNL     1       1.502   8.051  20.685  0.00  0.00    +0.000 NA
ATOM     14  C   UNL     1       0.995   9.218  21.254  0.00  0.00    +0.000 A 
ATOM     15  N   UNL     1       0.821  10.299  20.491  0.00  0.00    +0.000 NA
ATOM     16  S   UNL     1       1.321   9.881  18.959  0.00  0.00    +0.000 S 
ATOM     17  H   UNL     1       2.014   7.571  17.548  0.00  0.00    +0.000 HD
BRANCH  14  18
ATOM     18  C   UNL     1       0.549   9.232  22.674  0.00  0.00    +0.000 C 
BRANCH  18  19
ATOM     19  C   UNL     1      -0.740  10.035  22.815  0.00  0.00    +0.000 C 
BRANCH  19  20
ATOM     20  O   UNL     1      -0.450  11.391  23.163  0.00  0.00    +0.000 OA
ATOM     21  C   UNL     1      -1.613  12.202  23.036  0.00  0.00    +0.000 C 
ENDBRANCH  19  20
ENDBRANCH  18  19
ENDBRANCH  14  18
ENDBRANCH   9  11
BRANCH   1  25
ATOM     22  N   UNL     1       6.076   4.376  14.435  0.00  0.00    +0.000 N 
ATOM     23  C   UNL     1       5.575   5.595  14.784  0.00  0.00    +0.000 A 
ATOM     24  C   UNL     1       5.036   5.426  16.037  0.00  0.00    +0.000 A 
ATOM     25  C   UNL     1       5.281   4.068  16.390  0.00  0.00    +0.000 A 
ATOM     26  N   UNL     1       5.902   3.434  15.379  0.00  0.00    +0.000 NA
BRANCH  22  28
ATOM     27  C   UNL     1       5.707   3.244  12.267  0.00  0.00    +0.000 C 
ATOM     28  C   UNL     1       6.663   4.014  13.159  0.00  0.00    +0.000 C 
ENDBRANCH  22  28
ENDBRANCH   1  25
TORSDOF 6
ENDMDL
MODEL 5
REMARK VINA RESULT:      -5.9      6.050     10.126
REMARK  Name = 
REMARK  8 active torsions:
REMARK  status: ('A' for Active; 'I' for Inactive)
REMARK    1  A    between atoms: C_1  and  C_2
REMARK    2  A    between atoms: C_2  and  N_3
REMARK    3  A    between atoms: C_6  and  C_7
REMARK    4  A    between atoms: C_15  and  N_16
REMARK    5  A    between atoms: C_19  and  C_20
REMARK    6  A    between atoms: C_20  and  C_21
REMARK    7  A    between atoms: C_21  and  O_22
REMARK    8  A    between atoms: O_22  and  C_23
REMARK                            x       y       z     vdW  Elec       q    Type
REMARK                         _______ _______ _______ _____ _____    ______ ____
ROOT
ATOM      1  C   UNL     1      -0.668  13.149  22.135  0.00  0.00    +0.000 C 
ATOM      2  O   UNL     1       0.216  13.854  22.630  0.00  0.00    +0.000 OA
ATOM      3  N   UNL     1      -1.845  13.741  21.625  0.00  0.00    +0.000 N 
ATOM      4  C   UNL     1      -1.853  15.194  21.470  0.00  0.00    +0.000 C 
ATOM      5  C   UNL     1      -2.672  15.978  22.501  0.00  0.00    +0.000 C 
ATOM      6  C   UNL     1      -2.614  15.447  23.933  0.00  0.00    +0.000 C 
ATOM      7  C   UNL     1      -3.793  14.559  24.341  0.00  0.00    +0.000 C 
ATOM      8  C   UNL     1      -3.949  13.210  23.630  0.00  0.00    +0.000 C 
ATOM      9  C   UNL     1      -4.316  13.301  22.124  0.00  0.00    +0.000 C 
ATOM     10  C   UNL     1      -3.068  13.018  21.240  0.00  0.00    +0.000 C 
ENDROOT
BRANCH   9  11
ATOM     11  N   UNL     1      -5.385  12.325  21.853  0.00  0.00    +0.000 N 
ATOM     12  C   UNL     1      -5.716  11.965  20.589  0.00  0.00    +0.000 A 
ATOM     13  N   UNL     1      -5.114  12.314  19.475  0.00  0.00    +0.000 NA
ATOM     14  C   UNL     1      -5.762  11.709  18.400  0.00  0.00    +0.000 A 
ATOM     15  N   UNL     1      -6.833  10.944  18.623  0.00  0.00    +0.000 NA
ATOM     16  S   UNL     1      -7.076  10.943  20.270  0.00  0.00    +0.000 S 
ATOM     17  H   UNL     1      -6.152  12.323  22.517  0.00  0.00    +0.000 HD
BRANCH  14  18
ATOM     18  C   UNL     1      -5.334  11.996  17.003  0.00  0.00    +0.000 C 
BRANCH  18  19
ATOM     19  C   UNL     1      -4.026  11.276  16.693  0.00  0.00    +0.000 C 
BRANCH  19  20
ATOM     20  O   UNL     1      -4.147  10.513  15.491  0.00  0.00    +0.000 OA
ATOM     21  C   UNL     1      -2.878  10.361  14.862  0.00  0.00    +0.000 C 
ENDBRANCH  19  20
ENDBRANCH  18  19
ENDBRANCH  14  18
ENDBRANCH   9  11
BRANCH   1  25
ATOM     22  N   UNL     1       0.240   9.734  21.599  0.00  0.00    +0.000 N 
ATOM     23  C   UNL     1      -0.472   9.537  22.744  0.00  0.00    +0.000 A 
ATOM     24  C   UNL     1      -0.929  10.780  23.112  0.00  0.00    +0.000 A 
ATOM     25  C   UNL     1      -0.469  11.680  22.108  0.00  0.00    +0.000 A 
ATOM     26  N   UNL     1       0.270  11.018  21.199  0.00  0.00    +0.000 NA
BRANCH  22  28
ATOM     27  C   UNL     1       1.216   9.103  19.415  0.00  0.00    +0.000 C 
ATOM     28  C   UNL     1       1.006   8.739  20.873  0.00  0.00    +0.000 C 
ENDBRANCH  22  28
ENDBRANCH   1  25
TORSDOF 6
ENDMDL
MODEL 6
REMARK VINA RESULT:      -5.9      2.612      3.226
REMARK  Name = 
REMARK  8 active torsions:
REMARK  status: ('A' for Active; 'I' for Inactive)
REMARK    1  A    between atoms: C_1  and  C_2
REMARK    2  A    between atoms: C_2  and  N_3
REMARK    3  A    between atoms: C_6  and  C_7
REMARK    4  A    between atoms: C_15  and  N_16
REMARK    5  A    between atoms: C_19  and  C_20
REMARK    6  A    between atoms: C_20  and  C_21
REMARK    7  A    between atoms: C_21  and  O_22
REMARK    8  A    between atoms: O_22  and  C_23
REMARK                            x       y       z     vdW  Elec       q    Type
REMARK                         _______ _______ _______ _____ _____    ______ ____
ROOT
ATOM      1  C   UNL     1       5.309   4.220  17.799  0.00  0.00    +0.000 C 
ATOM      2  O   UNL     1       5.559   3.426  16.887  0.00  0.00    +0.000 OA
ATOM      3  N   UNL     1       4.615   3.783  18.949  0.00  0.00    +0.000 N 
ATOM      4  C   UNL     1       4.450   2.342  19.127  0.00  0.00    +0.000 C 
ATOM      5  C   UNL     1       3.048   1.786  18.856  0.00  0.00    +0.000 C 
ATOM      6  C   UNL     1       2.303   2.415  17.679  0.00  0.00    +0.000 C 
ATOM      7  C   UNL     1       1.302   3.510  18.059  0.00  0.00    +0.000 C 
ATOM      8  C   UNL     1       1.857   4.804  18.665  0.00  0.00    +0.000 C 
ATOM      9  C   UNL     1       2.487   4.651  20.076  0.00  0.00    +0.000 C 
ATOM     10  C   UNL     1       4.039   4.658  19.984  0.00  0.00    +0.000 C 
ENDROOT
BRANCH   9  11
ATOM     11  N   UNL     1       2.004   5.759  20.916  0.00  0.00    +0.000 N 
ATOM     12  C   UNL     1       1.851   7.012  20.421  0.00  0.00    +0.000 A 
ATOM     13  N   UNL     1       1.990   7.402  19.174  0.00  0.00    +0.000 NA
ATOM     14  C   UNL     1       1.723   8.767  19.093  0.00  0.00    +0.000 A 
ATOM     15  N   UNL     1       1.416   9.445  20.201  0.00  0.00    +0.000 NA
ATOM     16  S   UNL     1       1.438   8.342  21.449  0.00  0.00    +0.000 S 
ATOM     17  H   UNL     1       2.266   5.711  21.895  0.00  0.00    +0.000 HD
BRANCH  14  18
ATOM     18  C   UNL     1       1.884   9.491  17.802  0.00  0.00    +0.000 C 
BRANCH  18  19
ATOM     19  C   UNL     1       1.539  10.966  17.977  0.00  0.00    +0.000 C 
BRANCH  19  20
ATOM     20  O   UNL     1       2.714  11.772  17.863  0.00  0.00    +0.000 OA
ATOM     21  C   UNL     1       2.535  13.020  18.526  0.00  0.00    +0.000 C 
ENDBRANCH  19  20
ENDBRANCH  18  19
ENDBRANCH  14  18
ENDBRANCH   9  11
BRANCH   1  25
ATOM     22  N   UNL     1       6.939   7.387  17.500  0.00  0.00    +0.000 N 
ATOM     23  C   UNL     1       5.701   7.800  17.105  0.00  0.00    +0.000 A 
ATOM     24  C   UNL     1       4.903   6.684  17.168  0.00  0.00    +0.000 A 
ATOM     25  C   UNL     1       5.736   5.631  17.644  0.00  0.00    +0.000 A 
ATOM     26  N   UNL     1       6.992   6.081  17.819  0.00  0.00    +0.000 NA
BRANCH  22  28
ATOM     27  C   UNL     1       7.948   9.570  18.079  0.00  0.00    +0.000 C 
ATOM     28  C   UNL     1       8.154   8.177  17.511  0.00  0.00    +0.000 C 
ENDBRANCH  22  28
ENDBRANCH   1  25
TORSDOF 6
ENDMDL
MODEL 7
REMARK VINA RESULT:      -5.8      1.564      1.877
REMARK  Name = 
REMARK  8 active torsions:
REMARK  status: ('A' for Active; 'I' for Inactive)
REMARK    1  A    between atoms: C_1  and  C_2
REMARK    2  A    between atoms: C_2  and  N_3
REMARK    3  A    between atoms: C_6  and  C_7
REMARK    4  A    between atoms: C_15  and  N_16
REMARK    5  A    between atoms: C_19  and  C_20
REMARK    6  A    between atoms: C_20  and  C_21
REMARK    7  A    between atoms: C_21  and  O_22
REMARK    8  A    between atoms: O_22  and  C_23
REMARK                            x       y       z     vdW  Elec       q    Type
REMARK                         _______ _______ _______ _____ _____    ______ ____
ROOT
ATOM      1  C   UNL     1       4.730   4.474  19.701  0.00  0.00    +0.000 C 
ATOM      2  O   UNL     1       4.742   3.245  19.822  0.00  0.00    +0.000 OA
ATOM      3  N   UNL     1       3.569   5.208  20.031  0.00  0.00    +0.000 N 
ATOM      4  C   UNL     1       2.512   4.502  20.753  0.00  0.00    +0.000 C 
ATOM      5  C   UNL     1       1.268   4.133  19.936  0.00  0.00    +0.000 C 
ATOM      6  C   UNL     1       1.531   3.680  18.501  0.00  0.00    +0.000 C 
ATOM      7  C   UNL     1       1.351   4.766  17.437  0.00  0.00    +0.000 C 
ATOM      8  C   UNL     1       2.324   5.951  17.457  0.00  0.00    +0.000 C 
ATOM      9  C   UNL     1       2.187   6.891  18.686  0.00  0.00    +0.000 C 
ATOM     10  C   UNL     1       3.330   6.624  19.706  0.00  0.00    +0.000 C 
ENDROOT
BRANCH   9  11
ATOM     11  N   UNL     1       2.225   8.282  18.205  0.00  0.00    +0.000 N 
ATOM     12  C   UNL     1       1.415   9.236  18.726  0.00  0.00    +0.000 A 
ATOM     13  N   UNL     1       0.597   9.121  19.747  0.00  0.00    +0.000 NA
ATOM     14  C   UNL     1      -0.032  10.345  19.965  0.00  0.00    +0.000 A 
ATOM     15  N   UNL     1       0.235  11.375  19.160  0.00  0.00    +0.000 NA
ATOM     16  S   UNL     1       1.350  10.828  18.050  0.00  0.00    +0.000 S 
ATOM     17  H   UNL     1       2.453   8.398  17.223  0.00  0.00    +0.000 HD
BRANCH  14  18
ATOM     18  C   UNL     1      -1.076  10.478  21.018  0.00  0.00    +0.000 C 
BRANCH  18  19
ATOM     19  C   UNL     1      -0.527  11.256  22.210  0.00  0.00    +0.000 C 
BRANCH  19  20
ATOM     20  O   UNL     1       0.507  10.514  22.859  0.00  0.00    +0.000 OA
ATOM     21  C   UNL     1      -0.031   9.378  23.528  0.00  0.00    +0.000 C 
ENDBRANCH  19  20
ENDBRANCH  18  19
ENDBRANCH  14  18
ENDBRANCH   9  11
BRANCH   1  25
ATOM     22  N   UNL     1       7.251   6.435  18.097  0.00  0.00    +0.000 N 
ATOM     23  C   UNL     1       8.055   5.876  19.045  0.00  0.00    +0.000 A 
ATOM     24  C   UNL     1       7.239   5.050  19.780  0.00  0.00    +0.000 A 
ATOM     25  C   UNL     1       5.947   5.145  19.187  0.00  0.00    +0.000 A 
ATOM     26  N   UNL     1       5.972   6.022  18.166  0.00  0.00    +0.000 NA
BRANCH  22  28
ATOM     27  C   UNL     1       8.090   8.742  17.791  0.00  0.00    +0.000 C 
ATOM     28  C   UNL     1       7.625   7.454  17.136  0.00  0.00    +0.000 C 
ENDBRANCH  22  28
ENDBRANCH   1  25
TORSDOF 6
ENDMDL
MODEL 8
REMARK VINA RESULT:      -5.8      2.593      3.325
REMARK  Name = 
REMARK  8 active torsions:
REMARK  status: ('A' for Active; 'I' for Inactive)
REMARK    1  A    between atoms: C_1  and  C_2
REMARK    2  A    between atoms: C_2  and  N_3
REMARK    3  A    between atoms: C_6  and  C_7
REMARK    4  A    between atoms: C_15  and  N_16
REMARK    5  A    between atoms: C_19  and  C_20
REMARK    6  A    between atoms: C_20  and  C_21
REMARK    7  A    between atoms: C_21  and  O_22
REMARK    8  A    between atoms: O_22  and  C_23
REMARK                            x       y       z     vdW  Elec       q    Type
REMARK                         _______ _______ _______ _____ _____    ______ ____
ROOT
ATOM      1  C   UNL     1       5.472   4.460  17.653  0.00  0.00    +0.000 C 
ATOM      2  O   UNL     1       5.652   3.753  16.658  0.00  0.00    +0.000 OA
ATOM      3  N   UNL     1       4.701   3.980  18.735  0.00  0.00    +0.000 N 
ATOM      4  C   UNL     1       4.363   2.558  18.740  0.00  0.00    +0.000 C 
ATOM      5  C   UNL     1       2.914   2.209  18.386  0.00  0.00    +0.000 C 
ATOM      6  C   UNL     1       2.280   3.054  17.282  0.00  0.00    +0.000 C 
ATOM      7  C   UNL     1       1.404   4.210  17.775  0.00  0.00    +0.000 C 
ATOM      8  C   UNL     1       2.091   5.350  18.537  0.00  0.00    +0.000 C 
ATOM      9  C   UNL     1       2.660   4.960  19.928  0.00  0.00    +0.000 C 
ATOM     10  C   UNL     1       4.204   4.792  19.859  0.00  0.00    +0.000 C 
ENDROOT
BRANCH   9  11
ATOM     11  N   UNL     1       2.287   6.014  20.887  0.00  0.00    +0.000 N 
ATOM     12  C   UNL     1       1.877   7.238  20.473  0.00  0.00    +0.000 A 
ATOM     13  N   UNL     1       1.649   7.631  19.240  0.00  0.00    +0.000 NA
ATOM     14  C   UNL     1       1.222   8.958  19.258  0.00  0.00    +0.000 A 
ATOM     15  N   UNL     1       1.134   9.605  20.422  0.00  0.00    +0.000 NA
ATOM     16  S   UNL     1       1.594   8.521  21.600  0.00  0.00    +0.000 S 
ATOM     17  H   UNL     1       2.794   6.004  21.765  0.00  0.00    +0.000 HD
BRANCH  14  18
ATOM     18  C   UNL     1       0.968   9.685  17.984  0.00  0.00    +0.000 C 
BRANCH  18  19
ATOM     19  C   UNL     1      -0.391  10.375  18.032  0.00  0.00    +0.000 C 
BRANCH  19  20
ATOM     20  O   UNL     1      -1.314   9.726  17.156  0.00  0.00    +0.000 OA
ATOM     21  C   UNL     1      -2.439  10.561  16.902  0.00  0.00    +0.000 C 
ENDBRANCH  19  20
ENDBRANCH  18  19
ENDBRANCH  14  18
ENDBRANCH   9  11
BRANCH   1  25
ATOM     22  N   UNL     1       7.388   7.455  18.026  0.00  0.00    +0.000 N 
ATOM     23  C   UNL     1       6.484   7.947  17.132  0.00  0.00    +0.000 A 
ATOM     24  C   UNL     1       5.625   6.908  16.866  0.00  0.00    +0.000 A 
ATOM     25  C   UNL     1       6.066   5.818  17.671  0.00  0.00    +0.000 A 
ATOM     26  N   UNL     1       7.168   6.170  18.360  0.00  0.00    +0.000 NA
BRANCH  22  28
ATOM     27  C   UNL     1       8.548   9.628  18.249  0.00  0.00    +0.000 C 
ATOM     28  C   UNL     1       8.558   8.139  18.541  0.00  0.00    +0.000 C 
ENDBRANCH  22  28
ENDBRANCH   1  25
TORSDOF 6
ENDMDL
MODEL 9
REMARK VINA RESULT:      -5.8      3.654      8.894
REMARK  Name = 
REMARK  8 active torsions:
REMARK  status: ('A' for Active; 'I' for Inactive)
REMARK    1  A    between atoms: C_1  and  C_2
REMARK    2  A    between atoms: C_2  and  N_3
REMARK    3  A    between atoms: C_6  and  C_7
REMARK    4  A    between atoms: C_15  and  N_16
REMARK    5  A    between atoms: C_19  and  C_20
REMARK    6  A    between atoms: C_20  and  C_21
REMARK    7  A    between atoms: C_21  and  O_22
REMARK    8  A    between atoms: O_22  and  C_23
REMARK                            x       y       z     vdW  Elec       q    Type
REMARK                         _______ _______ _______ _____ _____    ______ ____
ROOT
ATOM      1  C   UNL     1      -2.313  11.869  19.464  0.00  0.00    +0.000 C 
ATOM      2  O   UNL     1      -2.808  12.810  20.092  0.00  0.00    +0.000 OA
ATOM      3  N   UNL     1      -1.236  11.139  20.013  0.00  0.00    +0.000 N 
ATOM      4  C   UNL     1      -0.921  11.364  21.422  0.00  0.00    +0.000 C 
ATOM      5  C   UNL     1       0.335  12.195  21.708  0.00  0.00    +0.000 C 
ATOM      6  C   UNL     1       0.581  13.368  20.760  0.00  0.00    +0.000 C 
ATOM      7  C   UNL     1       1.575  13.087  19.629  0.00  0.00    +0.000 C 
ATOM      8  C   UNL     1       1.176  12.051  18.571  0.00  0.00    +0.000 C 
ATOM      9  C   UNL     1       1.086  10.589  19.087  0.00  0.00    +0.000 C 
ATOM     10  C   UNL     1      -0.399  10.171  19.285  0.00  0.00    +0.000 C 
ENDROOT
BRANCH   9  11
ATOM     11  N   UNL     1       1.753   9.716  18.106  0.00  0.00    +0.000 N 
ATOM     12  C   UNL     1       2.162   8.465  18.431  0.00  0.00    +0.000 A 
ATOM     13  N   UNL     1       1.951   7.822  19.557  0.00  0.00    +0.000 NA
ATOM     14  C   UNL     1       2.523   6.554  19.469  0.00  0.00    +0.000 A 
ATOM     15  N   UNL     1       3.176   6.202  18.359  0.00  0.00    +0.000 NA
ATOM     16  S   UNL     1       3.085   7.504  17.326  0.00  0.00    +0.000 S 
ATOM     17  H   UNL     1       2.326  10.192  17.417  0.00  0.00    +0.000 HD
BRANCH  14  18
ATOM     18  C   UNL     1       2.502   5.635  20.640  0.00  0.00    +0.000 C 
BRANCH  18  19
ATOM     19  C   UNL     1       1.241   4.778  20.616  0.00  0.00    +0.000 C 
BRANCH  19  20
ATOM     20  O   UNL     1       1.135   4.077  19.375  0.00  0.00    +0.000 OA
ATOM     21  C   UNL     1       1.390   2.689  19.558  0.00  0.00    +0.000 C 
ENDBRANCH  19  20
ENDBRANCH  18  19
ENDBRANCH  14  18
ENDBRANCH   9  11
BRANCH   1  25
ATOM     22  N   UNL     1      -3.074  10.784  16.145  0.00  0.00    +0.000 N 
ATOM     23  C   UNL     1      -4.326  11.217  16.468  0.00  0.00    +0.000 A 
ATOM     24  C   UNL     1      -4.229  11.699  17.751  0.00  0.00    +0.000 A 
ATOM     25  C   UNL     1      -2.863  11.545  18.126  0.00  0.00    +0.000 A 
ATOM     26  N   UNL     1      -2.175  10.958  17.130  0.00  0.00    +0.000 NA
BRANCH  22  28
ATOM     27  C   UNL     1      -3.779  10.082  13.880  0.00  0.00    +0.000 C 
ATOM     28  C   UNL     1      -2.681  10.101  14.928  0.00  0.00    +0.000 C 
ENDBRANCH  22  28
ENDBRANCH   1  25
TORSDOF 6
ENDMDL
