MODEL 1
REMARK VINA RESULT:      -7.0      0.000      0.000
REMARK  Name = 
REMARK  10 active torsions:
REMARK  status: ('A' for Active; 'I' for Inactive)
REMARK    1  A    between atoms: C_1  and  C_2
REMARK    2  A    between atoms: C_2  and  C_3
REMARK    3  A    between atoms: C_2  and  C_4
REMARK    4  A    between atoms: C_2  and  O_5
REMARK    5  A    between atoms: O_5  and  C_6
REMARK    6  A    between atoms: C_9  and  C_10
REMARK    7  A    between atoms: C_10  and  O_11
REMARK    8  A    between atoms: O_11  and  C_12
REMARK    9  A    between atoms: C_21  and  C_22
REMARK   10  A    between atoms: C_21  and  C_23
REMARK                            x       y       z     vdW  Elec       q    Type
REMARK                         _______ _______ _______ _____ _____    ______ ____
ROOT
ATOM      1  C   UNL     1       4.853   4.513  18.953  0.00  0.00    +0.000 C 
ATOM      2  O   UNL     1       5.456   5.251  19.719  0.00  0.00    +0.000 OA
ATOM      3  N   UNL     1       3.540   4.159  19.159  0.00  0.00    +0.000 N 
ATOM      4  C   UNL     1       2.777   4.728  20.254  0.00  0.00    +0.000 C 
ATOM      5  C   UNL     1       1.414   4.089  20.072  0.00  0.00    +0.000 C 
ATOM      6  O   UNL     1       1.676   2.840  19.416  0.00  0.00    +0.000 OA
ATOM      7  C   UNL     1       2.848   3.025  18.582  0.00  0.00    +0.000 C 
ATOM      8  C   UNL     1       2.368   3.291  17.156  0.00  0.00    +0.000 C 
ATOM      9  C   UNL     1       3.633   1.713  18.672  0.00  0.00    +0.000 C 
ENDROOT
BRANCH   1  10
ATOM     10  O   UNL     1       5.388   3.972  17.828  0.00  0.00    +0.000 OA
BRANCH  10  12
ATOM     11  C   UNL     1       7.255   5.280  16.920  0.00  0.00    +0.000 C 
ATOM     12  C   UNL     1       5.792   4.850  16.742  0.00  0.00    +0.000 C 
ATOM     13  C   UNL     1       4.843   6.049  16.590  0.00  0.00    +0.000 C 
ATOM     14  C   UNL     1       5.698   4.011  15.457  0.00  0.00    +0.000 C 
ENDBRANCH  10  12
ENDBRANCH   1  10
BRANCH   4  15
ATOM     15  C   UNL     1       2.684   6.261  20.246  0.00  0.00    +0.000 C 
BRANCH  15  16
ATOM     16  O   UNL     1       2.295   6.730  18.947  0.00  0.00    +0.000 OA
BRANCH  16  17
ATOM     17  C   UNL     1       1.916   8.060  18.974  0.00  0.00    +0.000 A 
ATOM     18  C   UNL     1       2.237   8.828  17.864  0.00  0.00    +0.000 A 
ATOM     19  C   UNL     1       1.871  10.175  17.862  0.00  0.00    +0.000 A 
ATOM     20  C   UNL     1       1.196  10.698  18.959  0.00  0.00    +0.000 A 
ATOM     21 CL   UNL     1       0.721  12.346  18.995  0.00  0.00    +0.000 Cl
ATOM     22  C   UNL     1       0.917   9.854  20.021  0.00  0.00    +0.000 A 
ATOM     23  N   UNL     1       1.271   8.549  20.056  0.00  0.00    +0.000 NA
ENDBRANCH  16  17
ENDBRANCH  15  16
ENDBRANCH   4  15
TORSDOF 5
ENDMDL
MODEL 2
REMARK VINA RESULT:      -6.8      0.883      1.387
REMARK  Name = 
REMARK  10 active torsions:
REMARK  status: ('A' for Active; 'I' for Inactive)
REMARK    1  A    between atoms: C_1  and  C_2
REMARK    2  A    between atoms: C_2  and  C_3
REMARK    3  A    between atoms: C_2  and  C_4
REMARK    4  A    between atoms: C_2  and  O_5
REMARK    5  A    between atoms: O_5  and  C_6
REMARK    6  A    between atoms: C_9  and  C_10
REMARK    7  A    between atoms: C_10  and  O_11
REMARK    8  A    between atoms: O_11  and  C_12
REMARK    9  A    between atoms: C_21  and  C_22
REMARK   10  A    between atoms: C_21  and  C_23
REMARK                            x       y       z     vdW  Elec       q    Type
REMARK                         _______ _______ _______ _____ _____    ______ ____
ROOT
ATOM      1  C   UNL     1       4.793   4.622  18.963  0.00  0.00    +0.000 C 
ATOM      2  O   UNL     1       5.340   5.443  19.685  0.00  0.00    +0.000 OA
ATOM      3  N   UNL     1       3.479   4.257  19.134  0.00  0.00    +0.000 N 
ATOM      4  C   UNL     1       2.648   4.907  20.130  0.00  0.00    +0.000 C 
ATOM      5  C   UNL     1       1.309   4.219  19.940  0.00  0.00    +0.000 C 
ATOM      6  O   UNL     1       1.631   2.921  19.419  0.00  0.00    +0.000 OA
ATOM      7  C   UNL     1       2.842   3.056  18.632  0.00  0.00    +0.000 C 
ATOM      8  C   UNL     1       2.433   3.176  17.165  0.00  0.00    +0.000 C 
ATOM      9  C   UNL     1       3.647   1.778  18.886  0.00  0.00    +0.000 C 
ENDROOT
BRANCH   1  10
ATOM     10  O   UNL     1       5.399   3.992  17.923  0.00  0.00    +0.000 OA
BRANCH  10  12
ATOM     11  C   UNL     1       7.309   5.258  17.044  0.00  0.00    +0.000 C 
ATOM     12  C   UNL     1       5.872   4.779  16.795  0.00  0.00    +0.000 C 
ATOM     13  C   UNL     1       4.917   5.935  16.462  0.00  0.00    +0.000 C 
ATOM     14  C   UNL     1       5.892   3.825  15.589  0.00  0.00    +0.000 C 
ENDBRANCH  10  12
ENDBRANCH   1  10
BRANCH   4  15
ATOM     15  C   UNL     1       2.524   6.429  19.971  0.00  0.00    +0.000 C 
BRANCH  15  16
ATOM     16  O   UNL     1       1.552   6.949  20.889  0.00  0.00    +0.000 OA
BRANCH  16  17
ATOM     17  C   UNL     1       1.276   8.282  20.644  0.00  0.00    +0.000 A 
ATOM     18  C   UNL     1       0.862   9.047  21.724  0.00  0.00    +0.000 A 
ATOM     19  C   UNL     1       0.573  10.396  21.509  0.00  0.00    +0.000 A 
ATOM     20  C   UNL     1       0.716  10.927  20.232  0.00  0.00    +0.000 A 
ATOM     21 CL   UNL     1       0.379  12.580  19.924  0.00  0.00    +0.000 Cl
ATOM     22  C   UNL     1       1.137  10.086  19.215  0.00  0.00    +0.000 A 
ATOM     23  N   UNL     1       1.411   8.772  19.392  0.00  0.00    +0.000 NA
ENDBRANCH  16  17
ENDBRANCH  15  16
ENDBRANCH   4  15
TORSDOF 5
ENDMDL
MODEL 3
REMARK VINA RESULT:      -6.6      0.820      1.285
REMARK  Name = 
REMARK  10 active torsions:
REMARK  status: ('A' for Active; 'I' for Inactive)
REMARK    1  A    between atoms: C_1  and  C_2
REMARK    2  A    between atoms: C_2  and  C_3
REMARK    3  A    between atoms: C_2  and  C_4
REMARK    4  A    between atoms: C_2  and  O_5
REMARK    5  A    between atoms: O_5  and  C_6
REMARK    6  A    between atoms: C_9  and  C_10
REMARK    7  A    between atoms: C_10  and  O_11
REMARK    8  A    between atoms: O_11  and  C_12
REMARK    9  A    between atoms: C_21  and  C_22
REMARK   10  A    between atoms: C_21  and  C_23
REMARK                            x       y       z     vdW  Elec       q    Type
REMARK                         _______ _______ _______ _____ _____    ______ ____
ROOT
ATOM      1  C   UNL     1       4.776   4.771  18.992  0.00  0.00    +0.000 C 
ATOM      2  O   UNL     1       5.274   5.659  19.670  0.00  0.00    +0.000 OA
ATOM      3  N   UNL     1       3.465   4.384  19.141  0.00  0.00    +0.000 N 
ATOM      4  C   UNL     1       2.580   5.084  20.053  0.00  0.00    +0.000 C 
ATOM      5  C   UNL     1       1.267   4.348  19.866  0.00  0.00    +0.000 C 
ATOM      6  O   UNL     1       1.640   3.024  19.457  0.00  0.00    +0.000 OA
ATOM      7  C   UNL     1       2.877   3.133  18.709  0.00  0.00    +0.000 C 
ATOM      8  C   UNL     1       2.523   3.132  17.222  0.00  0.00    +0.000 C 
ATOM      9  C   UNL     1       3.702   1.900  19.088  0.00  0.00    +0.000 C 
ENDROOT
BRANCH   1  10
ATOM     10  O   UNL     1       5.437   4.081  18.026  0.00  0.00    +0.000 OA
BRANCH  10  12
ATOM     11  C   UNL     1       4.926   5.988  16.569  0.00  0.00    +0.000 C 
ATOM     12  C   UNL     1       5.827   4.769  16.806  0.00  0.00    +0.000 C 
ATOM     13  C   UNL     1       5.860   3.819  15.598  0.00  0.00    +0.000 C 
ATOM     14  C   UNL     1       7.260   5.277  17.042  0.00  0.00    +0.000 C 
ENDBRANCH  10  12
ENDBRANCH   1  10
BRANCH   4  15
ATOM     15  C   UNL     1       2.426   6.586  19.775  0.00  0.00    +0.000 C 
BRANCH  15  16
ATOM     16  O   UNL     1       1.648   7.207  20.808  0.00  0.00    +0.000 OA
BRANCH  16  17
ATOM     17  C   UNL     1       1.332   8.517  20.496  0.00  0.00    +0.000 A 
ATOM     18  C   UNL     1       1.474   8.900  19.170  0.00  0.00    +0.000 A 
ATOM     19  C   UNL     1       1.166  10.217  18.824  0.00  0.00    +0.000 A 
ATOM     20  C   UNL     1       0.725  11.094  19.809  0.00  0.00    +0.000 A 
ATOM     21 CL   UNL     1       0.329  12.719  19.427  0.00  0.00    +0.000 Cl
ATOM     22  C   UNL     1       0.613  10.621  21.106  0.00  0.00    +0.000 A 
ATOM     23  N   UNL     1       0.916   9.354  21.472  0.00  0.00    +0.000 NA
ENDBRANCH  16  17
ENDBRANCH  15  16
ENDBRANCH   4  15
TORSDOF 5
ENDMDL
MODEL 4
REMARK VINA RESULT:      -6.3      3.713      6.578
REMARK  Name = 
REMARK  10 active torsions:
REMARK  status: ('A' for Active; 'I' for Inactive)
REMARK    1  A    between atoms: C_1  and  C_2
REMARK    2  A    between atoms: C_2  and  C_3
REMARK    3  A    between atoms: C_2  and  C_4
REMARK    4  A    between atoms: C_2  and  O_5
REMARK    5  A    between atoms: O_5  and  C_6
REMARK    6  A    between atoms: C_9  and  C_10
REMARK    7  A    between atoms: C_10  and  O_11
REMARK    8  A    between atoms: O_11  and  C_12
REMARK    9  A    between atoms: C_21  and  C_22
REMARK   10  A    between atoms: C_21  and  C_23
REMARK                            x       y       z     vdW  Elec       q    Type
REMARK                         _______ _______ _______ _____ _____    ______ ____
ROOT
ATOM      1  C   UNL     1       4.756   4.697  19.403  0.00  0.00    +0.000 C 
ATOM      2  O   UNL     1       5.927   4.457  19.662  0.00  0.00    +0.000 OA
ATOM      3  N   UNL     1       4.390   5.653  18.486  0.00  0.00    +0.000 N 
ATOM      4  C   UNL     1       5.389   6.362  17.707  0.00  0.00    +0.000 C 
ATOM      5  C   UNL     1       4.543   7.268  16.834  0.00  0.00    +0.000 C 
ATOM      6  O   UNL     1       3.341   7.489  17.586  0.00  0.00    +0.000 OA
ATOM      7  C   UNL     1       3.097   6.298  18.376  0.00  0.00    +0.000 C 
ATOM      8  C   UNL     1       2.075   5.443  17.628  0.00  0.00    +0.000 C 
ATOM      9  C   UNL     1       2.540   6.794  19.714  0.00  0.00    +0.000 C 
ENDROOT
BRANCH   1  10
ATOM     10  O   UNL     1       3.699   4.058  19.969  0.00  0.00    +0.000 OA
BRANCH  10  12
ATOM     11  C   UNL     1       3.819   2.398  18.164  0.00  0.00    +0.000 C 
ATOM     12  C   UNL     1       3.449   2.666  19.630  0.00  0.00    +0.000 C 
ATOM     13  C   UNL     1       2.007   2.246  19.957  0.00  0.00    +0.000 C 
ATOM     14  C   UNL     1       4.392   1.835  20.517  0.00  0.00    +0.000 C 
ENDBRANCH  10  12
ENDBRANCH   1  10
BRANCH   4  15
ATOM     15  C   UNL     1       6.304   5.462  16.863  0.00  0.00    +0.000 C 
BRANCH  15  16
ATOM     16  O   UNL     1       6.639   6.111  15.629  0.00  0.00    +0.000 OA
BRANCH  16  17
ATOM     17  C   UNL     1       6.594   5.235  14.560  0.00  0.00    +0.000 A 
ATOM     18  C   UNL     1       5.582   4.287  14.564  0.00  0.00    +0.000 A 
ATOM     19  C   UNL     1       5.511   3.387  13.500  0.00  0.00    +0.000 A 
ATOM     20  C   UNL     1       6.446   3.472  12.474  0.00  0.00    +0.000 A 
ATOM     21 CL   UNL     1       6.393   2.389  11.144  0.00  0.00    +0.000 Cl
ATOM     22  C   UNL     1       7.421   4.452  12.555  0.00  0.00    +0.000 A 
ATOM     23  N   UNL     1       7.521   5.330  13.580  0.00  0.00    +0.000 NA
ENDBRANCH  16  17
ENDBRANCH  15  16
ENDBRANCH   4  15
TORSDOF 5
ENDMDL
MODEL 5
REMARK VINA RESULT:      -6.3      1.929      3.852
REMARK  Name = 
REMARK  10 active torsions:
REMARK  status: ('A' for Active; 'I' for Inactive)
REMARK    1  A    between atoms: C_1  and  C_2
REMARK    2  A    between atoms: C_2  and  C_3
REMARK    3  A    between atoms: C_2  and  C_4
REMARK    4  A    between atoms: C_2  and  O_5
REMARK    5  A    between atoms: O_5  and  C_6
REMARK    6  A    between atoms: C_9  and  C_10
REMARK    7  A    between atoms: C_10  and  O_11
REMARK    8  A    between atoms: O_11  and  C_12
REMARK    9  A    between atoms: C_21  and  C_22
REMARK   10  A    between atoms: C_21  and  C_23
REMARK                            x       y       z     vdW  Elec       q    Type
REMARK                         _______ _______ _______ _____ _____    ______ ____
ROOT
ATOM      1  C   UNL     1       2.575   4.438  17.609  0.00  0.00    +0.000 C 
ATOM      2  O   UNL     1       1.400   4.778  17.619  0.00  0.00    +0.000 OA
ATOM      3  N   UNL     1       3.601   5.351  17.549  0.00  0.00    +0.000 N 
ATOM      4  C   UNL     1       3.334   6.777  17.593  0.00  0.00    +0.000 C 
ATOM      5  C   UNL     1       4.727   7.374  17.533  0.00  0.00    +0.000 C 
ATOM      6  O   UNL     1       5.517   6.400  16.835  0.00  0.00    +0.000 OA
ATOM      7  C   UNL     1       4.967   5.094  17.142  0.00  0.00    +0.000 C 
ATOM      8  C   UNL     1       5.810   4.484  18.262  0.00  0.00    +0.000 C 
ATOM      9  C   UNL     1       5.082   4.280  15.849  0.00  0.00    +0.000 C 
ENDROOT
BRANCH   1  10
ATOM     10  O   UNL     1       3.000   3.149  17.661  0.00  0.00    +0.000 OA
BRANCH  10  12
ATOM     11  C   UNL     1       1.308   1.845  18.869  0.00  0.00    +0.000 C 
ATOM     12  C   UNL     1       2.751   2.369  18.863  0.00  0.00    +0.000 C 
ATOM     13  C   UNL     1       3.095   3.155  20.138  0.00  0.00    +0.000 C 
ATOM     14  C   UNL     1       3.696   1.158  18.788  0.00  0.00    +0.000 C 
ENDBRANCH  10  12
ENDBRANCH   1  10
BRANCH   4  15
ATOM     15  C   UNL     1       2.573   7.252  18.839  0.00  0.00    +0.000 C 
BRANCH  15  16
ATOM     16  O   UNL     1       1.981   8.537  18.603  0.00  0.00    +0.000 OA
BRANCH  16  17
ATOM     17  C   UNL     1       1.274   8.986  19.703  0.00  0.00    +0.000 A 
ATOM     18  C   UNL     1       0.366  10.013  19.491  0.00  0.00    +0.000 A 
ATOM     19  C   UNL     1      -0.361  10.491  20.583  0.00  0.00    +0.000 A 
ATOM     20  C   UNL     1      -0.160   9.922  21.836  0.00  0.00    +0.000 A 
ATOM     21 CL   UNL     1      -1.037  10.475  23.203  0.00  0.00    +0.000 Cl
ATOM     22  C   UNL     1       0.767   8.900  21.951  0.00  0.00    +0.000 A 
ATOM     23  N   UNL     1       1.495   8.426  20.913  0.00  0.00    +0.000 NA
ENDBRANCH  16  17
ENDBRANCH  15  16
ENDBRANCH   4  15
TORSDOF 5
ENDMDL
MODEL 6
REMARK VINA RESULT:      -6.2      1.311      1.696
REMARK  Name = 
REMARK  10 active torsions:
REMARK  status: ('A' for Active; 'I' for Inactive)
REMARK    1  A    between atoms: C_1  and  C_2
REMARK    2  A    between atoms: C_2  and  C_3
REMARK    3  A    between atoms: C_2  and  C_4
REMARK    4  A    between atoms: C_2  and  O_5
REMARK    5  A    between atoms: O_5  and  C_6
REMARK    6  A    between atoms: C_9  and  C_10
REMARK    7  A    between atoms: C_10  and  O_11
REMARK    8  A    between atoms: O_11  and  C_12
REMARK    9  A    between atoms: C_21  and  C_22
REMARK   10  A    between atoms: C_21  and  C_23
REMARK                            x       y       z     vdW  Elec       q    Type
REMARK                         _______ _______ _______ _____ _____    ______ ____
ROOT
ATOM      1  C   UNL     1       3.717   5.107  18.575  0.00  0.00    +0.000 C 
ATOM      2  O   UNL     1       3.911   6.298  18.770  0.00  0.00    +0.000 OA
ATOM      3  N   UNL     1       3.042   4.318  19.476  0.00  0.00    +0.000 N 
ATOM      4  C   UNL     1       2.442   4.891  20.667  0.00  0.00    +0.000 C 
ATOM      5  C   UNL     1       1.800   3.684  21.324  0.00  0.00    +0.000 C 
ATOM      6  O   UNL     1       2.586   2.565  20.890  0.00  0.00    +0.000 OA
ATOM      7  C   UNL     1       3.086   2.872  19.564  0.00  0.00    +0.000 C 
ATOM      8  C   UNL     1       2.166   2.193  18.550  0.00  0.00    +0.000 C 
ATOM      9  C   UNL     1       4.503   2.294  19.510  0.00  0.00    +0.000 C 
ENDROOT
BRANCH   1  10
ATOM     10  O   UNL     1       4.126   4.435  17.468  0.00  0.00    +0.000 OA
BRANCH  10  12
ATOM     11  C   UNL     1       6.511   4.870  17.854  0.00  0.00    +0.000 C 
ATOM     12  C   UNL     1       5.372   4.821  16.825  0.00  0.00    +0.000 C 
ATOM     13  C   UNL     1       5.231   6.136  16.043  0.00  0.00    +0.000 C 
ATOM     14  C   UNL     1       5.694   3.706  15.815  0.00  0.00    +0.000 C 
ENDBRANCH  10  12
ENDBRANCH   1  10
BRANCH   4  15
ATOM     15  C   UNL     1       1.412   5.998  20.399  0.00  0.00    +0.000 C 
BRANCH  15  16
ATOM     16  O   UNL     1       1.759   7.186  21.124  0.00  0.00    +0.000 OA
BRANCH  16  17
ATOM     17  C   UNL     1       1.217   8.318  20.543  0.00  0.00    +0.000 A 
ATOM     18  C   UNL     1       0.268   9.012  21.280  0.00  0.00    +0.000 A 
ATOM     19  C   UNL     1      -0.299  10.157  20.720  0.00  0.00    +0.000 A 
ATOM     20  C   UNL     1       0.106  10.568  19.454  0.00  0.00    +0.000 A 
ATOM     21 CL   UNL     1      -0.561  11.973  18.731  0.00  0.00    +0.000 Cl
ATOM     22  C   UNL     1       1.060   9.813  18.794  0.00  0.00    +0.000 A 
ATOM     23  N   UNL     1       1.618   8.691  19.307  0.00  0.00    +0.000 NA
ENDBRANCH  16  17
ENDBRANCH  15  16
ENDBRANCH   4  15
TORSDOF 5
ENDMDL
MODEL 7
REMARK VINA RESULT:      -6.1      1.232      1.256
REMARK  Name = 
REMARK  10 active torsions:
REMARK  status: ('A' for Active; 'I' for Inactive)
REMARK    1  A    between atoms: C_1  and  C_2
REMARK    2  A    between atoms: C_2  and  C_3
REMARK    3  A    between atoms: C_2  and  C_4
REMARK    4  A    between atoms: C_2  and  O_5
REMARK    5  A    between atoms: O_5  and  C_6
REMARK    6  A    between atoms: C_9  and  C_10
REMARK    7  A    between atoms: C_10  and  O_11
REMARK    8  A    between atoms: O_11  and  C_12
REMARK    9  A    between atoms: C_21  and  C_22
REMARK   10  A    between atoms: C_21  and  C_23
REMARK                            x       y       z     vdW  Elec       q    Type
REMARK                         _______ _______ _______ _____ _____    ______ ____
ROOT
ATOM      1  C   UNL     1       3.926   5.002  18.561  0.00  0.00    +0.000 C 
ATOM      2  O   UNL     1       4.155   6.193  18.715  0.00  0.00    +0.000 OA
ATOM      3  N   UNL     1       3.196   4.272  19.470  0.00  0.00    +0.000 N 
ATOM      4  C   UNL     1       2.579   4.913  20.616  0.00  0.00    +0.000 C 
ATOM      5  C   UNL     1       1.875   3.756  21.299  0.00  0.00    +0.000 C 
ATOM      6  O   UNL     1       2.635   2.594  20.935  0.00  0.00    +0.000 OA
ATOM      7  C   UNL     1       3.187   2.831  19.615  0.00  0.00    +0.000 C 
ATOM      8  C   UNL     1       2.276   2.143  18.599  0.00  0.00    +0.000 C 
ATOM      9  C   UNL     1       4.583   2.203  19.630  0.00  0.00    +0.000 C 
ENDROOT
BRANCH   1  10
ATOM     10  O   UNL     1       4.346   4.272  17.495  0.00  0.00    +0.000 OA
BRANCH  10  12
ATOM     11  C   UNL     1       6.753   4.712  17.677  0.00  0.00    +0.000 C 
ATOM     12  C   UNL     1       5.523   4.705  16.759  0.00  0.00    +0.000 C 
ATOM     13  C   UNL     1       5.300   6.059  16.066  0.00  0.00    +0.000 C 
ATOM     14  C   UNL     1       5.754   3.650  15.665  0.00  0.00    +0.000 C 
ENDBRANCH  10  12
ENDBRANCH   1  10
BRANCH   4  15
ATOM     15  C   UNL     1       1.598   6.043  20.272  0.00  0.00    +0.000 C 
BRANCH  15  16
ATOM     16  O   UNL     1       2.144   7.312  20.658  0.00  0.00    +0.000 OA
BRANCH  16  17
ATOM     17  C   UNL     1       1.421   8.364  20.127  0.00  0.00    +0.000 A 
ATOM     18  C   UNL     1       1.713   8.733  18.822  0.00  0.00    +0.000 A 
ATOM     19  C   UNL     1       1.002   9.794  18.258  0.00  0.00    +0.000 A 
ATOM     20  C   UNL     1       0.028  10.438  19.013  0.00  0.00    +0.000 A 
ATOM     21 CL   UNL     1      -0.874  11.742  18.358  0.00  0.00    +0.000 Cl
ATOM     22  C   UNL     1      -0.195   9.998  20.307  0.00  0.00    +0.000 A 
ATOM     23  N   UNL     1       0.487   8.982  20.884  0.00  0.00    +0.000 NA
ENDBRANCH  16  17
ENDBRANCH  15  16
ENDBRANCH   4  15
TORSDOF 5
ENDMDL
MODEL 8
REMARK VINA RESULT:      -6.1      3.611      6.610
REMARK  Name = 
REMARK  10 active torsions:
REMARK  status: ('A' for Active; 'I' for Inactive)
REMARK    1  A    between atoms: C_1  and  C_2
REMARK    2  A    between atoms: C_2  and  C_3
REMARK    3  A    between atoms: C_2  and  C_4
REMARK    4  A    between atoms: C_2  and  O_5
REMARK    5  A    between atoms: O_5  and  C_6
REMARK    6  A    between atoms: C_9  and  C_10
REMARK    7  A    between atoms: C_10  and  O_11
REMARK    8  A    between atoms: O_11  and  C_12
REMARK    9  A    between atoms: C_21  and  C_22
REMARK   10  A    between atoms: C_21  and  C_23
REMARK                            x       y       z     vdW  Elec       q    Type
REMARK                         _______ _______ _______ _____ _____    ______ ____
ROOT
ATOM      1  C   UNL     1       4.126   4.799  19.771  0.00  0.00    +0.000 C 
ATOM      2  O   UNL     1       5.228   4.389  20.107  0.00  0.00    +0.000 OA
ATOM      3  N   UNL     1       3.965   5.738  18.780  0.00  0.00    +0.000 N 
ATOM      4  C   UNL     1       5.101   6.220  18.017  0.00  0.00    +0.000 C 
ATOM      5  C   UNL     1       4.457   7.191  17.047  0.00  0.00    +0.000 C 
ATOM      6  O   UNL     1       3.276   7.656  17.717  0.00  0.00    +0.000 OA
ATOM      7  C   UNL     1       2.803   6.576  18.562  0.00  0.00    +0.000 C 
ATOM      8  C   UNL     1       1.687   5.851  17.811  0.00  0.00    +0.000 C 
ATOM      9  C   UNL     1       2.277   7.245  19.835  0.00  0.00    +0.000 C 
ENDROOT
BRANCH   1  10
ATOM     10  O   UNL     1       2.954   4.380  20.315  0.00  0.00    +0.000 OA
BRANCH  10  12
ATOM     11  C   UNL     1       2.810   2.263  21.546  0.00  0.00    +0.000 C 
ATOM     12  C   UNL     1       2.583   2.978  20.207  0.00  0.00    +0.000 C 
ATOM     13  C   UNL     1       3.302   2.283  19.041  0.00  0.00    +0.000 C 
ATOM     14  C   UNL     1       1.075   2.958  19.908  0.00  0.00    +0.000 C 
ENDBRANCH  10  12
ENDBRANCH   1  10
BRANCH   4  15
ATOM     15  C   UNL     1       5.890   5.129  17.279  0.00  0.00    +0.000 C 
BRANCH  15  16
ATOM     16  O   UNL     1       6.854   5.721  16.397  0.00  0.00    +0.000 OA
BRANCH  16  17
ATOM     17  C   UNL     1       6.853   5.115  15.154  0.00  0.00    +0.000 A 
ATOM     18  C   UNL     1       5.893   4.140  14.930  0.00  0.00    +0.000 A 
ATOM     19  C   UNL     1       5.867   3.507  13.686  0.00  0.00    +0.000 A 
ATOM     20  C   UNL     1       6.793   3.876  12.716  0.00  0.00    +0.000 A 
ATOM     21 CL   UNL     1       6.794   3.129  11.172  0.00  0.00    +0.000 Cl
ATOM     22  C   UNL     1       7.714   4.862  13.030  0.00  0.00    +0.000 A 
ATOM     23  N   UNL     1       7.770   5.483  14.231  0.00  0.00    +0.000 NA
ENDBRANCH  16  17
ENDBRANCH  15  16
ENDBRANCH   4  15
TORSDOF 5
ENDMDL
MODEL 9
REMARK VINA RESULT:      -6.1      3.657      6.464
REMARK  Name = 
REMARK  10 active torsions:
REMARK  status: ('A' for Active; 'I' for Inactive)
REMARK    1  A    between atoms: C_1  and  C_2
REMARK    2  A    between atoms: C_2  and  C_3
REMARK    3  A    between atoms: C_2  and  C_4
REMARK    4  A    between atoms: C_2  and  O_5
REMARK    5  A    between atoms: O_5  and  C_6
REMARK    6  A    between atoms: C_9  and  C_10
REMARK    7  A    between atoms: C_10  and  O_11
REMARK    8  A    between atoms: O_11  and  C_12
REMARK    9  A    between atoms: C_21  and  C_22
REMARK   10  A    between atoms: C_21  and  C_23
REMARK                            x       y       z     vdW  Elec       q    Type
REMARK                         _______ _______ _______ _____ _____    ______ ____
ROOT
ATOM      1  C   UNL     1       4.401   4.064  19.320  0.00  0.00    +0.000 C 
ATOM      2  O   UNL     1       5.536   3.686  19.571  0.00  0.00    +0.000 OA
ATOM      3  N   UNL     1       4.150   5.238  18.650  0.00  0.00    +0.000 N 
ATOM      4  C   UNL     1       5.237   6.042  18.123  0.00  0.00    +0.000 C 
ATOM      5  C   UNL     1       4.503   7.191  17.458  0.00  0.00    +0.000 C 
ATOM      6  O   UNL     1       3.268   7.307  18.179  0.00  0.00    +0.000 OA
ATOM      7  C   UNL     1       2.906   5.979  18.637  0.00  0.00    +0.000 C 
ATOM      8  C   UNL     1       1.890   5.406  17.650  0.00  0.00    +0.000 C 
ATOM      9  C   UNL     1       2.289   6.173  20.026  0.00  0.00    +0.000 C 
ENDROOT
BRANCH   1  10
ATOM     10  O   UNL     1       3.274   3.383  19.656  0.00  0.00    +0.000 OA
BRANCH  10  12
ATOM     11  C   UNL     1       1.482   1.777  19.177  0.00  0.00    +0.000 C 
ATOM     12  C   UNL     1       2.952   2.154  18.948  0.00  0.00    +0.000 C 
ATOM     13  C   UNL     1       3.914   1.013  19.313  0.00  0.00    +0.000 C 
ATOM     14  C   UNL     1       3.136   2.462  17.453  0.00  0.00    +0.000 C 
ENDBRANCH  10  12
ENDBRANCH   1  10
BRANCH   4  15
ATOM     15  C   UNL     1       6.155   5.313  17.130  0.00  0.00    +0.000 C 
BRANCH  15  16
ATOM     16  O   UNL     1       6.343   6.107  15.950  0.00  0.00    +0.000 OA
BRANCH  16  17
ATOM     17  C   UNL     1       6.496   5.321  14.823  0.00  0.00    +0.000 A 
ATOM     18  C   UNL     1       5.512   4.374  14.577  0.00  0.00    +0.000 A 
ATOM     19  C   UNL     1       5.639   3.563  13.448  0.00  0.00    +0.000 A 
ATOM     20  C   UNL     1       6.735   3.734  12.608  0.00  0.00    +0.000 A 
ATOM     21 CL   UNL     1       6.927   2.763  11.206  0.00  0.00    +0.000 Cl
ATOM     22  C   UNL     1       7.666   4.706  12.934  0.00  0.00    +0.000 A 
ATOM     23  N   UNL     1       7.575   5.497  14.028  0.00  0.00    +0.000 NA
ENDBRANCH  16  17
ENDBRANCH  15  16
ENDBRANCH   4  15
TORSDOF 5
ENDMDL
