MODEL 1
REMARK VINA RESULT:      -7.4      0.000      0.000
REMARK  Name = 
REMARK  6 active torsions:
REMARK  status: ('A' for Active; 'I' for Inactive)
REMARK    1  A    between atoms: C_1  and  O_2
REMARK    2  A    between atoms: O_2  and  C_3
REMARK    3  A    between atoms: C_5  and  C_6
REMARK    4  A    between atoms: C_10  and  C_11
REMARK    5  A    between atoms: N_13  and  C_14
REMARK    6  A    between atoms: C_14  and  C_15
REMARK                            x       y       z     vdW  Elec       q    Type
REMARK                         _______ _______ _______ _____ _____    ______ ____
ROOT
ATOM      1  C   UNL     1       2.866   5.195  20.179  0.00  0.00    +0.000 C 
ATOM      2  O   UNL     1       2.515   4.313  20.959  0.00  0.00    +0.000 OA
ATOM      3  N   UNL     1       2.313   6.455  20.189  0.00  0.00    +0.000 N 
ATOM      4  H   UNL     1       2.492   7.116  19.444  0.00  0.00    +0.000 HD
ENDROOT
BRANCH   1   8
ATOM      5  C   UNL     1       6.018   4.529  17.437  0.00  0.00    +0.000 A 
ATOM      6  C   UNL     1       4.783   4.016  17.078  0.00  0.00    +0.000 A 
ATOM      7  C   UNL     1       3.683   4.184  17.944  0.00  0.00    +0.000 A 
ATOM      8  C   UNL     1       3.887   4.870  19.150  0.00  0.00    +0.000 A 
ATOM      9  C   UNL     1       5.168   5.360  19.404  0.00  0.00    +0.000 A 
ATOM     10  N   UNL     1       6.233   5.196  18.585  0.00  0.00    +0.000 NA
BRANCH   7  11
ATOM     11  C   UNL     1       2.345   3.654  17.527  0.00  0.00    +0.000 C 
ATOM     12  F   UNL     1       1.826   2.739  18.394  0.00  0.00    +0.000 F 
ATOM     13  F   UNL     1       1.405   4.639  17.444  0.00  0.00    +0.000 F 
ATOM     14  F   UNL     1       2.365   3.042  16.314  0.00  0.00    +0.000 F 
ENDBRANCH   7  11
BRANCH   5  16
ATOM     15  C   UNL     1       6.767   4.806  15.242  0.00  0.00    +0.000 C 
ATOM     16  O   UNL     1       7.057   4.326  16.555  0.00  0.00    +0.000 OA
ENDBRANCH   5  16
ENDBRANCH   1   8
BRANCH   3  17
ATOM     17  C   UNL     1       1.254   6.797  21.117  0.00  0.00    +0.000 C 
BRANCH  17  18
ATOM     18  C   UNL     1       0.901   8.259  21.019  0.00  0.00    +0.000 A 
ATOM     19  C   UNL     1       0.117   8.870  22.010  0.00  0.00    +0.000 A 
ATOM     20  C   UNL     1      -0.227  10.218  21.906  0.00  0.00    +0.000 A 
ATOM     21 CL   UNL     1      -1.182  10.953  23.134  0.00  0.00    +0.000 Cl
ATOM     22  C   UNL     1       0.195  10.977  20.817  0.00  0.00    +0.000 A 
ATOM     23  C   UNL     1       0.965  10.372  19.827  0.00  0.00    +0.000 A 
ATOM     24 CL   UNL     1       1.488  11.295  18.472  0.00  0.00    +0.000 Cl
ATOM     25  C   UNL     1       1.318   9.024  19.920  0.00  0.00    +0.000 A 
ENDBRANCH  17  18
ENDBRANCH   3  17
TORSDOF 5
ENDMDL
MODEL 2
REMARK VINA RESULT:      -7.4      0.237      2.000
REMARK  Name = 
REMARK  6 active torsions:
REMARK  status: ('A' for Active; 'I' for Inactive)
REMARK    1  A    between atoms: C_1  and  O_2
REMARK    2  A    between atoms: O_2  and  C_3
REMARK    3  A    between atoms: C_5  and  C_6
REMARK    4  A    between atoms: C_10  and  C_11
REMARK    5  A    between atoms: N_13  and  C_14
REMARK    6  A    between atoms: C_14  and  C_15
REMARK                            x       y       z     vdW  Elec       q    Type
REMARK                         _______ _______ _______ _____ _____    ______ ____
ROOT
ATOM      1  C   UNL     1       3.087   5.180  20.110  0.00  0.00    +0.000 C 
ATOM      2  O   UNL     1       2.784   4.281  20.890  0.00  0.00    +0.000 OA
ATOM      3  N   UNL     1       2.472   6.411  20.123  0.00  0.00    +0.000 N 
ATOM      4  H   UNL     1       2.614   7.080  19.378  0.00  0.00    +0.000 HD
ENDROOT
BRANCH   1   8
ATOM      5  C   UNL     1       6.259   4.663  17.359  0.00  0.00    +0.000 A 
ATOM      6  C   UNL     1       5.038   4.126  16.986  0.00  0.00    +0.000 A 
ATOM      7  C   UNL     1       3.933   4.244  17.853  0.00  0.00    +0.000 A 
ATOM      8  C   UNL     1       4.117   4.907  19.075  0.00  0.00    +0.000 A 
ATOM      9  C   UNL     1       5.384   5.423  19.344  0.00  0.00    +0.000 A 
ATOM     10  N   UNL     1       6.455   5.307  18.522  0.00  0.00    +0.000 NA
BRANCH   7  11
ATOM     11  C   UNL     1       2.610   3.689  17.421  0.00  0.00    +0.000 C 
ATOM     12  F   UNL     1       1.613   4.617  17.386  0.00  0.00    +0.000 F 
ATOM     13  F   UNL     1       2.658   3.171  16.159  0.00  0.00    +0.000 F 
ATOM     14  F   UNL     1       2.158   2.692  18.226  0.00  0.00    +0.000 F 
ENDBRANCH   7  11
BRANCH   5  16
ATOM     15  C   UNL     1       6.892   4.608  15.111  0.00  0.00    +0.000 C 
ATOM     16  O   UNL     1       7.304   4.507  16.474  0.00  0.00    +0.000 OA
ENDBRANCH   5  16
ENDBRANCH   1   8
BRANCH   3  17
ATOM     17  C   UNL     1       1.402   6.699  21.057  0.00  0.00    +0.000 C 
BRANCH  17  18
ATOM     18  C   UNL     1       0.982   8.145  20.967  0.00  0.00    +0.000 A 
ATOM     19  C   UNL     1       1.379   8.934  19.876  0.00  0.00    +0.000 A 
ATOM     20  C   UNL     1       1.007  10.277  19.806  0.00  0.00    +0.000 A 
ATOM     21 CL   UNL     1       1.497  11.229  18.458  0.00  0.00    +0.000 Cl
ATOM     22  C   UNL     1       0.244  10.857  20.816  0.00  0.00    +0.000 A 
ATOM     23  C   UNL     1      -0.145  10.079  21.903  0.00  0.00    +0.000 A 
ATOM     24 CL   UNL     1      -1.083  10.783  23.162  0.00  0.00    +0.000 Cl
ATOM     25  C   UNL     1       0.219   8.733  21.985  0.00  0.00    +0.000 A 
ENDBRANCH  17  18
ENDBRANCH   3  17
TORSDOF 5
ENDMDL
MODEL 3
REMARK VINA RESULT:      -7.2      5.362      8.925
REMARK  Name = 
REMARK  6 active torsions:
REMARK  status: ('A' for Active; 'I' for Inactive)
REMARK    1  A    between atoms: C_1  and  O_2
REMARK    2  A    between atoms: O_2  and  C_3
REMARK    3  A    between atoms: C_5  and  C_6
REMARK    4  A    between atoms: C_10  and  C_11
REMARK    5  A    between atoms: N_13  and  C_14
REMARK    6  A    between atoms: C_14  and  C_15
REMARK                            x       y       z     vdW  Elec       q    Type
REMARK                         _______ _______ _______ _____ _____    ______ ____
ROOT
ATOM      1  C   UNL     1       5.685   5.117  15.650  0.00  0.00    +0.000 C 
ATOM      2  O   UNL     1       5.480   6.241  15.197  0.00  0.00    +0.000 OA
ATOM      3  N   UNL     1       6.338   4.139  14.935  0.00  0.00    +0.000 N 
ATOM      4  H   UNL     1       6.356   3.178  15.251  0.00  0.00    +0.000 HD
ENDROOT
BRANCH   1   8
ATOM      5  C   UNL     1       3.813   4.180  19.326  0.00  0.00    +0.000 A 
ATOM      6  C   UNL     1       5.151   4.528  19.398  0.00  0.00    +0.000 A 
ATOM      7  C   UNL     1       5.853   4.842  18.215  0.00  0.00    +0.000 A 
ATOM      8  C   UNL     1       5.158   4.786  16.998  0.00  0.00    +0.000 A 
ATOM      9  C   UNL     1       3.807   4.440  17.042  0.00  0.00    +0.000 A 
ATOM     10  N   UNL     1       3.127   4.128  18.171  0.00  0.00    +0.000 NA
BRANCH   7  11
ATOM     11  C   UNL     1       7.291   5.249  18.312  0.00  0.00    +0.000 C 
ATOM     12  F   UNL     1       8.153   4.340  17.778  0.00  0.00    +0.000 F 
ATOM     13  F   UNL     1       7.541   6.413  17.644  0.00  0.00    +0.000 F 
ATOM     14  F   UNL     1       7.708   5.446  19.590  0.00  0.00    +0.000 F 
ENDBRANCH   7  11
BRANCH   5  16
ATOM     15  C   UNL     1       2.193   4.836  20.876  0.00  0.00    +0.000 C 
ATOM     16  O   UNL     1       3.185   3.875  20.514  0.00  0.00    +0.000 OA
ENDBRANCH   5  16
ENDBRANCH   1   8
BRANCH   3  17
ATOM     17  C   UNL     1       6.797   4.385  13.583  0.00  0.00    +0.000 C 
BRANCH  17  18
ATOM     18  C   UNL     1       6.024   3.553  12.591  0.00  0.00    +0.000 A 
ATOM     19  C   UNL     1       6.400   2.226  12.328  0.00  0.00    +0.000 A 
ATOM     20  C   UNL     1       5.697   1.466  11.394  0.00  0.00    +0.000 A 
ATOM     21 CL   UNL     1       6.168  -0.162  11.090  0.00  0.00    +0.000 Cl
ATOM     22  C   UNL     1       4.617   2.009  10.703  0.00  0.00    +0.000 A 
ATOM     23  C   UNL     1       4.246   3.327  10.954  0.00  0.00    +0.000 A 
ATOM     24 CL   UNL     1       2.918   4.015  10.104  0.00  0.00    +0.000 Cl
ATOM     25  C   UNL     1       4.940   4.099  11.889  0.00  0.00    +0.000 A 
ENDBRANCH  17  18
ENDBRANCH   3  17
TORSDOF 5
ENDMDL
MODEL 4
REMARK VINA RESULT:      -7.2      5.401      8.905
REMARK  Name = 
REMARK  6 active torsions:
REMARK  status: ('A' for Active; 'I' for Inactive)
REMARK    1  A    between atoms: C_1  and  O_2
REMARK    2  A    between atoms: O_2  and  C_3
REMARK    3  A    between atoms: C_5  and  C_6
REMARK    4  A    between atoms: C_10  and  C_11
REMARK    5  A    between atoms: N_13  and  C_14
REMARK    6  A    between atoms: C_14  and  C_15
REMARK                            x       y       z     vdW  Elec       q    Type
REMARK                         _______ _______ _______ _____ _____    ______ ____
ROOT
ATOM      1  C   UNL     1       5.750   5.198  15.647  0.00  0.00    +0.000 C 
ATOM      2  O   UNL     1       5.602   6.338  15.213  0.00  0.00    +0.000 OA
ATOM      3  N   UNL     1       6.353   4.201  14.916  0.00  0.00    +0.000 N 
ATOM      4  H   UNL     1       6.324   3.235  15.216  0.00  0.00    +0.000 HD
ENDROOT
BRANCH   1   8
ATOM      5  C   UNL     1       3.834   4.289  19.307  0.00  0.00    +0.000 A 
ATOM      6  C   UNL     1       5.183   4.590  19.387  0.00  0.00    +0.000 A 
ATOM      7  C   UNL     1       5.899   4.891  18.210  0.00  0.00    +0.000 A 
ATOM      8  C   UNL     1       5.207   4.872  16.990  0.00  0.00    +0.000 A 
ATOM      9  C   UNL     1       3.845   4.572  17.026  0.00  0.00    +0.000 A 
ATOM     10  N   UNL     1       3.151   4.272  18.149  0.00  0.00    +0.000 NA
BRANCH   7  11
ATOM     11  C   UNL     1       7.349   5.249  18.316  0.00  0.00    +0.000 C 
ATOM     12  F   UNL     1       8.182   4.322  17.763  0.00  0.00    +0.000 F 
ATOM     13  F   UNL     1       7.639   6.417  17.672  0.00  0.00    +0.000 F 
ATOM     14  F   UNL     1       7.771   5.405  19.598  0.00  0.00    +0.000 F 
ENDBRANCH   7  11
BRANCH   5  16
ATOM     15  C   UNL     1       1.909   4.613  20.591  0.00  0.00    +0.000 C 
ATOM     16  O   UNL     1       3.191   3.993  20.490  0.00  0.00    +0.000 OA
ENDBRANCH   5  16
ENDBRANCH   1   8
BRANCH   3  17
ATOM     17  C   UNL     1       6.824   4.446  13.568  0.00  0.00    +0.000 C 
BRANCH  17  18
ATOM     18  C   UNL     1       6.071   3.601  12.571  0.00  0.00    +0.000 A 
ATOM     19  C   UNL     1       4.969   4.128  11.880  0.00  0.00    +0.000 A 
ATOM     20  C   UNL     1       4.261   3.337  10.975  0.00  0.00    +0.000 A 
ATOM     21 CL   UNL     1       2.916   4.002  10.131  0.00  0.00    +0.000 Cl
ATOM     22  C   UNL     1       4.630   2.014  10.747  0.00  0.00    +0.000 A 
ATOM     23  C   UNL     1       5.717   1.485  11.437  0.00  0.00    +0.000 A 
ATOM     24 CL   UNL     1       6.181  -0.150  11.170  0.00  0.00    +0.000 Cl
ATOM     25  C   UNL     1       6.436   2.266  12.344  0.00  0.00    +0.000 A 
ENDBRANCH  17  18
ENDBRANCH   3  17
TORSDOF 5
ENDMDL
MODEL 5
REMARK VINA RESULT:      -7.1      2.462      3.479
REMARK  Name = 
REMARK  6 active torsions:
REMARK  status: ('A' for Active; 'I' for Inactive)
REMARK    1  A    between atoms: C_1  and  O_2
REMARK    2  A    between atoms: O_2  and  C_3
REMARK    3  A    between atoms: C_5  and  C_6
REMARK    4  A    between atoms: C_10  and  C_11
REMARK    5  A    between atoms: N_13  and  C_14
REMARK    6  A    between atoms: C_14  and  C_15
REMARK                            x       y       z     vdW  Elec       q    Type
REMARK                         _______ _______ _______ _____ _____    ______ ____
ROOT
ATOM      1  C   UNL     1       2.526   5.430  18.533  0.00  0.00    +0.000 C 
ATOM      2  O   UNL     1       1.803   5.125  17.587  0.00  0.00    +0.000 OA
ATOM      3  N   UNL     1       2.811   6.737  18.854  0.00  0.00    +0.000 N 
ATOM      4  H   UNL     1       3.531   6.970  19.527  0.00  0.00    +0.000 HD
ENDROOT
BRANCH   1   8
ATOM      5  C   UNL     1       4.657   2.381  20.547  0.00  0.00    +0.000 A 
ATOM      6  C   UNL     1       3.307   2.473  20.839  0.00  0.00    +0.000 A 
ATOM      7  C   UNL     1       2.527   3.471  20.220  0.00  0.00    +0.000 A 
ATOM      8  C   UNL     1       3.159   4.344  19.322  0.00  0.00    +0.000 A 
ATOM      9  C   UNL     1       4.521   4.152  19.088  0.00  0.00    +0.000 A 
ATOM     10  N   UNL     1       5.281   3.203  19.685  0.00  0.00    +0.000 NA
BRANCH   7  11
ATOM     11  C   UNL     1       1.061   3.536  20.520  0.00  0.00    +0.000 C 
ATOM     12  F   UNL     1       0.699   2.836  21.632  0.00  0.00    +0.000 F 
ATOM     13  F   UNL     1       0.640   4.813  20.751  0.00  0.00    +0.000 F 
ATOM     14  F   UNL     1       0.286   3.054  19.513  0.00  0.00    +0.000 F 
ENDBRANCH   7  11
BRANCH   5  16
ATOM     15  C   UNL     1       5.420   0.175  20.445  0.00  0.00    +0.000 C 
ATOM     16  O   UNL     1       5.368   1.392  21.191  0.00  0.00    +0.000 OA
ENDBRANCH   5  16
ENDBRANCH   1   8
BRANCH   3  17
ATOM     17  C   UNL     1       2.286   7.831  18.063  0.00  0.00    +0.000 C 
BRANCH  17  18
ATOM     18  C   UNL     1       1.435   8.747  18.905  0.00  0.00    +0.000 A 
ATOM     19  C   UNL     1       0.728   9.806  18.313  0.00  0.00    +0.000 A 
ATOM     20  C   UNL     1      -0.041  10.665  19.097  0.00  0.00    +0.000 A 
ATOM     21 CL   UNL     1      -0.908  11.953  18.354  0.00  0.00    +0.000 Cl
ATOM     22  C   UNL     1      -0.116  10.493  20.477  0.00  0.00    +0.000 A 
ATOM     23  C   UNL     1       0.592   9.450  21.069  0.00  0.00    +0.000 A 
ATOM     24 CL   UNL     1       0.516   9.229  22.774  0.00  0.00    +0.000 Cl
ATOM     25  C   UNL     1       1.364   8.581  20.295  0.00  0.00    +0.000 A 
ENDBRANCH  17  18
ENDBRANCH   3  17
TORSDOF 5
ENDMDL
MODEL 6
REMARK VINA RESULT:      -7.1      2.447      3.154
REMARK  Name = 
REMARK  6 active torsions:
REMARK  status: ('A' for Active; 'I' for Inactive)
REMARK    1  A    between atoms: C_1  and  O_2
REMARK    2  A    between atoms: O_2  and  C_3
REMARK    3  A    between atoms: C_5  and  C_6
REMARK    4  A    between atoms: C_10  and  C_11
REMARK    5  A    between atoms: N_13  and  C_14
REMARK    6  A    between atoms: C_14  and  C_15
REMARK                            x       y       z     vdW  Elec       q    Type
REMARK                         _______ _______ _______ _____ _____    ______ ____
ROOT
ATOM      1  C   UNL     1       2.524   5.471  18.508  0.00  0.00    +0.000 C 
ATOM      2  O   UNL     1       1.797   5.163  17.567  0.00  0.00    +0.000 OA
ATOM      3  N   UNL     1       2.811   6.779  18.825  0.00  0.00    +0.000 N 
ATOM      4  H   UNL     1       3.534   7.015  19.493  0.00  0.00    +0.000 HD
ENDROOT
BRANCH   1   8
ATOM      5  C   UNL     1       4.672   2.436  20.526  0.00  0.00    +0.000 A 
ATOM      6  C   UNL     1       3.317   2.506  20.801  0.00  0.00    +0.000 A 
ATOM      7  C   UNL     1       2.531   3.499  20.180  0.00  0.00    +0.000 A 
ATOM      8  C   UNL     1       3.163   4.388  19.298  0.00  0.00    +0.000 A 
ATOM      9  C   UNL     1       4.530   4.217  19.080  0.00  0.00    +0.000 A 
ATOM     10  N   UNL     1       5.295   3.273  19.678  0.00  0.00    +0.000 NA
BRANCH   7  11
ATOM     11  C   UNL     1       1.061   3.541  20.461  0.00  0.00    +0.000 C 
ATOM     12  F   UNL     1       0.695   2.829  21.564  0.00  0.00    +0.000 F 
ATOM     13  F   UNL     1       0.618   4.811  20.694  0.00  0.00    +0.000 F 
ATOM     14  F   UNL     1       0.306   3.054  19.442  0.00  0.00    +0.000 F 
ENDBRANCH   7  11
BRANCH   5  16
ATOM     15  C   UNL     1       5.348   0.200  20.483  0.00  0.00    +0.000 C 
ATOM     16  O   UNL     1       5.388   1.451  21.171  0.00  0.00    +0.000 OA
ENDBRANCH   5  16
ENDBRANCH   1   8
BRANCH   3  17
ATOM     17  C   UNL     1       2.281   7.871  18.033  0.00  0.00    +0.000 C 
BRANCH  17  18
ATOM     18  C   UNL     1       1.457   8.805  18.884  0.00  0.00    +0.000 A 
ATOM     19  C   UNL     1       1.384   8.623  20.274  0.00  0.00    +0.000 A 
ATOM     20  C   UNL     1       0.604   9.474  21.056  0.00  0.00    +0.000 A 
ATOM     21 CL   UNL     1       0.531   9.241  22.760  0.00  0.00    +0.000 Cl
ATOM     22  C   UNL     1      -0.119  10.512  20.473  0.00  0.00    +0.000 A 
ATOM     23  C   UNL     1      -0.056  10.690  19.093  0.00  0.00    +0.000 A 
ATOM     24 CL   UNL     1      -0.948  11.964  18.357  0.00  0.00    +0.000 Cl
ATOM     25  C   UNL     1       0.724   9.846  18.299  0.00  0.00    +0.000 A 
ENDBRANCH  17  18
ENDBRANCH   3  17
TORSDOF 5
ENDMDL
MODEL 7
REMARK VINA RESULT:      -7.1      1.397      1.647
REMARK  Name = 
REMARK  6 active torsions:
REMARK  status: ('A' for Active; 'I' for Inactive)
REMARK    1  A    between atoms: C_1  and  O_2
REMARK    2  A    between atoms: O_2  and  C_3
REMARK    3  A    between atoms: C_5  and  C_6
REMARK    4  A    between atoms: C_10  and  C_11
REMARK    5  A    between atoms: N_13  and  C_14
REMARK    6  A    between atoms: C_14  and  C_15
REMARK                            x       y       z     vdW  Elec       q    Type
REMARK                         _______ _______ _______ _____ _____    ______ ____
ROOT
ATOM      1  C   UNL     1       2.409   5.560  18.958  0.00  0.00    +0.000 C 
ATOM      2  O   UNL     1       1.384   4.892  18.845  0.00  0.00    +0.000 OA
ATOM      3  N   UNL     1       2.591   6.470  19.974  0.00  0.00    +0.000 N 
ATOM      4  H   UNL     1       3.361   7.126  19.963  0.00  0.00    +0.000 HD
ENDROOT
BRANCH   1   8
ATOM      5  C   UNL     1       5.381   5.558  15.947  0.00  0.00    +0.000 A 
ATOM      6  C   UNL     1       4.946   4.314  16.373  0.00  0.00    +0.000 A 
ATOM      7  C   UNL     1       3.967   4.227  17.383  0.00  0.00    +0.000 A 
ATOM      8  C   UNL     1       3.466   5.420  17.925  0.00  0.00    +0.000 A 
ATOM      9  C   UNL     1       3.962   6.619  17.412  0.00  0.00    +0.000 A 
ATOM     10  N   UNL     1       4.909   6.712  16.448  0.00  0.00    +0.000 NA
BRANCH   7  11
ATOM     11  C   UNL     1       3.482   2.875  17.809  0.00  0.00    +0.000 C 
ATOM     12  F   UNL     1       2.219   2.589  17.384  0.00  0.00    +0.000 F 
ATOM     13  F   UNL     1       4.261   1.870  17.313  0.00  0.00    +0.000 F 
ATOM     14  F   UNL     1       3.462   2.712  19.158  0.00  0.00    +0.000 F 
ENDBRANCH   7  11
BRANCH   5  16
ATOM     15  C   UNL     1       6.477   4.323  14.295  0.00  0.00    +0.000 C 
ATOM     16  O   UNL     1       6.346   5.577  14.964  0.00  0.00    +0.000 OA
ENDBRANCH   5  16
ENDBRANCH   1   8
BRANCH   3  17
ATOM     17  C   UNL     1       1.554   6.706  20.958  0.00  0.00    +0.000 C 
BRANCH  17  18
ATOM     18  C   UNL     1       1.093   8.142  20.924  0.00  0.00    +0.000 A 
ATOM     19  C   UNL     1       0.306   8.661  21.963  0.00  0.00    +0.000 A 
ATOM     20  C   UNL     1      -0.137   9.983  21.919  0.00  0.00    +0.000 A 
ATOM     21 CL   UNL     1      -1.096  10.605  23.206  0.00  0.00    +0.000 Cl
ATOM     22  C   UNL     1       0.188  10.806  20.844  0.00  0.00    +0.000 A 
ATOM     23  C   UNL     1       0.961  10.292  19.807  0.00  0.00    +0.000 A 
ATOM     24 CL   UNL     1       1.366  11.294  18.468  0.00  0.00    +0.000 Cl
ATOM     25  C   UNL     1       1.413   8.970  19.840  0.00  0.00    +0.000 A 
ENDBRANCH  17  18
ENDBRANCH   3  17
TORSDOF 5
ENDMDL
MODEL 8
REMARK VINA RESULT:      -7.1      2.965      3.634
REMARK  Name = 
REMARK  6 active torsions:
REMARK  status: ('A' for Active; 'I' for Inactive)
REMARK    1  A    between atoms: C_1  and  O_2
REMARK    2  A    between atoms: O_2  and  C_3
REMARK    3  A    between atoms: C_5  and  C_6
REMARK    4  A    between atoms: C_10  and  C_11
REMARK    5  A    between atoms: N_13  and  C_14
REMARK    6  A    between atoms: C_14  and  C_15
REMARK                            x       y       z     vdW  Elec       q    Type
REMARK                         _______ _______ _______ _____ _____    ______ ____
ROOT
ATOM      1  C   UNL     1       4.761   5.140  18.375  0.00  0.00    +0.000 C 
ATOM      2  O   UNL     1       5.301   4.615  19.345  0.00  0.00    +0.000 OA
ATOM      3  N   UNL     1       3.546   5.781  18.460  0.00  0.00    +0.000 N 
ATOM      4  H   UNL     1       3.039   6.064  17.632  0.00  0.00    +0.000 HD
ENDROOT
BRANCH   1   8
ATOM      5  C   UNL     1       6.438   4.472  14.549  0.00  0.00    +0.000 A 
ATOM      6  C   UNL     1       7.005   5.495  15.290  0.00  0.00    +0.000 A 
ATOM      7  C   UNL     1       6.495   5.791  16.571  0.00  0.00    +0.000 A 
ATOM      8  C   UNL     1       5.419   5.029  17.048  0.00  0.00    +0.000 A 
ATOM      9  C   UNL     1       4.935   4.012  16.225  0.00  0.00    +0.000 A 
ATOM     10  N   UNL     1       5.411   3.726  14.990  0.00  0.00    +0.000 NA
BRANCH   7  11
ATOM     11  C   UNL     1       7.141   6.877  17.376  0.00  0.00    +0.000 C 
ATOM     12  F   UNL     1       6.272   7.843  17.787  0.00  0.00    +0.000 F 
ATOM     13  F   UNL     1       7.710   6.399  18.520  0.00  0.00    +0.000 F 
ATOM     14  F   UNL     1       8.125   7.529  16.703  0.00  0.00    +0.000 F 
ENDBRANCH   7  11
BRANCH   5  16
ATOM     15  C   UNL     1       6.127   3.434  12.480  0.00  0.00    +0.000 C 
ATOM     16  O   UNL     1       6.974   4.237  13.301  0.00  0.00    +0.000 OA
ENDBRANCH   5  16
ENDBRANCH   1   8
BRANCH   3  17
ATOM     17  C   UNL     1       2.823   5.843  19.714  0.00  0.00    +0.000 C 
BRANCH  17  18
ATOM     18  C   UNL     1       2.119   7.167  19.867  0.00  0.00    +0.000 A 
ATOM     19  C   UNL     1       1.345   7.435  21.007  0.00  0.00    +0.000 A 
ATOM     20  C   UNL     1       0.677   8.652  21.136  0.00  0.00    +0.000 A 
ATOM     21 CL   UNL     1      -0.260   8.967  22.545  0.00  0.00    +0.000 Cl
ATOM     22  C   UNL     1       0.760   9.618  20.136  0.00  0.00    +0.000 A 
ATOM     23  C   UNL     1       1.519   9.353  18.999  0.00  0.00    +0.000 A 
ATOM     24 CL   UNL     1       1.625  10.533  17.752  0.00  0.00    +0.000 Cl
ATOM     25  C   UNL     1       2.195   8.138  18.859  0.00  0.00    +0.000 A 
ENDBRANCH  17  18
ENDBRANCH   3  17
TORSDOF 5
ENDMDL
MODEL 9
REMARK VINA RESULT:      -7.1      2.921      4.017
REMARK  Name = 
REMARK  6 active torsions:
REMARK  status: ('A' for Active; 'I' for Inactive)
REMARK    1  A    between atoms: C_1  and  O_2
REMARK    2  A    between atoms: O_2  and  C_3
REMARK    3  A    between atoms: C_5  and  C_6
REMARK    4  A    between atoms: C_10  and  C_11
REMARK    5  A    between atoms: N_13  and  C_14
REMARK    6  A    between atoms: C_14  and  C_15
REMARK                            x       y       z     vdW  Elec       q    Type
REMARK                         _______ _______ _______ _____ _____    ______ ____
ROOT
ATOM      1  C   UNL     1       4.795   5.116  18.524  0.00  0.00    +0.000 C 
ATOM      2  O   UNL     1       5.385   4.710  19.522  0.00  0.00    +0.000 OA
ATOM      3  N   UNL     1       3.539   5.673  18.582  0.00  0.00    +0.000 N 
ATOM      4  H   UNL     1       3.001   5.852  17.743  0.00  0.00    +0.000 HD
ENDROOT
BRANCH   1   8
ATOM      5  C   UNL     1       6.450   4.269  14.723  0.00  0.00    +0.000 A 
ATOM      6  C   UNL     1       6.991   5.353  15.393  0.00  0.00    +0.000 A 
ATOM      7  C   UNL     1       6.486   5.711  16.661  0.00  0.00    +0.000 A 
ATOM      8  C   UNL     1       5.441   4.945  17.198  0.00  0.00    +0.000 A 
ATOM      9  C   UNL     1       4.982   3.863  16.445  0.00  0.00    +0.000 A 
ATOM     10  N   UNL     1       5.453   3.518  15.224  0.00  0.00    +0.000 NA
BRANCH   7  11
ATOM     11  C   UNL     1       7.105   6.864  17.388  0.00  0.00    +0.000 C 
ATOM     12  F   UNL     1       6.215   7.842  17.719  0.00  0.00    +0.000 F 
ATOM     13  F   UNL     1       7.670   6.483  18.570  0.00  0.00    +0.000 F 
ATOM     14  F   UNL     1       8.085   7.483  16.679  0.00  0.00    +0.000 F 
ENDBRANCH   7  11
BRANCH   5  16
ATOM     15  C   UNL     1       5.995   3.508  12.562  0.00  0.00    +0.000 C 
ATOM     16  O   UNL     1       6.979   3.975  13.486  0.00  0.00    +0.000 OA
ENDBRANCH   5  16
ENDBRANCH   1   8
BRANCH   3  17
ATOM     17  C   UNL     1       2.831   5.785  19.841  0.00  0.00    +0.000 C 
BRANCH  17  18
ATOM     18  C   UNL     1       2.092   7.097  19.931  0.00  0.00    +0.000 A 
ATOM     19  C   UNL     1       2.195   8.043  18.898  0.00  0.00    +0.000 A 
ATOM     20  C   UNL     1       1.528   9.264  18.993  0.00  0.00    +0.000 A 
ATOM     21 CL   UNL     1       1.659  10.410  17.715  0.00  0.00    +0.000 Cl
ATOM     22  C   UNL     1       0.757   9.569  20.113  0.00  0.00    +0.000 A 
ATOM     23  C   UNL     1       0.660   8.636  21.142  0.00  0.00    +0.000 A 
ATOM     24 CL   UNL     1      -0.283   9.000  22.534  0.00  0.00    +0.000 Cl
ATOM     25  C   UNL     1       1.321   7.408  21.059  0.00  0.00    +0.000 A 
ENDBRANCH  17  18
ENDBRANCH   3  17
TORSDOF 5
ENDMDL
