MODEL 1
REMARK VINA RESULT:      -8.6      0.000      0.000
REMARK  Name = 
REMARK  9 active torsions:
REMARK  status: ('A' for Active; 'I' for Inactive)
REMARK    1  A    between atoms: C_1  and  O_2
REMARK    2  A    between atoms: O_2  and  C_3
REMARK    3  A    between atoms: C_5  and  C_6
REMARK    4  A    between atoms: N_7  and  N_8
REMARK    5  A    between atoms: C_9  and  C_11
REMARK    6  A    between atoms: C_11  and  C_12
REMARK    7  A    between atoms: C_22  and  C_23
REMARK    8  A    between atoms: C_24  and  C_25
REMARK    9  A    between atoms: C_31  and  O_32
REMARK                            x       y       z     vdW  Elec       q    Type
REMARK                         _______ _______ _______ _____ _____    ______ ____
ROOT
ATOM      1  C   UNL     1      -0.601  11.733  18.358  0.00  0.00    +0.000 C 
ENDROOT
BRANCH   1   2
ATOM      2  C   UNL     1      -2.082  11.613  18.079  0.00  0.00    +0.000 A 
ATOM      3  C   UNL     1      -2.512  11.208  16.802  0.00  0.00    +0.000 A 
ATOM      4  C   UNL     1      -3.871  11.139  16.490  0.00  0.00    +0.000 A 
ATOM      5  C   UNL     1      -4.821  11.469  17.451  0.00  0.00    +0.000 A 
ATOM      6  C   UNL     1      -4.405  11.856  18.726  0.00  0.00    +0.000 A 
ATOM      7  C   UNL     1      -5.396  12.232  19.742  0.00  0.00    +0.000 A 
ATOM      8  O   UNL     1      -6.599  12.167  19.523  0.00  0.00    +0.000 OA
ATOM      9  C   UNL     1      -4.876  12.713  21.028  0.00  0.00    +0.000 A 
ATOM     10  C   UNL     1      -5.752  13.174  22.009  0.00  0.00    +0.000 A 
ATOM     11  C   UNL     1      -5.244  13.643  23.218  0.00  0.00    +0.000 A 
ATOM     12  C   UNL     1      -3.860  13.656  23.462  0.00  0.00    +0.000 A 
ATOM     13  C   UNL     1      -3.371  14.181  24.785  0.00  0.00    +0.000 C 
ATOM     14  C   UNL     1      -2.973  13.187  22.465  0.00  0.00    +0.000 A 
ATOM     15  C   UNL     1      -1.477  13.222  22.652  0.00  0.00    +0.000 C 
ATOM     16  C   UNL     1      -3.499  12.720  21.242  0.00  0.00    +0.000 A 
ATOM     17  O   UNL     1      -2.592  12.294  20.296  0.00  0.00    +0.000 OA
ATOM     18  C   UNL     1      -3.048  11.923  19.052  0.00  0.00    +0.000 A 
ENDBRANCH   1   2
BRANCH   1  20
ATOM     19  N   UNL     1       0.830   9.837  17.797  0.00  0.00    +0.000 N 
ATOM     20  C   UNL     1       0.051  10.433  18.783  0.00  0.00    +0.000 C 
ATOM     21  O   UNL     1      -0.141   9.968  19.906  0.00  0.00    +0.000 OA
ATOM     22  H   UNL     1       1.023  10.306  16.920  0.00  0.00    +0.000 HD
BRANCH  19  24
ATOM     23  C   UNL     1       2.647   8.463  17.765  0.00  0.00    +0.000 C 
ATOM     24  N   UNL     1       1.401   8.630  18.065  0.00  0.00    +0.000 NA
BRANCH  23  27
ATOM     25  C   UNL     1       3.541   5.179  19.444  0.00  0.00    +0.000 A 
ATOM     26  C   UNL     1       2.903   6.389  19.135  0.00  0.00    +0.000 A 
ATOM     27  C   UNL     1       3.319   7.173  18.052  0.00  0.00    +0.000 A 
ATOM     28  C   UNL     1       4.377   6.744  17.253  0.00  0.00    +0.000 A 
ATOM     29  C   UNL     1       5.024   5.540  17.553  0.00  0.00    +0.000 A 
ATOM     30  C   UNL     1       4.612   4.766  18.646  0.00  0.00    +0.000 A 
BRANCH  25  32
ATOM     31  C   UNL     1       1.601   4.309  20.548  0.00  0.00    +0.000 C 
ATOM     32  O   UNL     1       2.997   4.559  20.535  0.00  0.00    +0.000 OA
ENDBRANCH  25  32
BRANCH  30  33
ATOM     33  O   UNL     1       5.283   3.604  18.906  0.00  0.00    +0.000 OA
ATOM     34  H   UNL     1       4.694   2.847  18.763  0.00  0.00    +0.000 HD
ENDBRANCH  30  33
ENDBRANCH  23  27
ENDBRANCH  19  24
ENDBRANCH   1  20
TORSDOF 6
ENDMDL
MODEL 2
REMARK VINA RESULT:      -8.6      1.435      2.039
REMARK  Name = 
REMARK  9 active torsions:
REMARK  status: ('A' for Active; 'I' for Inactive)
REMARK    1  A    between atoms: C_1  and  O_2
REMARK    2  A    between atoms: O_2  and  C_3
REMARK    3  A    between atoms: C_5  and  C_6
REMARK    4  A    between atoms: N_7  and  N_8
REMARK    5  A    between atoms: C_9  and  C_11
REMARK    6  A    between atoms: C_11  and  C_12
REMARK    7  A    between atoms: C_22  and  C_23
REMARK    8  A    between atoms: C_24  and  C_25
REMARK    9  A    between atoms: C_31  and  O_32
REMARK                            x       y       z     vdW  Elec       q    Type
REMARK                         _______ _______ _______ _____ _____    ______ ____
ROOT
ATOM      1  C   UNL     1      -0.273  11.055  19.152  0.00  0.00    +0.000 C 
ENDROOT
BRANCH   1   2
ATOM      2  C   UNL     1      -1.542  10.826  18.362  0.00  0.00    +0.000 A 
ATOM      3  C   UNL     1      -1.496  10.033  17.200  0.00  0.00    +0.000 A 
ATOM      4  C   UNL     1      -2.634   9.845  16.414  0.00  0.00    +0.000 A 
ATOM      5  C   UNL     1      -3.836  10.441  16.780  0.00  0.00    +0.000 A 
ATOM      6  C   UNL     1      -3.896  11.216  17.940  0.00  0.00    +0.000 A 
ATOM      7  C   UNL     1      -5.151  11.874  18.323  0.00  0.00    +0.000 A 
ATOM      8  O   UNL     1      -6.181  11.721  17.678  0.00  0.00    +0.000 OA
ATOM      9  C   UNL     1      -5.110  12.743  19.505  0.00  0.00    +0.000 A 
ATOM     10  C   UNL     1      -6.237  13.472  19.879  0.00  0.00    +0.000 A 
ATOM     11  C   UNL     1      -6.178  14.306  20.992  0.00  0.00    +0.000 A 
ATOM     12  C   UNL     1      -4.997  14.420  21.746  0.00  0.00    +0.000 A 
ATOM     13  C   UNL     1      -4.993  15.342  22.935  0.00  0.00    +0.000 C 
ATOM     14  C   UNL     1      -3.854  13.679  21.366  0.00  0.00    +0.000 A 
ATOM     15  C   UNL     1      -2.546  13.799  22.106  0.00  0.00    +0.000 C 
ATOM     16  C   UNL     1      -3.923  12.843  20.231  0.00  0.00    +0.000 A 
ATOM     17  O   UNL     1      -2.777  12.158  19.890  0.00  0.00    +0.000 OA
ATOM     18  C   UNL     1      -2.765  11.407  18.738  0.00  0.00    +0.000 A 
ENDBRANCH   1   2
BRANCH   1  20
ATOM     19  N   UNL     1       1.388   9.297  18.825  0.00  0.00    +0.000 N 
ATOM     20  C   UNL     1       0.378   9.780  19.650  0.00  0.00    +0.000 C 
ATOM     21  O   UNL     1      -0.004   9.240  20.688  0.00  0.00    +0.000 OA
ATOM     22  H   UNL     1       1.721   9.827  18.029  0.00  0.00    +0.000 HD
BRANCH  19  24
ATOM     23  C   UNL     1       2.492   7.401  18.208  0.00  0.00    +0.000 C 
ATOM     24  N   UNL     1       1.986   8.118  19.157  0.00  0.00    +0.000 NA
BRANCH  23  27
ATOM     25  C   UNL     1       5.154   4.913  19.269  0.00  0.00    +0.000 A 
ATOM     26  C   UNL     1       4.484   6.114  18.995  0.00  0.00    +0.000 A 
ATOM     27  C   UNL     1       3.168   6.118  18.520  0.00  0.00    +0.000 A 
ATOM     28  C   UNL     1       2.497   4.912  18.326  0.00  0.00    +0.000 A 
ATOM     29  C   UNL     1       3.155   3.706  18.593  0.00  0.00    +0.000 A 
ATOM     30  C   UNL     1       4.478   3.708  19.056  0.00  0.00    +0.000 A 
BRANCH  25  32
ATOM     31  C   UNL     1       7.421   5.529  18.797  0.00  0.00    +0.000 C 
ATOM     32  O   UNL     1       6.429   5.110  19.721  0.00  0.00    +0.000 OA
ENDBRANCH  25  32
BRANCH  30  33
ATOM     33  O   UNL     1       5.082   2.504  19.292  0.00  0.00    +0.000 OA
ATOM     34  H   UNL     1       4.479   1.926  19.785  0.00  0.00    +0.000 HD
ENDBRANCH  30  33
ENDBRANCH  23  27
ENDBRANCH  19  24
ENDBRANCH   1  20
TORSDOF 6
ENDMDL
MODEL 3
REMARK VINA RESULT:      -8.6      1.129      1.285
REMARK  Name = 
REMARK  9 active torsions:
REMARK  status: ('A' for Active; 'I' for Inactive)
REMARK    1  A    between atoms: C_1  and  O_2
REMARK    2  A    between atoms: O_2  and  C_3
REMARK    3  A    between atoms: C_5  and  C_6
REMARK    4  A    between atoms: N_7  and  N_8
REMARK    5  A    between atoms: C_9  and  C_11
REMARK    6  A    between atoms: C_11  and  C_12
REMARK    7  A    between atoms: C_22  and  C_23
REMARK    8  A    between atoms: C_24  and  C_25
REMARK    9  A    between atoms: C_31  and  O_32
REMARK                            x       y       z     vdW  Elec       q    Type
REMARK                         _______ _______ _______ _____ _____    ______ ____
ROOT
ATOM      1  C   UNL     1      -0.109  11.073  18.950  0.00  0.00    +0.000 C 
ENDROOT
BRANCH   1   2
ATOM      2  C   UNL     1      -1.472  10.893  18.323  0.00  0.00    +0.000 A 
ATOM      3  C   UNL     1      -1.593  10.138  17.141  0.00  0.00    +0.000 A 
ATOM      4  C   UNL     1      -2.826   9.996  16.502  0.00  0.00    +0.000 A 
ATOM      5  C   UNL     1      -3.959  10.601  17.038  0.00  0.00    +0.000 A 
ATOM      6  C   UNL     1      -3.852  11.338  18.219  0.00  0.00    +0.000 A 
ATOM      7  C   UNL     1      -5.034  12.005  18.780  0.00  0.00    +0.000 A 
ATOM      8  O   UNL     1      -6.141  11.891  18.268  0.00  0.00    +0.000 OA
ATOM      9  C   UNL     1      -4.823  12.833  19.973  0.00  0.00    +0.000 A 
ATOM     10  C   UNL     1      -5.877  13.570  20.510  0.00  0.00    +0.000 A 
ATOM     11  C   UNL     1      -5.659  14.364  21.632  0.00  0.00    +0.000 A 
ATOM     12  C   UNL     1      -4.388  14.433  22.231  0.00  0.00    +0.000 A 
ATOM     13  C   UNL     1      -4.212  15.315  23.437  0.00  0.00    +0.000 C 
ATOM     14  C   UNL     1      -3.319  13.685  21.685  0.00  0.00    +0.000 A 
ATOM     15  C   UNL     1      -1.925  13.757  22.255  0.00  0.00    +0.000 C 
ATOM     16  C   UNL     1      -3.552  12.888  20.543  0.00  0.00    +0.000 A 
ATOM     17  O   UNL     1      -2.474  12.195  20.037  0.00  0.00    +0.000 OA
ATOM     18  C   UNL     1      -2.625  11.483  18.870  0.00  0.00    +0.000 A 
ENDBRANCH   1   2
BRANCH   1  20
ATOM     19  N   UNL     1       1.478   9.237  18.690  0.00  0.00    +0.000 N 
ATOM     20  C   UNL     1       0.490   9.793  19.496  0.00  0.00    +0.000 C 
ATOM     21  O   UNL     1       0.087   9.308  20.554  0.00  0.00    +0.000 OA
ATOM     22  H   UNL     1       1.831   9.722  17.874  0.00  0.00    +0.000 HD
BRANCH  19  24
ATOM     23  C   UNL     1       2.697   7.378  18.187  0.00  0.00    +0.000 C 
ATOM     24  N   UNL     1       2.026   8.048  19.066  0.00  0.00    +0.000 NA
BRANCH  23  27
ATOM     25  C   UNL     1       3.156   3.873  19.568  0.00  0.00    +0.000 A 
ATOM     26  C   UNL     1       2.575   5.092  19.186  0.00  0.00    +0.000 A 
ATOM     27  C   UNL     1       3.328   6.087  18.553  0.00  0.00    +0.000 A 
ATOM     28  C   UNL     1       4.677   5.868  18.280  0.00  0.00    +0.000 A 
ATOM     29  C   UNL     1       5.269   4.657  18.658  0.00  0.00    +0.000 A 
ATOM     30  C   UNL     1       4.514   3.669  19.304  0.00  0.00    +0.000 A 
BRANCH  25  32
ATOM     31  C   UNL     1       2.191   3.024  21.590  0.00  0.00    +0.000 C 
ATOM     32  O   UNL     1       2.266   3.030  20.173  0.00  0.00    +0.000 OA
ENDBRANCH  25  32
BRANCH  30  33
ATOM     33  O   UNL     1       5.140   2.509  19.664  0.00  0.00    +0.000 OA
ATOM     34  H   UNL     1       5.784   2.689  20.367  0.00  0.00    +0.000 HD
ENDBRANCH  30  33
ENDBRANCH  23  27
ENDBRANCH  19  24
ENDBRANCH   1  20
TORSDOF 6
ENDMDL
MODEL 4
REMARK VINA RESULT:      -8.5      1.060      1.994
REMARK  Name = 
REMARK  9 active torsions:
REMARK  status: ('A' for Active; 'I' for Inactive)
REMARK    1  A    between atoms: C_1  and  O_2
REMARK    2  A    between atoms: O_2  and  C_3
REMARK    3  A    between atoms: C_5  and  C_6
REMARK    4  A    between atoms: N_7  and  N_8
REMARK    5  A    between atoms: C_9  and  C_11
REMARK    6  A    between atoms: C_11  and  C_12
REMARK    7  A    between atoms: C_22  and  C_23
REMARK    8  A    between atoms: C_24  and  C_25
REMARK    9  A    between atoms: C_31  and  O_32
REMARK                            x       y       z     vdW  Elec       q    Type
REMARK                         _______ _______ _______ _____ _____    ______ ____
ROOT
ATOM      1  C   UNL     1      -0.879  11.925  18.414  0.00  0.00    +0.000 C 
ENDROOT
BRANCH   1   2
ATOM      2  C   UNL     1      -2.195  11.541  17.778  0.00  0.00    +0.000 A 
ATOM      3  C   UNL     1      -2.203  11.017  16.472  0.00  0.00    +0.000 A 
ATOM      4  C   UNL     1      -3.403  10.703  15.831  0.00  0.00    +0.000 A 
ATOM      5  C   UNL     1      -4.613  10.902  16.487  0.00  0.00    +0.000 A 
ATOM      6  C   UNL     1      -4.615  11.406  17.790  0.00  0.00    +0.000 A 
ATOM      7  C   UNL     1      -5.886  11.646  18.485  0.00  0.00    +0.000 A 
ATOM      8  O   UNL     1      -6.963  11.366  17.972  0.00  0.00    +0.000 OA
ATOM      9  C   UNL     1      -5.807  12.260  19.816  0.00  0.00    +0.000 A 
ATOM     10  C   UNL     1      -6.973  12.603  20.499  0.00  0.00    +0.000 A 
ATOM     11  C   UNL     1      -6.883  13.199  21.753  0.00  0.00    +0.000 A 
ATOM     12  C   UNL     1      -5.632  13.460  22.340  0.00  0.00    +0.000 A 
ATOM     13  C   UNL     1      -5.599  14.114  23.695  0.00  0.00    +0.000 C 
ATOM     14  C   UNL     1      -4.451  13.112  21.645  0.00  0.00    +0.000 A 
ATOM     15  C   UNL     1      -3.082  13.412  22.203  0.00  0.00    +0.000 C 
ATOM     16  C   UNL     1      -4.554  12.513  20.371  0.00  0.00    +0.000 A 
ATOM     17  O   UNL     1      -3.374  12.212  19.727  0.00  0.00    +0.000 OA
ATOM     18  C   UNL     1      -3.421  11.718  18.444  0.00  0.00    +0.000 A 
ENDBRANCH   1   2
BRANCH   1  20
ATOM     19  N   UNL     1       0.962  10.331  18.242  0.00  0.00    +0.000 N 
ATOM     20  C   UNL     1      -0.119  10.756  19.008  0.00  0.00    +0.000 C 
ATOM     21  O   UNL     1      -0.480  10.240  20.065  0.00  0.00    +0.000 OA
ATOM     22  H   UNL     1       1.266  10.846  17.425  0.00  0.00    +0.000 HD
BRANCH  19  24
ATOM     23  C   UNL     1       2.220   8.491  17.770  0.00  0.00    +0.000 C 
ATOM     24  N   UNL     1       1.664   9.242  18.663  0.00  0.00    +0.000 NA
BRANCH  23  27
ATOM     25  C   UNL     1       4.821   5.728  17.740  0.00  0.00    +0.000 A 
ATOM     26  C   UNL     1       4.079   6.866  17.389  0.00  0.00    +0.000 A 
ATOM     27  C   UNL     1       3.009   7.304  18.178  0.00  0.00    +0.000 A 
ATOM     28  C   UNL     1       2.675   6.611  19.340  0.00  0.00    +0.000 A 
ATOM     29  C   UNL     1       3.407   5.473  19.699  0.00  0.00    +0.000 A 
ATOM     30  C   UNL     1       4.469   5.031  18.899  0.00  0.00    +0.000 A 
BRANCH  25  32
ATOM     31  C   UNL     1       5.599   4.470  15.854  0.00  0.00    +0.000 C 
ATOM     32  O   UNL     1       5.823   5.456  16.849  0.00  0.00    +0.000 OA
ENDBRANCH  25  32
BRANCH  30  33
ATOM     33  O   UNL     1       5.145   3.908  19.285  0.00  0.00    +0.000 OA
ATOM     34  H   UNL     1       4.868   3.650  20.178  0.00  0.00    +0.000 HD
ENDBRANCH  30  33
ENDBRANCH  23  27
ENDBRANCH  19  24
ENDBRANCH   1  20
TORSDOF 6
ENDMDL
MODEL 5
REMARK VINA RESULT:      -8.5      2.200      4.183
REMARK  Name = 
REMARK  9 active torsions:
REMARK  status: ('A' for Active; 'I' for Inactive)
REMARK    1  A    between atoms: C_1  and  O_2
REMARK    2  A    between atoms: O_2  and  C_3
REMARK    3  A    between atoms: C_5  and  C_6
REMARK    4  A    between atoms: N_7  and  N_8
REMARK    5  A    between atoms: C_9  and  C_11
REMARK    6  A    between atoms: C_11  and  C_12
REMARK    7  A    between atoms: C_22  and  C_23
REMARK    8  A    between atoms: C_24  and  C_25
REMARK    9  A    between atoms: C_31  and  O_32
REMARK                            x       y       z     vdW  Elec       q    Type
REMARK                         _______ _______ _______ _____ _____    ______ ____
ROOT
ATOM      1  C   UNL     1      -0.034   9.934  18.141  0.00  0.00    +0.000 C 
ENDROOT
BRANCH   1   2
ATOM      2  C   UNL     1      -0.217  10.646  19.461  0.00  0.00    +0.000 A 
ATOM      3  C   UNL     1       0.803  10.576  20.429  0.00  0.00    +0.000 A 
ATOM      4  C   UNL     1       0.647  11.173  21.682  0.00  0.00    +0.000 A 
ATOM      5  C   UNL     1      -0.528  11.854  21.984  0.00  0.00    +0.000 A 
ATOM      6  C   UNL     1      -1.538  11.943  21.024  0.00  0.00    +0.000 A 
ATOM      7  C   UNL     1      -2.794  12.636  21.340  0.00  0.00    +0.000 A 
ATOM      8  O   UNL     1      -2.968  13.194  22.416  0.00  0.00    +0.000 OA
ATOM      9  C   UNL     1      -3.841  12.609  20.312  0.00  0.00    +0.000 A 
ATOM     10  C   UNL     1      -5.092  13.166  20.571  0.00  0.00    +0.000 A 
ATOM     11  C   UNL     1      -6.081  13.119  19.593  0.00  0.00    +0.000 A 
ATOM     12  C   UNL     1      -5.834  12.518  18.346  0.00  0.00    +0.000 A 
ATOM     13  C   UNL     1      -6.945  12.491  17.331  0.00  0.00    +0.000 C 
ATOM     14  C   UNL     1      -4.564  11.954  18.084  0.00  0.00    +0.000 A 
ATOM     15  C   UNL     1      -4.257  11.255  16.784  0.00  0.00    +0.000 C 
ATOM     16  C   UNL     1      -3.571  12.002  19.086  0.00  0.00    +0.000 A 
ATOM     17  O   UNL     1      -2.358  11.421  18.789  0.00  0.00    +0.000 OA
ATOM     18  C   UNL     1      -1.392  11.355  19.766  0.00  0.00    +0.000 A 
ENDBRANCH   1   2
BRANCH   1  20
ATOM     19  N   UNL     1       1.611   8.134  18.021  0.00  0.00    +0.000 N 
ATOM     20  C   UNL     1       1.393   9.500  17.870  0.00  0.00    +0.000 C 
ATOM     21  O   UNL     1       2.257  10.323  17.571  0.00  0.00    +0.000 OA
ATOM     22  H   UNL     1       0.847   7.491  18.184  0.00  0.00    +0.000 HD
BRANCH  19  24
ATOM     23  C   UNL     1       3.086   6.397  18.038  0.00  0.00    +0.000 C 
ATOM     24  N   UNL     1       2.879   7.661  17.864  0.00  0.00    +0.000 NA
BRANCH  23  27
ATOM     25  C   UNL     1       6.316   5.262  16.402  0.00  0.00    +0.000 A 
ATOM     26  C   UNL     1       5.044   5.819  16.598  0.00  0.00    +0.000 A 
ATOM     27  C   UNL     1       4.445   5.831  17.863  0.00  0.00    +0.000 A 
ATOM     28  C   UNL     1       5.123   5.294  18.957  0.00  0.00    +0.000 A 
ATOM     29  C   UNL     1       6.392   4.734  18.773  0.00  0.00    +0.000 A 
ATOM     30  C   UNL     1       6.982   4.713  17.502  0.00  0.00    +0.000 A 
BRANCH  25  32
ATOM     31  C   UNL     1       6.221   4.406  14.166  0.00  0.00    +0.000 C 
ATOM     32  O   UNL     1       6.733   5.341  15.102  0.00  0.00    +0.000 OA
ENDBRANCH  25  32
BRANCH  30  33
ATOM     33  O   UNL     1       8.217   4.144  17.372  0.00  0.00    +0.000 OA
ATOM     34  H   UNL     1       8.902   4.828  17.438  0.00  0.00    +0.000 HD
ENDBRANCH  30  33
ENDBRANCH  23  27
ENDBRANCH  19  24
ENDBRANCH   1  20
TORSDOF 6
ENDMDL
MODEL 6
REMARK VINA RESULT:      -8.4      1.801      4.520
REMARK  Name = 
REMARK  9 active torsions:
REMARK  status: ('A' for Active; 'I' for Inactive)
REMARK    1  A    between atoms: C_1  and  O_2
REMARK    2  A    between atoms: O_2  and  C_3
REMARK    3  A    between atoms: C_5  and  C_6
REMARK    4  A    between atoms: N_7  and  N_8
REMARK    5  A    between atoms: C_9  and  C_11
REMARK    6  A    between atoms: C_11  and  C_12
REMARK    7  A    between atoms: C_22  and  C_23
REMARK    8  A    between atoms: C_24  and  C_25
REMARK    9  A    between atoms: C_31  and  O_32
REMARK                            x       y       z     vdW  Elec       q    Type
REMARK                         _______ _______ _______ _____ _____    ______ ____
ROOT
ATOM      1  C   UNL     1       0.435  11.257  21.559  0.00  0.00    +0.000 C 
ENDROOT
BRANCH   1   2
ATOM      2  C   UNL     1      -0.887  11.945  21.813  0.00  0.00    +0.000 A 
ATOM      3  C   UNL     1      -1.132  12.522  23.073  0.00  0.00    +0.000 A 
ATOM      4  C   UNL     1      -2.362  13.116  23.364  0.00  0.00    +0.000 A 
ATOM      5  C   UNL     1      -3.362  13.147  22.399  0.00  0.00    +0.000 A 
ATOM      6  C   UNL     1      -3.123  12.593  21.140  0.00  0.00    +0.000 A 
ATOM      7  C   UNL     1      -4.180  12.595  20.120  0.00  0.00    +0.000 A 
ATOM      8  O   UNL     1      -5.266  13.124  20.321  0.00  0.00    +0.000 OA
ATOM      9  C   UNL     1      -3.881  11.914  18.855  0.00  0.00    +0.000 A 
ATOM     10  C   UNL     1      -4.864  11.795  17.874  0.00  0.00    +0.000 A 
ATOM     11  C   UNL     1      -4.571  11.132  16.686  0.00  0.00    +0.000 A 
ATOM     12  C   UNL     1      -3.297  10.581  16.462  0.00  0.00    +0.000 A 
ATOM     13  C   UNL     1      -3.044   9.870  15.160  0.00  0.00    +0.000 C 
ATOM     14  C   UNL     1      -2.301  10.703  17.458  0.00  0.00    +0.000 A 
ATOM     15  C   UNL     1      -0.932  10.091  17.293  0.00  0.00    +0.000 C 
ATOM     16  C   UNL     1      -2.611  11.372  18.661  0.00  0.00    +0.000 A 
ATOM     17  O   UNL     1      -1.613  11.446  19.609  0.00  0.00    +0.000 OA
ATOM     18  C   UNL     1      -1.895  12.001  20.835  0.00  0.00    +0.000 A 
ENDBRANCH   1   2
BRANCH   1  20
ATOM     19  N   UNL     1       1.113   9.291  20.281  0.00  0.00    +0.000 N 
ATOM     20  C   UNL     1       0.315   9.766  21.317  0.00  0.00    +0.000 C 
ATOM     21  O   UNL     1      -0.455   9.078  21.986  0.00  0.00    +0.000 OA
ATOM     22  H   UNL     1       1.792   9.884  19.821  0.00  0.00    +0.000 HD
BRANCH  19  24
ATOM     23  C   UNL     1       2.028   7.205  20.203  0.00  0.00    +0.000 C 
ATOM     24  N   UNL     1       1.021   7.973  19.946  0.00  0.00    +0.000 NA
BRANCH  23  27
ATOM     25  C   UNL     1       2.403   3.942  18.303  0.00  0.00    +0.000 A 
ATOM     26  C   UNL     1       2.474   5.299  18.651  0.00  0.00    +0.000 A 
ATOM     27  C   UNL     1       1.970   5.761  19.872  0.00  0.00    +0.000 A 
ATOM     28  C   UNL     1       1.400   4.862  20.772  0.00  0.00    +0.000 A 
ATOM     29  C   UNL     1       1.322   3.506  20.435  0.00  0.00    +0.000 A 
ATOM     30  C   UNL     1       1.815   3.051  19.205  0.00  0.00    +0.000 A 
BRANCH  25  32
ATOM     31  C   UNL     1       4.312   3.986  16.854  0.00  0.00    +0.000 C 
ATOM     32  O   UNL     1       2.943   3.683  17.073  0.00  0.00    +0.000 OA
ENDBRANCH  25  32
BRANCH  30  33
ATOM     33  O   UNL     1       1.705   1.719  18.917  0.00  0.00    +0.000 OA
ATOM     34  H   UNL     1       2.005   1.194  19.676  0.00  0.00    +0.000 HD
ENDBRANCH  30  33
ENDBRANCH  23  27
ENDBRANCH  19  24
ENDBRANCH   1  20
TORSDOF 6
ENDMDL
MODEL 7
REMARK VINA RESULT:      -8.4      1.538      2.400
REMARK  Name = 
REMARK  9 active torsions:
REMARK  status: ('A' for Active; 'I' for Inactive)
REMARK    1  A    between atoms: C_1  and  O_2
REMARK    2  A    between atoms: O_2  and  C_3
REMARK    3  A    between atoms: C_5  and  C_6
REMARK    4  A    between atoms: N_7  and  N_8
REMARK    5  A    between atoms: C_9  and  C_11
REMARK    6  A    between atoms: C_11  and  C_12
REMARK    7  A    between atoms: C_22  and  C_23
REMARK    8  A    between atoms: C_24  and  C_25
REMARK    9  A    between atoms: C_31  and  O_32
REMARK                            x       y       z     vdW  Elec       q    Type
REMARK                         _______ _______ _______ _____ _____    ______ ____
ROOT
ATOM      1  C   UNL     1       0.487  10.637  19.529  0.00  0.00    +0.000 C 
ENDROOT
BRANCH   1   2
ATOM      2  C   UNL     1      -0.838  10.648  18.802  0.00  0.00    +0.000 A 
ATOM      3  C   UNL     1      -0.948   9.995  17.559  0.00  0.00    +0.000 A 
ATOM      4  C   UNL     1      -2.139  10.031  16.832  0.00  0.00    +0.000 A 
ATOM      5  C   UNL     1      -3.240  10.714  17.337  0.00  0.00    +0.000 A 
ATOM      6  C   UNL     1      -3.146  11.351  18.577  0.00  0.00    +0.000 A 
ATOM      7  C   UNL     1      -4.292  12.098  19.109  0.00  0.00    +0.000 A 
ATOM      8  O   UNL     1      -5.364  12.140  18.518  0.00  0.00    +0.000 OA
ATOM      9  C   UNL     1      -4.086  12.814  20.374  0.00  0.00    +0.000 A 
ATOM     10  C   UNL     1      -5.097  13.619  20.897  0.00  0.00    +0.000 A 
ATOM     11  C   UNL     1      -4.881  14.305  22.089  0.00  0.00    +0.000 A 
ATOM     12  C   UNL     1      -3.658  14.195  22.773  0.00  0.00    +0.000 A 
ATOM     13  C   UNL     1      -3.482  14.967  24.053  0.00  0.00    +0.000 C 
ATOM     14  C   UNL     1      -2.633  13.378  22.241  0.00  0.00    +0.000 A 
ATOM     15  C   UNL     1      -1.285  13.260  22.905  0.00  0.00    +0.000 C 
ATOM     16  C   UNL     1      -2.861  12.692  21.029  0.00  0.00    +0.000 A 
ATOM     17  O   UNL     1      -1.825  11.925  20.542  0.00  0.00    +0.000 OA
ATOM     18  C   UNL     1      -1.962  11.317  19.316  0.00  0.00    +0.000 A 
ENDBRANCH   1   2
BRANCH   1  20
ATOM     19  N   UNL     1       1.353   8.442  20.154  0.00  0.00    +0.000 N 
ATOM     20  C   UNL     1       1.363   9.446  19.192  0.00  0.00    +0.000 C 
ATOM     21  O   UNL     1       2.029   9.425  18.157  0.00  0.00    +0.000 OA
ATOM     22  H   UNL     1       0.720   8.472  20.944  0.00  0.00    +0.000 HD
BRANCH  19  24
ATOM     23  C   UNL     1       1.826   6.243  20.524  0.00  0.00    +0.000 C 
ATOM     24  N   UNL     1       2.162   7.362  19.969  0.00  0.00    +0.000 NA
BRANCH  23  27
ATOM     25  C   UNL     1       4.658   3.980  19.405  0.00  0.00    +0.000 A 
ATOM     26  C   UNL     1       3.862   5.115  19.617  0.00  0.00    +0.000 A 
ATOM     27  C   UNL     1       2.666   5.035  20.339  0.00  0.00    +0.000 A 
ATOM     28  C   UNL     1       2.256   3.814  20.872  0.00  0.00    +0.000 A 
ATOM     29  C   UNL     1       3.042   2.674  20.664  0.00  0.00    +0.000 A 
ATOM     30  C   UNL     1       4.232   2.756  19.929  0.00  0.00    +0.000 A 
BRANCH  25  32
ATOM     31  C   UNL     1       5.646   4.935  17.441  0.00  0.00    +0.000 C 
ATOM     32  O   UNL     1       5.784   4.253  18.677  0.00  0.00    +0.000 OA
ENDBRANCH  25  32
BRANCH  30  33
ATOM     33  O   UNL     1       4.957   1.613  19.744  0.00  0.00    +0.000 OA
ATOM     34  H   UNL     1       5.021   1.126  20.580  0.00  0.00    +0.000 HD
ENDBRANCH  30  33
ENDBRANCH  23  27
ENDBRANCH  19  24
ENDBRANCH   1  20
TORSDOF 6
ENDMDL
MODEL 8
REMARK VINA RESULT:      -8.3      0.908      1.803
REMARK  Name = 
REMARK  9 active torsions:
REMARK  status: ('A' for Active; 'I' for Inactive)
REMARK    1  A    between atoms: C_1  and  O_2
REMARK    2  A    between atoms: O_2  and  C_3
REMARK    3  A    between atoms: C_5  and  C_6
REMARK    4  A    between atoms: N_7  and  N_8
REMARK    5  A    between atoms: C_9  and  C_11
REMARK    6  A    between atoms: C_11  and  C_12
REMARK    7  A    between atoms: C_22  and  C_23
REMARK    8  A    between atoms: C_24  and  C_25
REMARK    9  A    between atoms: C_31  and  O_32
REMARK                            x       y       z     vdW  Elec       q    Type
REMARK                         _______ _______ _______ _____ _____    ______ ____
ROOT
ATOM      1  C   UNL     1      -0.256  11.358  18.574  0.00  0.00    +0.000 C 
ENDROOT
BRANCH   1   2
ATOM      2  C   UNL     1      -1.692  11.188  18.137  0.00  0.00    +0.000 A 
ATOM      3  C   UNL     1      -1.967  10.616  16.880  0.00  0.00    +0.000 A 
ATOM      4  C   UNL     1      -3.278  10.494  16.417  0.00  0.00    +0.000 A 
ATOM      5  C   UNL     1      -4.336  10.936  17.206  0.00  0.00    +0.000 A 
ATOM      6  C   UNL     1      -4.075  11.489  18.461  0.00  0.00    +0.000 A 
ATOM      7  C   UNL     1      -5.180  11.984  19.292  0.00  0.00    +0.000 A 
ATOM      8  O   UNL     1      -6.348  11.879  18.938  0.00  0.00    +0.000 OA
ATOM      9  C   UNL     1      -4.817  12.632  20.558  0.00  0.00    +0.000 A 
ATOM     10  C   UNL     1      -5.803  13.208  21.357  0.00  0.00    +0.000 A 
ATOM     11  C   UNL     1      -5.443  13.834  22.547  0.00  0.00    +0.000 A 
ATOM     12  C   UNL     1      -4.098  13.893  22.953  0.00  0.00    +0.000 A 
ATOM     13  C   UNL     1      -3.770  14.590  24.246  0.00  0.00    +0.000 C 
ATOM     14  C   UNL     1      -3.099  13.308  22.141  0.00  0.00    +0.000 A 
ATOM     15  C   UNL     1      -1.637  13.382  22.501  0.00  0.00    +0.000 C 
ATOM     16  C   UNL     1      -3.476  12.681  20.933  0.00  0.00    +0.000 A 
ATOM     17  O   UNL     1      -2.463  12.145  20.167  0.00  0.00    +0.000 OA
ATOM     18  C   UNL     1      -2.768  11.611  18.937  0.00  0.00    +0.000 A 
ENDBRANCH   1   2
BRANCH   1  20
ATOM     19  N   UNL     1       1.422   9.595  18.386  0.00  0.00    +0.000 N 
ATOM     20  C   UNL     1       0.367  10.098  19.141  0.00  0.00    +0.000 C 
ATOM     21  O   UNL     1      -0.073   9.583  20.169  0.00  0.00    +0.000 OA
ATOM     22  H   UNL     1       1.799  10.105  17.597  0.00  0.00    +0.000 HD
BRANCH  19  24
ATOM     23  C   UNL     1       2.697   7.765  17.916  0.00  0.00    +0.000 C 
ATOM     24  N   UNL     1       2.000   8.426  18.781  0.00  0.00    +0.000 NA
BRANCH  23  27
ATOM     25  C   UNL     1       5.164   4.883  17.986  0.00  0.00    +0.000 A 
ATOM     26  C   UNL     1       4.535   6.093  17.659  0.00  0.00    +0.000 A 
ATOM     27  C   UNL     1       3.359   6.496  18.302  0.00  0.00    +0.000 A 
ATOM     28  C   UNL     1       2.802   5.694  19.296  0.00  0.00    +0.000 A 
ATOM     29  C   UNL     1       3.420   4.482  19.630  0.00  0.00    +0.000 A 
ATOM     30  C   UNL     1       4.589   4.077  18.974  0.00  0.00    +0.000 A 
BRANCH  25  32
ATOM     31  C   UNL     1       6.706   5.647  16.319  0.00  0.00    +0.000 C 
ATOM     32  O   UNL     1       6.296   4.660  17.252  0.00  0.00    +0.000 OA
ENDBRANCH  25  32
BRANCH  30  33
ATOM     33  O   UNL     1       5.148   2.881  19.327  0.00  0.00    +0.000 OA
ATOM     34  H   UNL     1       4.461   2.288  19.670  0.00  0.00    +0.000 HD
ENDBRANCH  30  33
ENDBRANCH  23  27
ENDBRANCH  19  24
ENDBRANCH   1  20
TORSDOF 6
ENDMDL
MODEL 9
REMARK VINA RESULT:      -8.3      1.756      2.376
REMARK  Name = 
REMARK  9 active torsions:
REMARK  status: ('A' for Active; 'I' for Inactive)
REMARK    1  A    between atoms: C_1  and  O_2
REMARK    2  A    between atoms: O_2  and  C_3
REMARK    3  A    between atoms: C_5  and  C_6
REMARK    4  A    between atoms: N_7  and  N_8
REMARK    5  A    between atoms: C_9  and  C_11
REMARK    6  A    between atoms: C_11  and  C_12
REMARK    7  A    between atoms: C_22  and  C_23
REMARK    8  A    between atoms: C_24  and  C_25
REMARK    9  A    between atoms: C_31  and  O_32
REMARK                            x       y       z     vdW  Elec       q    Type
REMARK                         _______ _______ _______ _____ _____    ______ ____
ROOT
ATOM      1  C   UNL     1       0.291  10.743  19.466  0.00  0.00    +0.000 C 
ENDROOT
BRANCH   1   2
ATOM      2  C   UNL     1      -1.046  10.779  18.763  0.00  0.00    +0.000 A 
ATOM      3  C   UNL     1      -1.179  10.165  17.503  0.00  0.00    +0.000 A 
ATOM      4  C   UNL     1      -2.383  10.226  16.798  0.00  0.00    +0.000 A 
ATOM      5  C   UNL     1      -3.473  10.896  17.343  0.00  0.00    +0.000 A 
ATOM      6  C   UNL     1      -3.356  11.494  18.599  0.00  0.00    +0.000 A 
ATOM      7  C   UNL     1      -4.491  12.228  19.174  0.00  0.00    +0.000 A 
ATOM      8  O   UNL     1      -5.572  12.290  18.603  0.00  0.00    +0.000 OA
ATOM      9  C   UNL     1      -4.260  12.904  20.457  0.00  0.00    +0.000 A 
ATOM     10  C   UNL     1      -5.259  13.695  21.021  0.00  0.00    +0.000 A 
ATOM     11  C   UNL     1      -5.021  14.343  22.230  0.00  0.00    +0.000 A 
ATOM     12  C   UNL     1      -3.787  14.210  22.889  0.00  0.00    +0.000 A 
ATOM     13  C   UNL     1      -3.586  14.941  24.189  0.00  0.00    +0.000 C 
ATOM     14  C   UNL     1      -2.774  13.407  22.315  0.00  0.00    +0.000 A 
ATOM     15  C   UNL     1      -1.414  13.266  22.952  0.00  0.00    +0.000 C 
ATOM     16  C   UNL     1      -3.025  12.759  21.086  0.00  0.00    +0.000 A 
ATOM     17  O   UNL     1      -1.999  12.005  20.558  0.00  0.00    +0.000 OA
ATOM     18  C   UNL     1      -2.159  11.435  19.317  0.00  0.00    +0.000 A 
ENDBRANCH   1   2
BRANCH   1  20
ATOM     19  N   UNL     1       1.526   8.693  18.984  0.00  0.00    +0.000 N 
ATOM     20  C   UNL     1       1.380  10.042  18.678  0.00  0.00    +0.000 C 
ATOM     21  O   UNL     1       2.070  10.659  17.867  0.00  0.00    +0.000 OA
ATOM     22  H   UNL     1       0.876   8.216  19.596  0.00  0.00    +0.000 HD
BRANCH  19  24
ATOM     23  C   UNL     1       2.520   6.707  18.473  0.00  0.00    +0.000 C 
ATOM     24  N   UNL     1       2.526   7.996  18.375  0.00  0.00    +0.000 NA
BRANCH  23  27
ATOM     25  C   UNL     1       5.782   5.771  16.775  0.00  0.00    +0.000 A 
ATOM     26  C   UNL     1       4.779   6.505  17.426  0.00  0.00    +0.000 A 
ATOM     27  C   UNL     1       3.577   5.903  17.814  0.00  0.00    +0.000 A 
ATOM     28  C   UNL     1       3.368   4.547  17.564  0.00  0.00    +0.000 A 
ATOM     29  C   UNL     1       4.360   3.805  16.913  0.00  0.00    +0.000 A 
ATOM     30  C   UNL     1       5.557   4.416  16.515  0.00  0.00    +0.000 A 
BRANCH  25  32
ATOM     31  C   UNL     1       7.517   7.247  17.518  0.00  0.00    +0.000 C 
ATOM     32  O   UNL     1       6.880   6.529  16.474  0.00  0.00    +0.000 OA
ENDBRANCH  25  32
BRANCH  30  33
ATOM     33  O   UNL     1       6.489   3.652  15.872  0.00  0.00    +0.000 OA
ATOM     34  H   UNL     1       7.106   3.275  16.518  0.00  0.00    +0.000 HD
ENDBRANCH  30  33
ENDBRANCH  23  27
ENDBRANCH  19  24
ENDBRANCH   1  20
TORSDOF 6
ENDMDL
