MODEL 1
REMARK VINA RESULT:      -9.0      0.000      0.000
REMARK  Name = 
REMARK  7 active torsions:
REMARK  status: ('A' for Active; 'I' for Inactive)
REMARK    1  A    between atoms: C_1  and  C_2
REMARK    2  A    between atoms: C_5  and  N_6
REMARK    3  A    between atoms: C_7  and  C_9
REMARK    4  A    between atoms: C_11  and  S_12
REMARK    5  A    between atoms: S_12  and  C_15
REMARK    6  A    between atoms: C_15  and  C_16
REMARK    7  A    between atoms: C_20  and  C_21
REMARK                            x       y       z     vdW  Elec       q    Type
REMARK                         _______ _______ _______ _____ _____    ______ ____
ROOT
ATOM      1  C   UNL     1       3.235   5.239  19.724  0.00  0.00    +0.000 A 
ATOM      2  N   UNL     1       4.020   5.883  18.813  0.00  0.00    +0.000 NA
ATOM      3  C   UNL     1       5.044   5.154  18.337  0.00  0.00    +0.000 A 
ATOM      4  N   UNL     1       5.345   3.879  18.661  0.00  0.00    +0.000 NA
ATOM      5  C   UNL     1       4.516   3.300  19.554  0.00  0.00    +0.000 A 
ATOM      6  C   UNL     1       3.429   3.926  20.131  0.00  0.00    +0.000 A 
ATOM      7 CL   UNL     1       2.415   3.028  21.185  0.00  0.00    +0.000 Cl
ENDROOT
BRANCH   1   9
ATOM      8  N   UNL     1       2.347   7.430  20.210  0.00  0.00    +0.000 N 
ATOM      9  C   UNL     1       2.103   6.065  20.243  0.00  0.00    +0.000 C 
ATOM     10  O   UNL     1       1.084   5.514  20.637  0.00  0.00    +0.000 OA
ATOM     11  H   UNL     1       3.222   7.725  19.787  0.00  0.00    +0.000 HD
BRANCH   8  16
ATOM     12  C   UNL     1      -1.189  11.550  22.040  0.00  0.00    +0.000 C 
ATOM     13  C   UNL     1      -0.274  10.467  21.551  0.00  0.00    +0.000 A 
ATOM     14  C   UNL     1      -0.013  10.326  20.188  0.00  0.00    +0.000 A 
ATOM     15  C   UNL     1       0.848   9.326  19.731  0.00  0.00    +0.000 A 
ATOM     16  C   UNL     1       1.460   8.446  20.624  0.00  0.00    +0.000 A 
ATOM     17  C   UNL     1       1.182   8.568  21.990  0.00  0.00    +0.000 A 
ATOM     18  C   UNL     1       0.330   9.582  22.451  0.00  0.00    +0.000 A 
ENDBRANCH   8  16
ENDBRANCH   1   9
BRANCH   3  19
ATOM     19  S   UNL     1       5.931   5.877  16.946  0.00  0.00    +0.000 S 
ATOM     20  O   UNL     1       4.947   6.348  15.986  0.00  0.00    +0.000 OA
ATOM     21  O   UNL     1       6.908   6.788  17.523  0.00  0.00    +0.000 OA
BRANCH  19  22
ATOM     22  C   UNL     1       6.771   4.460  16.253  0.00  0.00    +0.000 C 
BRANCH  22  23
ATOM     23  C   UNL     1       6.801   4.505  14.739  0.00  0.00    +0.000 A 
ATOM     24  C   UNL     1       7.758   5.298  14.083  0.00  0.00    +0.000 A 
ATOM     25  C   UNL     1       7.884   5.261  12.693  0.00  0.00    +0.000 A 
ATOM     26  C   UNL     1       7.060   4.431  11.935  0.00  0.00    +0.000 A 
ATOM     27  C   UNL     1       6.098   3.638  12.559  0.00  0.00    +0.000 A 
ATOM     28  C   UNL     1       5.232   2.706  11.760  0.00  0.00    +0.000 C 
ATOM     29  C   UNL     1       5.965   3.687  13.959  0.00  0.00    +0.000 A 
ENDBRANCH  22  23
ENDBRANCH  19  22
ENDBRANCH   3  19
TORSDOF 5
ENDMDL
MODEL 2
REMARK VINA RESULT:      -9.0      1.233      1.397
REMARK  Name = 
REMARK  7 active torsions:
REMARK  status: ('A' for Active; 'I' for Inactive)
REMARK    1  A    between atoms: C_1  and  C_2
REMARK    2  A    between atoms: C_5  and  N_6
REMARK    3  A    between atoms: C_7  and  C_9
REMARK    4  A    between atoms: C_11  and  S_12
REMARK    5  A    between atoms: S_12  and  C_15
REMARK    6  A    between atoms: C_15  and  C_16
REMARK    7  A    between atoms: C_20  and  C_21
REMARK                            x       y       z     vdW  Elec       q    Type
REMARK                         _______ _______ _______ _____ _____    ______ ____
ROOT
ATOM      1  C   UNL     1       2.848   6.793  19.046  0.00  0.00    +0.000 A 
ATOM      2  N   UNL     1       3.798   7.055  18.104  0.00  0.00    +0.000 NA
ATOM      3  C   UNL     1       4.632   6.032  17.847  0.00  0.00    +0.000 A 
ATOM      4  N   UNL     1       4.603   4.807  18.412  0.00  0.00    +0.000 NA
ATOM      5  C   UNL     1       3.626   4.614  19.322  0.00  0.00    +0.000 A 
ATOM      6  C   UNL     1       2.703   5.572  19.691  0.00  0.00    +0.000 A 
ATOM      7 CL   UNL     1       1.463   5.149  20.799  0.00  0.00    +0.000 Cl
ENDROOT
BRANCH   1   9
ATOM      8  N   UNL     1       1.750   8.202  20.670  0.00  0.00    +0.000 N 
ATOM      9  C   UNL     1       1.931   7.942  19.320  0.00  0.00    +0.000 C 
ATOM     10  O   UNL     1       1.431   8.551  18.384  0.00  0.00    +0.000 OA
ATOM     11  H   UNL     1       2.295   7.641  21.318  0.00  0.00    +0.000 HD
BRANCH   8  16
ATOM     12  C   UNL     1      -1.494  12.280  23.052  0.00  0.00    +0.000 C 
ATOM     13  C   UNL     1      -0.651  11.216  22.415  0.00  0.00    +0.000 A 
ATOM     14  C   UNL     1       0.149  11.516  21.312  0.00  0.00    +0.000 A 
ATOM     15  C   UNL     1       0.944  10.530  20.724  0.00  0.00    +0.000 A 
ATOM     16  C   UNL     1       0.953   9.227  21.222  0.00  0.00    +0.000 A 
ATOM     17  C   UNL     1       0.133   8.916  22.313  0.00  0.00    +0.000 A 
ATOM     18  C   UNL     1      -0.653   9.909  22.913  0.00  0.00    +0.000 A 
ENDBRANCH   8  16
ENDBRANCH   1   9
BRANCH   3  19
ATOM     19  S   UNL     1       5.720   6.255  16.429  0.00  0.00    +0.000 S 
ATOM     20  O   UNL     1       4.955   6.910  15.380  0.00  0.00    +0.000 OA
ATOM     21  O   UNL     1       6.941   6.852  16.948  0.00  0.00    +0.000 OA
BRANCH  19  22
ATOM     22  C   UNL     1       6.043   4.570  15.929  0.00  0.00    +0.000 C 
BRANCH  22  23
ATOM     23  C   UNL     1       6.385   4.472  14.457  0.00  0.00    +0.000 A 
ATOM     24  C   UNL     1       7.423   5.257  13.928  0.00  0.00    +0.000 A 
ATOM     25  C   UNL     1       7.837   5.095  12.603  0.00  0.00    +0.000 A 
ATOM     26  C   UNL     1       7.224   4.146  11.787  0.00  0.00    +0.000 A 
ATOM     27  C   UNL     1       6.186   3.358  12.285  0.00  0.00    +0.000 A 
ATOM     28  C   UNL     1       5.546   2.300  11.432  0.00  0.00    +0.000 C 
ATOM     29  C   UNL     1       5.765   3.532  13.616  0.00  0.00    +0.000 A 
ENDBRANCH  22  23
ENDBRANCH  19  22
ENDBRANCH   3  19
TORSDOF 5
ENDMDL
MODEL 3
REMARK VINA RESULT:      -8.5      1.336      1.894
REMARK  Name = 
REMARK  7 active torsions:
REMARK  status: ('A' for Active; 'I' for Inactive)
REMARK    1  A    between atoms: C_1  and  C_2
REMARK    2  A    between atoms: C_5  and  N_6
REMARK    3  A    between atoms: C_7  and  C_9
REMARK    4  A    between atoms: C_11  and  S_12
REMARK    5  A    between atoms: S_12  and  C_15
REMARK    6  A    between atoms: C_15  and  C_16
REMARK    7  A    between atoms: C_20  and  C_21
REMARK                            x       y       z     vdW  Elec       q    Type
REMARK                         _______ _______ _______ _____ _____    ______ ____
ROOT
ATOM      1  C   UNL     1       3.561   5.697  19.256  0.00  0.00    +0.000 A 
ATOM      2  N   UNL     1       4.834   6.035  18.905  0.00  0.00    +0.000 NA
ATOM      3  C   UNL     1       5.719   5.023  18.957  0.00  0.00    +0.000 A 
ATOM      4  N   UNL     1       5.463   3.745  19.303  0.00  0.00    +0.000 NA
ATOM      5  C   UNL     1       4.179   3.480  19.621  0.00  0.00    +0.000 A 
ATOM      6  C   UNL     1       3.164   4.416  19.617  0.00  0.00    +0.000 A 
ATOM      7 CL   UNL     1       1.562   3.908  19.961  0.00  0.00    +0.000 Cl
ENDROOT
BRANCH   1   9
ATOM      8  N   UNL     1       2.251   7.346  20.437  0.00  0.00    +0.000 N 
ATOM      9  C   UNL     1       2.592   6.833  19.193  0.00  0.00    +0.000 C 
ATOM     10  O   UNL     1       2.187   7.222  18.106  0.00  0.00    +0.000 OA
ATOM     11  H   UNL     1       2.733   6.950  21.239  0.00  0.00    +0.000 HD
BRANCH   8  16
ATOM     12  C   UNL     1      -1.289  11.698  21.596  0.00  0.00    +0.000 C 
ATOM     13  C   UNL     1      -0.371  10.556  21.281  0.00  0.00    +0.000 A 
ATOM     14  C   UNL     1       0.189  10.431  20.009  0.00  0.00    +0.000 A 
ATOM     15  C   UNL     1       1.054   9.374  19.716  0.00  0.00    +0.000 A 
ATOM     16  C   UNL     1       1.372   8.421  20.683  0.00  0.00    +0.000 A 
ATOM     17  C   UNL     1       0.794   8.529  21.952  0.00  0.00    +0.000 A 
ATOM     18  C   UNL     1      -0.062   9.598  22.253  0.00  0.00    +0.000 A 
ENDBRANCH   8  16
ENDBRANCH   1   9
BRANCH   3  19
ATOM     19  S   UNL     1       7.338   5.371  18.248  0.00  0.00    +0.000 S 
ATOM     20  O   UNL     1       8.029   6.286  19.143  0.00  0.00    +0.000 OA
ATOM     21  O   UNL     1       7.915   4.080  17.909  0.00  0.00    +0.000 OA
BRANCH  19  22
ATOM     22  C   UNL     1       6.916   6.250  16.750  0.00  0.00    +0.000 C 
BRANCH  22  23
ATOM     23  C   UNL     1       6.519   5.306  15.634  0.00  0.00    +0.000 A 
ATOM     24  C   UNL     1       5.343   4.546  15.748  0.00  0.00    +0.000 A 
ATOM     25  C   UNL     1       4.892   3.763  14.683  0.00  0.00    +0.000 A 
ATOM     26  C   UNL     1       5.605   3.729  13.486  0.00  0.00    +0.000 A 
ATOM     27  C   UNL     1       6.779   4.469  13.347  0.00  0.00    +0.000 A 
ATOM     28  C   UNL     1       7.535   4.477  12.049  0.00  0.00    +0.000 C 
ATOM     29  C   UNL     1       7.237   5.247  14.427  0.00  0.00    +0.000 A 
ENDBRANCH  22  23
ENDBRANCH  19  22
ENDBRANCH   3  19
TORSDOF 5
ENDMDL
MODEL 4
REMARK VINA RESULT:      -8.5      0.840      1.316
REMARK  Name = 
REMARK  7 active torsions:
REMARK  status: ('A' for Active; 'I' for Inactive)
REMARK    1  A    between atoms: C_1  and  C_2
REMARK    2  A    between atoms: C_5  and  N_6
REMARK    3  A    between atoms: C_7  and  C_9
REMARK    4  A    between atoms: C_11  and  S_12
REMARK    5  A    between atoms: S_12  and  C_15
REMARK    6  A    between atoms: C_15  and  C_16
REMARK    7  A    between atoms: C_20  and  C_21
REMARK                            x       y       z     vdW  Elec       q    Type
REMARK                         _______ _______ _______ _____ _____    ______ ____
ROOT
ATOM      1  C   UNL     1       3.359   4.954  19.679  0.00  0.00    +0.000 A 
ATOM      2  N   UNL     1       4.255   5.508  18.812  0.00  0.00    +0.000 NA
ATOM      3  C   UNL     1       5.291   4.714  18.490  0.00  0.00    +0.000 A 
ATOM      4  N   UNL     1       5.507   3.455  18.924  0.00  0.00    +0.000 NA
ATOM      5  C   UNL     1       4.572   2.966  19.765  0.00  0.00    +0.000 A 
ATOM      6  C   UNL     1       3.460   3.667  20.187  0.00  0.00    +0.000 A 
ATOM      7 CL   UNL     1       2.311   2.878  21.190  0.00  0.00    +0.000 Cl
ENDROOT
BRANCH   1   9
ATOM      8  N   UNL     1       2.515   7.203  19.922  0.00  0.00    +0.000 N 
ATOM      9  C   UNL     1       2.216   5.852  20.027  0.00  0.00    +0.000 C 
ATOM     10  O   UNL     1       1.144   5.364  20.357  0.00  0.00    +0.000 OA
ATOM     11  H   UNL     1       3.437   7.438  19.567  0.00  0.00    +0.000 HD
BRANCH   8  16
ATOM     12  C   UNL     1      -1.107  11.556  20.792  0.00  0.00    +0.000 C 
ATOM     13  C   UNL     1      -0.151  10.421  20.576  0.00  0.00    +0.000 A 
ATOM     14  C   UNL     1       0.201   9.583  21.635  0.00  0.00    +0.000 A 
ATOM     15  C   UNL     1       1.082   8.519  21.434  0.00  0.00    +0.000 A 
ATOM     16  C   UNL     1       1.633   8.274  20.176  0.00  0.00    +0.000 A 
ATOM     17  C   UNL     1       1.302   9.127  19.117  0.00  0.00    +0.000 A 
ATOM     18  C   UNL     1       0.405  10.186  19.314  0.00  0.00    +0.000 A 
ENDBRANCH   8  16
ENDBRANCH   1   9
BRANCH   3  19
ATOM     19  S   UNL     1       6.339   5.310  17.152  0.00  0.00    +0.000 S 
ATOM     20  O   UNL     1       6.733   6.673  17.468  0.00  0.00    +0.000 OA
ATOM     21  O   UNL     1       7.338   4.275  16.931  0.00  0.00    +0.000 OA
BRANCH  19  22
ATOM     22  C   UNL     1       5.206   5.351  15.770  0.00  0.00    +0.000 C 
BRANCH  22  23
ATOM     23  C   UNL     1       5.877   4.939  14.476  0.00  0.00    +0.000 A 
ATOM     24  C   UNL     1       7.143   5.453  14.152  0.00  0.00    +0.000 A 
ATOM     25  C   UNL     1       7.834   4.996  13.028  0.00  0.00    +0.000 A 
ATOM     26  C   UNL     1       7.274   4.015  12.211  0.00  0.00    +0.000 A 
ATOM     27  C   UNL     1       6.015   3.491  12.506  0.00  0.00    +0.000 A 
ATOM     28  C   UNL     1       5.417   2.403  11.660  0.00  0.00    +0.000 C 
ATOM     29  C   UNL     1       5.318   3.964  13.632  0.00  0.00    +0.000 A 
ENDBRANCH  22  23
ENDBRANCH  19  22
ENDBRANCH   3  19
TORSDOF 5
ENDMDL
MODEL 5
REMARK VINA RESULT:      -8.5      0.826      1.780
REMARK  Name = 
REMARK  7 active torsions:
REMARK  status: ('A' for Active; 'I' for Inactive)
REMARK    1  A    between atoms: C_1  and  C_2
REMARK    2  A    between atoms: C_5  and  N_6
REMARK    3  A    between atoms: C_7  and  C_9
REMARK    4  A    between atoms: C_11  and  S_12
REMARK    5  A    between atoms: S_12  and  C_15
REMARK    6  A    between atoms: C_15  and  C_16
REMARK    7  A    between atoms: C_20  and  C_21
REMARK                            x       y       z     vdW  Elec       q    Type
REMARK                         _______ _______ _______ _____ _____    ______ ____
ROOT
ATOM      1  C   UNL     1       3.120   4.881  19.883  0.00  0.00    +0.000 A 
ATOM      2  N   UNL     1       3.963   5.368  18.928  0.00  0.00    +0.000 NA
ATOM      3  C   UNL     1       4.964   4.538  18.585  0.00  0.00    +0.000 A 
ATOM      4  N   UNL     1       5.191   3.303  19.078  0.00  0.00    +0.000 NA
ATOM      5  C   UNL     1       4.308   2.880  20.006  0.00  0.00    +0.000 A 
ATOM      6  C   UNL     1       3.236   3.624  20.458  0.00  0.00    +0.000 A 
ATOM      7 CL   UNL     1       2.147   2.914  21.579  0.00  0.00    +0.000 Cl
ENDROOT
BRANCH   1   9
ATOM      8  N   UNL     1       2.404   7.148  20.302  0.00  0.00    +0.000 N 
ATOM      9  C   UNL     1       2.015   5.818  20.252  0.00  0.00    +0.000 C 
ATOM     10  O   UNL     1       0.895   5.374  20.468  0.00  0.00    +0.000 OA
ATOM     11  H   UNL     1       3.360   7.352  20.026  0.00  0.00    +0.000 HD
BRANCH   8  16
ATOM     12  C   UNL     1      -1.017  11.611  21.398  0.00  0.00    +0.000 C 
ATOM     13  C   UNL     1      -0.112  10.448  21.122  0.00  0.00    +0.000 A 
ATOM     14  C   UNL     1       0.355   9.652  22.168  0.00  0.00    +0.000 A 
ATOM     15  C   UNL     1       1.188   8.562  21.912  0.00  0.00    +0.000 A 
ATOM     16  C   UNL     1       1.576   8.248  20.610  0.00  0.00    +0.000 A 
ATOM     17  C   UNL     1       1.130   9.058  19.559  0.00  0.00    +0.000 A 
ATOM     18  C   UNL     1       0.280  10.143  19.814  0.00  0.00    +0.000 A 
ENDBRANCH   8  16
ENDBRANCH   1   9
BRANCH   3  19
ATOM     19  S   UNL     1       5.929   5.037  17.149  0.00  0.00    +0.000 S 
ATOM     20  O   UNL     1       5.878   6.488  17.060  0.00  0.00    +0.000 OA
ATOM     21  O   UNL     1       7.201   4.339  17.256  0.00  0.00    +0.000 OA
BRANCH  19  22
ATOM     22  C   UNL     1       4.982   4.351  15.797  0.00  0.00    +0.000 C 
BRANCH  22  23
ATOM     23  C   UNL     1       5.802   4.249  14.527  0.00  0.00    +0.000 A 
ATOM     24  C   UNL     1       5.363   3.421  13.479  0.00  0.00    +0.000 A 
ATOM     25  C   UNL     1       6.034   3.405  12.254  0.00  0.00    +0.000 A 
ATOM     26  C   UNL     1       7.151   4.215  12.054  0.00  0.00    +0.000 A 
ATOM     27  C   UNL     1       7.611   5.041  13.079  0.00  0.00    +0.000 A 
ATOM     28  C   UNL     1       8.785   5.953  12.864  0.00  0.00    +0.000 C 
ATOM     29  C   UNL     1       6.939   5.047  14.316  0.00  0.00    +0.000 A 
ENDBRANCH  22  23
ENDBRANCH  19  22
ENDBRANCH   3  19
TORSDOF 5
ENDMDL
MODEL 6
REMARK VINA RESULT:      -8.4      1.294      1.726
REMARK  Name = 
REMARK  7 active torsions:
REMARK  status: ('A' for Active; 'I' for Inactive)
REMARK    1  A    between atoms: C_1  and  C_2
REMARK    2  A    between atoms: C_5  and  N_6
REMARK    3  A    between atoms: C_7  and  C_9
REMARK    4  A    between atoms: C_11  and  S_12
REMARK    5  A    between atoms: S_12  and  C_15
REMARK    6  A    between atoms: C_15  and  C_16
REMARK    7  A    between atoms: C_20  and  C_21
REMARK                            x       y       z     vdW  Elec       q    Type
REMARK                         _______ _______ _______ _____ _____    ______ ____
ROOT
ATOM      1  C   UNL     1       2.819   6.357  19.143  0.00  0.00    +0.000 A 
ATOM      2  N   UNL     1       3.862   6.761  18.363  0.00  0.00    +0.000 NA
ATOM      3  C   UNL     1       4.565   5.761  17.803  0.00  0.00    +0.000 A 
ATOM      4  N   UNL     1       4.330   4.439  17.933  0.00  0.00    +0.000 NA
ATOM      5  C   UNL     1       3.272   4.114  18.706  0.00  0.00    +0.000 A 
ATOM      6  C   UNL     1       2.464   5.031  19.347  0.00  0.00    +0.000 A 
ATOM      7 CL   UNL     1       1.101   4.467  20.225  0.00  0.00    +0.000 Cl
ENDROOT
BRANCH   1   9
ATOM      8  N   UNL     1       1.782   8.521  18.878  0.00  0.00    +0.000 N 
ATOM      9  C   UNL     1       2.049   7.482  19.757  0.00  0.00    +0.000 C 
ATOM     10  O   UNL     1       1.716   7.415  20.933  0.00  0.00    +0.000 OA
ATOM     11  H   UNL     1       2.073   8.387  17.914  0.00  0.00    +0.000 HD
BRANCH   8  16
ATOM     12  C   UNL     1      -1.060  13.381  19.943  0.00  0.00    +0.000 C 
ATOM     13  C   UNL     1      -0.315  12.106  19.679  0.00  0.00    +0.000 A 
ATOM     14  C   UNL     1      -0.721  10.914  20.279  0.00  0.00    +0.000 A 
ATOM     15  C   UNL     1      -0.036   9.724  20.026  0.00  0.00    +0.000 A 
ATOM     16  C   UNL     1       1.069   9.701  19.174  0.00  0.00    +0.000 A 
ATOM     17  C   UNL     1       1.494  10.899  18.590  0.00  0.00    +0.000 A 
ATOM     18  C   UNL     1       0.798  12.092  18.831  0.00  0.00    +0.000 A 
ENDBRANCH   8  16
ENDBRANCH   1   9
BRANCH   3  19
ATOM     19  S   UNL     1       5.772   6.260  16.563  0.00  0.00    +0.000 S 
ATOM     20  O   UNL     1       5.046   6.815  15.433  0.00  0.00    +0.000 OA
ATOM     21  O   UNL     1       6.772   7.047  17.269  0.00  0.00    +0.000 OA
BRANCH  19  22
ATOM     22  C   UNL     1       6.482   4.695  16.071  0.00  0.00    +0.000 C 
BRANCH  22  23
ATOM     23  C   UNL     1       6.641   4.594  14.568  0.00  0.00    +0.000 A 
ATOM     24  C   UNL     1       7.635   5.346  13.920  0.00  0.00    +0.000 A 
ATOM     25  C   UNL     1       7.882   5.178  12.555  0.00  0.00    +0.000 A 
ATOM     26  C   UNL     1       7.143   4.255  11.817  0.00  0.00    +0.000 A 
ATOM     27  C   UNL     1       6.146   3.500  12.434  0.00  0.00    +0.000 A 
ATOM     28  C   UNL     1       5.372   2.470  11.662  0.00  0.00    +0.000 C 
ATOM     29  C   UNL     1       5.892   3.680  13.806  0.00  0.00    +0.000 A 
ENDBRANCH  22  23
ENDBRANCH  19  22
ENDBRANCH   3  19
TORSDOF 5
ENDMDL
MODEL 7
REMARK VINA RESULT:      -8.4      1.261      1.838
REMARK  Name = 
REMARK  7 active torsions:
REMARK  status: ('A' for Active; 'I' for Inactive)
REMARK    1  A    between atoms: C_1  and  C_2
REMARK    2  A    between atoms: C_5  and  N_6
REMARK    3  A    between atoms: C_7  and  C_9
REMARK    4  A    between atoms: C_11  and  S_12
REMARK    5  A    between atoms: S_12  and  C_15
REMARK    6  A    between atoms: C_15  and  C_16
REMARK    7  A    between atoms: C_20  and  C_21
REMARK                            x       y       z     vdW  Elec       q    Type
REMARK                         _______ _______ _______ _____ _____    ______ ____
ROOT
ATOM      1  C   UNL     1       3.193   4.799  20.019  0.00  0.00    +0.000 A 
ATOM      2  N   UNL     1       4.334   5.402  19.578  0.00  0.00    +0.000 NA
ATOM      3  C   UNL     1       5.355   4.562  19.332  0.00  0.00    +0.000 A 
ATOM      4  N   UNL     1       5.345   3.220  19.466  0.00  0.00    +0.000 NA
ATOM      5  C   UNL     1       4.178   2.691  19.890  0.00  0.00    +0.000 A 
ATOM      6  C   UNL     1       3.050   3.429  20.187  0.00  0.00    +0.000 A 
ATOM      7 CL   UNL     1       1.611   2.604  20.631  0.00  0.00    +0.000 Cl
ENDROOT
BRANCH   1   9
ATOM      8  N   UNL     1       2.432   7.083  20.189  0.00  0.00    +0.000 N 
ATOM      9  C   UNL     1       2.070   5.748  20.289  0.00  0.00    +0.000 C 
ATOM     10  O   UNL     1       0.961   5.309  20.561  0.00  0.00    +0.000 OA
ATOM     11  H   UNL     1       3.382   7.275  19.887  0.00  0.00    +0.000 HD
BRANCH   8  16
ATOM     12  C   UNL     1      -0.983  11.589  21.120  0.00  0.00    +0.000 C 
ATOM     13  C   UNL     1      -0.098  10.406  20.865  0.00  0.00    +0.000 A 
ATOM     14  C   UNL     1       0.399  10.159  19.585  0.00  0.00    +0.000 A 
ATOM     15  C   UNL     1       1.233   9.064  19.347  0.00  0.00    +0.000 A 
ATOM     16  C   UNL     1       1.582   8.193  20.379  0.00  0.00    +0.000 A 
ATOM     17  C   UNL     1       1.065   8.422  21.659  0.00  0.00    +0.000 A 
ATOM     18  C   UNL     1       0.241   9.530  21.902  0.00  0.00    +0.000 A 
ENDBRANCH   8  16
ENDBRANCH   1   9
BRANCH   3  19
ATOM     19  S   UNL     1       6.776   5.292  18.500  0.00  0.00    +0.000 S 
ATOM     20  O   UNL     1       7.343   6.296  19.385  0.00  0.00    +0.000 OA
ATOM     21  O   UNL     1       7.580   4.176  18.024  0.00  0.00    +0.000 OA
BRANCH  19  22
ATOM     22  C   UNL     1       6.020   6.120  17.109  0.00  0.00    +0.000 C 
BRANCH  22  23
ATOM     23  C   UNL     1       6.157   5.319  15.831  0.00  0.00    +0.000 A 
ATOM     24  C   UNL     1       5.229   4.305  15.540  0.00  0.00    +0.000 A 
ATOM     25  C   UNL     1       5.261   3.638  14.314  0.00  0.00    +0.000 A 
ATOM     26  C   UNL     1       6.218   3.972  13.357  0.00  0.00    +0.000 A 
ATOM     27  C   UNL     1       7.155   4.971  13.622  0.00  0.00    +0.000 A 
ATOM     28  C   UNL     1       8.164   5.374  12.585  0.00  0.00    +0.000 C 
ATOM     29  C   UNL     1       7.126   5.633  14.863  0.00  0.00    +0.000 A 
ENDBRANCH  22  23
ENDBRANCH  19  22
ENDBRANCH   3  19
TORSDOF 5
ENDMDL
MODEL 8
REMARK VINA RESULT:      -8.4      1.448      2.250
REMARK  Name = 
REMARK  7 active torsions:
REMARK  status: ('A' for Active; 'I' for Inactive)
REMARK    1  A    between atoms: C_1  and  C_2
REMARK    2  A    between atoms: C_5  and  N_6
REMARK    3  A    between atoms: C_7  and  C_9
REMARK    4  A    between atoms: C_11  and  S_12
REMARK    5  A    between atoms: S_12  and  C_15
REMARK    6  A    between atoms: C_15  and  C_16
REMARK    7  A    between atoms: C_20  and  C_21
REMARK                            x       y       z     vdW  Elec       q    Type
REMARK                         _______ _______ _______ _____ _____    ______ ____
ROOT
ATOM      1  C   UNL     1       3.447   5.057  19.742  0.00  0.00    +0.000 A 
ATOM      2  N   UNL     1       4.648   5.599  19.391  0.00  0.00    +0.000 NA
ATOM      3  C   UNL     1       5.624   4.703  19.159  0.00  0.00    +0.000 A 
ATOM      4  N   UNL     1       5.518   3.360  19.229  0.00  0.00    +0.000 NA
ATOM      5  C   UNL     1       4.297   2.894  19.565  0.00  0.00    +0.000 A 
ATOM      6  C   UNL     1       3.204   3.694  19.836  0.00  0.00    +0.000 A 
ATOM      7 CL   UNL     1       1.692   2.951  20.164  0.00  0.00    +0.000 Cl
ENDROOT
BRANCH   1   9
ATOM      8  N   UNL     1       2.531   7.240  19.273  0.00  0.00    +0.000 N 
ATOM      9  C   UNL     1       2.376   6.068  19.998  0.00  0.00    +0.000 C 
ATOM     10  O   UNL     1       1.475   5.807  20.784  0.00  0.00    +0.000 OA
ATOM     11  H   UNL     1       3.300   7.267  18.610  0.00  0.00    +0.000 HD
BRANCH   8  16
ATOM     12  C   UNL     1      -1.000  11.752  19.237  0.00  0.00    +0.000 C 
ATOM     13  C   UNL     1      -0.068  10.578  19.257  0.00  0.00    +0.000 A 
ATOM     14  C   UNL     1       0.271   9.966  20.464  0.00  0.00    +0.000 A 
ATOM     15  C   UNL     1       1.130   8.865  20.484  0.00  0.00    +0.000 A 
ATOM     16  C   UNL     1       1.671   8.358  19.303  0.00  0.00    +0.000 A 
ATOM     17  C   UNL     1       1.353   8.984  18.092  0.00  0.00    +0.000 A 
ATOM     18  C   UNL     1       0.478  10.079  18.069  0.00  0.00    +0.000 A 
ENDBRANCH   8  16
ENDBRANCH   1   9
BRANCH   3  19
ATOM     19  S   UNL     1       7.134   5.370  18.439  0.00  0.00    +0.000 S 
ATOM     20  O   UNL     1       7.694   6.325  19.382  0.00  0.00    +0.000 OA
ATOM     21  O   UNL     1       7.908   4.221  17.992  0.00  0.00    +0.000 OA
BRANCH  19  22
ATOM     22  C   UNL     1       6.517   6.264  17.021  0.00  0.00    +0.000 C 
BRANCH  22  23
ATOM     23  C   UNL     1       6.383   5.372  15.804  0.00  0.00    +0.000 A 
ATOM     24  C   UNL     1       5.343   4.429  15.742  0.00  0.00    +0.000 A 
ATOM     25  C   UNL     1       5.125   3.682  14.582  0.00  0.00    +0.000 A 
ATOM     26  C   UNL     1       5.938   3.866  13.465  0.00  0.00    +0.000 A 
ATOM     27  C   UNL     1       6.982   4.791  13.501  0.00  0.00    +0.000 A 
ATOM     28  C   UNL     1       7.839   5.032  12.292  0.00  0.00    +0.000 C 
ATOM     29  C   UNL     1       7.206   5.533  14.676  0.00  0.00    +0.000 A 
ENDBRANCH  22  23
ENDBRANCH  19  22
ENDBRANCH   3  19
TORSDOF 5
ENDMDL
MODEL 9
REMARK VINA RESULT:      -8.2      1.104      1.212
REMARK  Name = 
REMARK  7 active torsions:
REMARK  status: ('A' for Active; 'I' for Inactive)
REMARK    1  A    between atoms: C_1  and  C_2
REMARK    2  A    between atoms: C_5  and  N_6
REMARK    3  A    between atoms: C_7  and  C_9
REMARK    4  A    between atoms: C_11  and  S_12
REMARK    5  A    between atoms: S_12  and  C_15
REMARK    6  A    between atoms: C_15  and  C_16
REMARK    7  A    between atoms: C_20  and  C_21
REMARK                            x       y       z     vdW  Elec       q    Type
REMARK                         _______ _______ _______ _____ _____    ______ ____
ROOT
ATOM      1  C   UNL     1       3.454   5.953  19.118  0.00  0.00    +0.000 A 
ATOM      2  N   UNL     1       4.438   6.195  18.206  0.00  0.00    +0.000 NA
ATOM      3  C   UNL     1       5.387   5.245  18.137  0.00  0.00    +0.000 A 
ATOM      4  N   UNL     1       5.442   4.106  18.858  0.00  0.00    +0.000 NA
ATOM      5  C   UNL     1       4.427   3.925  19.728  0.00  0.00    +0.000 A 
ATOM      6  C   UNL     1       3.388   4.815  19.911  0.00  0.00    +0.000 A 
ATOM      7 CL   UNL     1       2.121   4.403  20.993  0.00  0.00    +0.000 Cl
ENDROOT
BRANCH   1   9
ATOM      8  N   UNL     1       2.229   7.549  20.451  0.00  0.00    +0.000 N 
ATOM      9  C   UNL     1       2.409   7.020  19.182  0.00  0.00    +0.000 C 
ATOM     10  O   UNL     1       1.815   7.344  18.162  0.00  0.00    +0.000 OA
ATOM     11  H   UNL     1       2.855   7.213  21.177  0.00  0.00    +0.000 HD
BRANCH   8  16
ATOM     12  C   UNL     1      -1.434  11.654  22.052  0.00  0.00    +0.000 C 
ATOM     13  C   UNL     1      -0.482  10.579  21.619  0.00  0.00    +0.000 A 
ATOM     14  C   UNL     1       0.219  10.698  20.419  0.00  0.00    +0.000 A 
ATOM     15  C   UNL     1       1.115   9.704  20.020  0.00  0.00    +0.000 A 
ATOM     16  C   UNL     1       1.324   8.571  20.806  0.00  0.00    +0.000 A 
ATOM     17  C   UNL     1       0.604   8.436  21.999  0.00  0.00    +0.000 A 
ATOM     18  C   UNL     1      -0.283   9.441  22.409  0.00  0.00    +0.000 A 
ENDBRANCH   8  16
ENDBRANCH   1   9
BRANCH   3  19
ATOM     19  S   UNL     1       6.545   5.403  16.766  0.00  0.00    +0.000 S 
ATOM     20  O   UNL     1       7.289   6.638  16.951  0.00  0.00    +0.000 OA
ATOM     21  O   UNL     1       7.233   4.124  16.671  0.00  0.00    +0.000 OA
BRANCH  19  22
ATOM     22  C   UNL     1       5.453   5.600  15.366  0.00  0.00    +0.000 C 
BRANCH  22  23
ATOM     23  C   UNL     1       6.047   5.021  14.098  0.00  0.00    +0.000 A 
ATOM     24  C   UNL     1       7.309   5.454  13.659  0.00  0.00    +0.000 A 
ATOM     25  C   UNL     1       7.931   4.849  12.564  0.00  0.00    +0.000 A 
ATOM     26  C   UNL     1       7.305   3.800  11.893  0.00  0.00    +0.000 A 
ATOM     27  C   UNL     1       6.049   3.354  12.304  0.00  0.00    +0.000 A 
ATOM     28  C   UNL     1       5.381   2.196  11.619  0.00  0.00    +0.000 C 
ATOM     29  C   UNL     1       5.421   3.974  13.400  0.00  0.00    +0.000 A 
ENDBRANCH  22  23
ENDBRANCH  19  22
ENDBRANCH   3  19
TORSDOF 5
ENDMDL
