MODEL 1
REMARK VINA RESULT:      -8.0      0.000      0.000
REMARK  Name = 
REMARK  7 active torsions:
REMARK  status: ('A' for Active; 'I' for Inactive)
REMARK    1  A    between atoms: C_2  and  C_12
REMARK    2  A    between atoms: N_3  and  C_4
REMARK    3  A    between atoms: C_15  and  C_16
REMARK    4  A    between atoms: C_16  and  N_17
REMARK    5  A    between atoms: N_17  and  S_18
REMARK    6  A    between atoms: S_18  and  C_21
REMARK    7  A    between atoms: C_21  and  C_22
REMARK                            x       y       z     vdW  Elec       q    Type
REMARK                         _______ _______ _______ _____ _____    ______ ____
ROOT
ATOM      1  C   UNL     1       8.051   8.403  18.042  0.00  0.00    +0.000 A 
ATOM      2  N   UNL     1       7.303   8.318  16.960  0.00  0.00    +0.000 NA
ATOM      3  N   UNL     1       6.894   7.012  16.724  0.00  0.00    +0.000 NA
ATOM      4  C   UNL     1       7.346   6.171  17.636  0.00  0.00    +0.000 A 
ATOM      5  S   UNL     1       8.285   6.918  18.864  0.00  0.00    +0.000 S 
ENDROOT
BRANCH   1   7
ATOM      6  O   UNL     1       9.206   9.677  19.646  0.00  0.00    +0.000 OA
ATOM      7  C   UNL     1       8.666   9.624  18.536  0.00  0.00    +0.000 C 
ATOM      8  N   UNL     1       8.573  10.716  17.683  0.00  0.00    +0.000 N 
ATOM      9  H   UNL     1       7.972  10.613  16.865  0.00  0.00    +0.000 HD
BRANCH   8  10
ATOM     10  C   UNL     1       9.138  11.997  17.904  0.00  0.00    +0.000 A 
ATOM     11  C   UNL     1       8.376  13.115  18.260  0.00  0.00    +0.000 A 
ATOM     12  C   UNL     1       8.980  14.363  18.434  0.00  0.00    +0.000 A 
ATOM     13  C   UNL     1      10.350  14.496  18.256  0.00  0.00    +0.000 A 
ATOM     14  F   UNL     1      10.918  15.700  18.406  0.00  0.00    +0.000 F 
ATOM     15  C   UNL     1      11.135  13.400  17.927  0.00  0.00    +0.000 A 
ATOM     16  C   UNL     1      10.525  12.157  17.767  0.00  0.00    +0.000 A 
ATOM     17  F   UNL     1      11.287  11.102  17.440  0.00  0.00    +0.000 F 
ENDBRANCH   8  10
ENDBRANCH   1   7
BRANCH   4  18
ATOM     18  C   UNL     1       7.026   4.709  17.730  0.00  0.00    +0.000 C 
BRANCH  18  19
ATOM     19  N   UNL     1       5.716   4.476  18.368  0.00  0.00    +0.000 NA
ATOM     20  H   UNL     1       5.443   5.197  19.043  0.00  0.00    +0.000 HD
BRANCH  19  21
ATOM     21  S   UNL     1       4.433   4.230  17.287  0.00  0.00    +0.000 S 
ATOM     22  O   UNL     1       3.462   5.252  17.616  0.00  0.00    +0.000 OA
ATOM     23  O   UNL     1       5.043   4.162  15.976  0.00  0.00    +0.000 OA
BRANCH  21  24
ATOM     24  C   UNL     1       3.818   2.605  17.777  0.00  0.00    +0.000 C 
BRANCH  24  25
ATOM     25  C   UNL     1       2.921   2.747  18.976  0.00  0.00    +0.000 A 
ATOM     26  C   UNL     1       1.543   2.969  18.816  0.00  0.00    +0.000 A 
ATOM     27  C   UNL     1       0.716   3.124  19.930  0.00  0.00    +0.000 A 
ATOM     28  C   UNL     1       1.254   3.049  21.213  0.00  0.00    +0.000 A 
ATOM     29  C   UNL     1       2.615   2.813  21.384  0.00  0.00    +0.000 A 
ATOM     30  C   UNL     1       3.448   2.664  20.272  0.00  0.00    +0.000 A 
ENDBRANCH  24  25
ENDBRANCH  21  24
ENDBRANCH  19  21
ENDBRANCH  18  19
ENDBRANCH   4  18
TORSDOF 7
ENDMDL
MODEL 2
REMARK VINA RESULT:      -7.9      1.685      1.953
REMARK  Name = 
REMARK  7 active torsions:
REMARK  status: ('A' for Active; 'I' for Inactive)
REMARK    1  A    between atoms: C_2  and  C_12
REMARK    2  A    between atoms: N_3  and  C_4
REMARK    3  A    between atoms: C_15  and  C_16
REMARK    4  A    between atoms: C_16  and  N_17
REMARK    5  A    between atoms: N_17  and  S_18
REMARK    6  A    between atoms: S_18  and  C_21
REMARK    7  A    between atoms: C_21  and  C_22
REMARK                            x       y       z     vdW  Elec       q    Type
REMARK                         _______ _______ _______ _____ _____    ______ ____
ROOT
ATOM      1  C   UNL     1       8.043   8.314  17.848  0.00  0.00    +0.000 A 
ATOM      2  N   UNL     1       7.620   7.957  16.651  0.00  0.00    +0.000 NA
ATOM      3  N   UNL     1       7.392   6.589  16.579  0.00  0.00    +0.000 NA
ATOM      4  C   UNL     1       7.649   5.975  17.719  0.00  0.00    +0.000 A 
ATOM      5  S   UNL     1       8.164   7.029  18.973  0.00  0.00    +0.000 S 
ENDROOT
BRANCH   1   7
ATOM      6  O   UNL     1       8.090  10.646  17.548  0.00  0.00    +0.000 OA
ATOM      7  C   UNL     1       8.407   9.669  18.233  0.00  0.00    +0.000 C 
ATOM      8  N   UNL     1       9.153   9.767  19.399  0.00  0.00    +0.000 N 
ATOM      9  H   UNL     1       9.499   8.896  19.802  0.00  0.00    +0.000 HD
BRANCH   8  10
ATOM     10  C   UNL     1       9.582  10.970  20.015  0.00  0.00    +0.000 A 
ATOM     11  C   UNL     1       9.047  11.442  21.218  0.00  0.00    +0.000 A 
ATOM     12  C   UNL     1       9.483  12.653  21.765  0.00  0.00    +0.000 A 
ATOM     13  C   UNL     1      10.458  13.392  21.112  0.00  0.00    +0.000 A 
ATOM     14  F   UNL     1      10.856  14.560  21.632  0.00  0.00    +0.000 F 
ATOM     15  C   UNL     1      11.024  12.936  19.929  0.00  0.00    +0.000 A 
ATOM     16  C   UNL     1      10.591  11.723  19.397  0.00  0.00    +0.000 A 
ATOM     17  F   UNL     1      11.135  11.291  18.249  0.00  0.00    +0.000 F 
ENDBRANCH   8  10
ENDBRANCH   1   7
BRANCH   4  18
ATOM     18  C   UNL     1       7.430   4.521  18.012  0.00  0.00    +0.000 C 
BRANCH  18  19
ATOM     19  N   UNL     1       6.273   3.982  17.273  0.00  0.00    +0.000 NA
ATOM     20  H   UNL     1       6.297   2.967  17.137  0.00  0.00    +0.000 HD
BRANCH  19  21
ATOM     21  S   UNL     1       4.760   4.410  17.909  0.00  0.00    +0.000 S 
ATOM     22  O   UNL     1       5.047   4.991  19.203  0.00  0.00    +0.000 OA
ATOM     23  O   UNL     1       4.107   5.172  16.867  0.00  0.00    +0.000 OA
BRANCH  21  24
ATOM     24  C   UNL     1       3.956   2.806  18.110  0.00  0.00    +0.000 C 
BRANCH  24  25
ATOM     25  C   UNL     1       2.991   2.868  19.263  0.00  0.00    +0.000 A 
ATOM     26  C   UNL     1       3.398   2.506  20.557  0.00  0.00    +0.000 A 
ATOM     27  C   UNL     1       2.494   2.543  21.621  0.00  0.00    +0.000 A 
ATOM     28  C   UNL     1       1.180   2.950  21.405  0.00  0.00    +0.000 A 
ATOM     29  C   UNL     1       0.769   3.326  20.129  0.00  0.00    +0.000 A 
ATOM     30  C   UNL     1       1.668   3.285  19.060  0.00  0.00    +0.000 A 
ENDBRANCH  24  25
ENDBRANCH  21  24
ENDBRANCH  19  21
ENDBRANCH  18  19
ENDBRANCH   4  18
TORSDOF 7
ENDMDL
MODEL 3
REMARK VINA RESULT:      -7.9      1.766      2.056
REMARK  Name = 
REMARK  7 active torsions:
REMARK  status: ('A' for Active; 'I' for Inactive)
REMARK    1  A    between atoms: C_2  and  C_12
REMARK    2  A    between atoms: N_3  and  C_4
REMARK    3  A    between atoms: C_15  and  C_16
REMARK    4  A    between atoms: C_16  and  N_17
REMARK    5  A    between atoms: N_17  and  S_18
REMARK    6  A    between atoms: S_18  and  C_21
REMARK    7  A    between atoms: C_21  and  C_22
REMARK                            x       y       z     vdW  Elec       q    Type
REMARK                         _______ _______ _______ _____ _____    ______ ____
ROOT
ATOM      1  C   UNL     1       7.715   8.291  17.758  0.00  0.00    +0.000 A 
ATOM      2  N   UNL     1       6.884   8.016  16.772  0.00  0.00    +0.000 NA
ATOM      3  N   UNL     1       6.667   6.649  16.656  0.00  0.00    +0.000 NA
ATOM      4  C   UNL     1       7.336   5.954  17.557  0.00  0.00    +0.000 A 
ATOM      5  S   UNL     1       8.264   6.922  18.630  0.00  0.00    +0.000 S 
ENDROOT
BRANCH   1   7
ATOM      6  O   UNL     1       7.831  10.622  17.471  0.00  0.00    +0.000 OA
ATOM      7  C   UNL     1       8.175   9.624  18.112  0.00  0.00    +0.000 C 
ATOM      8  N   UNL     1       9.043   9.678  19.195  0.00  0.00    +0.000 N 
ATOM      9  H   UNL     1       9.391   8.788  19.553  0.00  0.00    +0.000 HD
BRANCH   8  10
ATOM     10  C   UNL     1       9.585  10.854  19.770  0.00  0.00    +0.000 A 
ATOM     11  C   UNL     1       9.223  11.318  21.039  0.00  0.00    +0.000 A 
ATOM     12  C   UNL     1       9.763  12.504  21.546  0.00  0.00    +0.000 A 
ATOM     13  C   UNL     1      10.672  13.227  20.785  0.00  0.00    +0.000 A 
ATOM     14  F   UNL     1      11.170  14.371  21.270  0.00  0.00    +0.000 F 
ATOM     15  C   UNL     1      11.068  12.778  19.533  0.00  0.00    +0.000 A 
ATOM     16  C   UNL     1      10.532  11.589  19.041  0.00  0.00    +0.000 A 
ATOM     17  F   UNL     1      10.911  11.164  17.826  0.00  0.00    +0.000 F 
ENDBRANCH   8  10
ENDBRANCH   1   7
BRANCH   4  18
ATOM     18  C   UNL     1       7.264   4.472  17.767  0.00  0.00    +0.000 C 
BRANCH  18  19
ATOM     19  N   UNL     1       5.978   4.067  18.368  0.00  0.00    +0.000 NA
ATOM     20  H   UNL     1       5.591   4.746  19.030  0.00  0.00    +0.000 HD
BRANCH  19  21
ATOM     21  S   UNL     1       4.772   3.646  17.252  0.00  0.00    +0.000 S 
ATOM     22  O   UNL     1       5.375   3.851  15.952  0.00  0.00    +0.000 OA
ATOM     23  O   UNL     1       4.301   2.343  17.669  0.00  0.00    +0.000 OA
BRANCH  21  24
ATOM     24  C   UNL     1       3.507   4.897  17.558  0.00  0.00    +0.000 C 
BRANCH  24  25
ATOM     25  C   UNL     1       2.635   4.461  18.704  0.00  0.00    +0.000 A 
ATOM     26  C   UNL     1       2.952   4.825  20.023  0.00  0.00    +0.000 A 
ATOM     27  C   UNL     1       2.155   4.400  21.086  0.00  0.00    +0.000 A 
ATOM     28  C   UNL     1       1.029   3.617  20.844  0.00  0.00    +0.000 A 
ATOM     29  C   UNL     1       0.696   3.263  19.539  0.00  0.00    +0.000 A 
ATOM     30  C   UNL     1       1.494   3.681  18.472  0.00  0.00    +0.000 A 
ENDBRANCH  24  25
ENDBRANCH  21  24
ENDBRANCH  19  21
ENDBRANCH  18  19
ENDBRANCH   4  18
TORSDOF 7
ENDMDL
MODEL 4
REMARK VINA RESULT:      -7.8      0.629      1.145
REMARK  Name = 
REMARK  7 active torsions:
REMARK  status: ('A' for Active; 'I' for Inactive)
REMARK    1  A    between atoms: C_2  and  C_12
REMARK    2  A    between atoms: N_3  and  C_4
REMARK    3  A    between atoms: C_15  and  C_16
REMARK    4  A    between atoms: C_16  and  N_17
REMARK    5  A    between atoms: N_17  and  S_18
REMARK    6  A    between atoms: S_18  and  C_21
REMARK    7  A    between atoms: C_21  and  C_22
REMARK                            x       y       z     vdW  Elec       q    Type
REMARK                         _______ _______ _______ _____ _____    ______ ____
ROOT
ATOM      1  C   UNL     1       8.240   8.421  18.115  0.00  0.00    +0.000 A 
ATOM      2  N   UNL     1       7.710   8.196  16.930  0.00  0.00    +0.000 NA
ATOM      3  N   UNL     1       7.381   6.856  16.765  0.00  0.00    +0.000 NA
ATOM      4  C   UNL     1       7.672   6.132  17.829  0.00  0.00    +0.000 A 
ATOM      5  S   UNL     1       8.348   7.039  19.122  0.00  0.00    +0.000 S 
ENDROOT
BRANCH   1   7
ATOM      6  O   UNL     1       9.135   9.874  19.733  0.00  0.00    +0.000 OA
ATOM      7  C   UNL     1       8.725   9.711  18.579  0.00  0.00    +0.000 C 
ATOM      8  N   UNL     1       8.664  10.734  17.642  0.00  0.00    +0.000 N 
ATOM      9  H   UNL     1       8.163  10.537  16.775  0.00  0.00    +0.000 HD
BRANCH   8  10
ATOM     10  C   UNL     1       9.126  12.061  17.826  0.00  0.00    +0.000 A 
ATOM     11  C   UNL     1       8.270  13.136  18.089  0.00  0.00    +0.000 A 
ATOM     12  C   UNL     1       8.776  14.432  18.229  0.00  0.00    +0.000 A 
ATOM     13  C   UNL     1      10.140  14.655  18.111  0.00  0.00    +0.000 A 
ATOM     14  F   UNL     1      10.614  15.902  18.227  0.00  0.00    +0.000 F 
ATOM     15  C   UNL     1      11.016  13.604  17.875  0.00  0.00    +0.000 A 
ATOM     16  C   UNL     1      10.504  12.314  17.747  0.00  0.00    +0.000 A 
ATOM     17  F   UNL     1      11.353  11.303  17.510  0.00  0.00    +0.000 F 
ENDBRANCH   8  10
ENDBRANCH   1   7
BRANCH   4  18
ATOM     18  C   UNL     1       7.372   4.676  18.021  0.00  0.00    +0.000 C 
BRANCH  18  19
ATOM     19  N   UNL     1       6.186   4.256  17.249  0.00  0.00    +0.000 NA
ATOM     20  H   UNL     1       6.163   3.257  17.022  0.00  0.00    +0.000 HD
BRANCH  19  21
ATOM     21  S   UNL     1       4.698   4.690  17.939  0.00  0.00    +0.000 S 
ATOM     22  O   UNL     1       5.018   5.119  19.284  0.00  0.00    +0.000 OA
ATOM     23  O   UNL     1       4.081   5.588  16.987  0.00  0.00    +0.000 OA
BRANCH  21  24
ATOM     24  C   UNL     1       3.815   3.116  17.979  0.00  0.00    +0.000 C 
BRANCH  24  25
ATOM     25  C   UNL     1       2.926   3.069  19.193  0.00  0.00    +0.000 A 
ATOM     26  C   UNL     1       3.418   2.599  20.421  0.00  0.00    +0.000 A 
ATOM     27  C   UNL     1       2.585   2.534  21.540  0.00  0.00    +0.000 A 
ATOM     28  C   UNL     1       1.258   2.946  21.445  0.00  0.00    +0.000 A 
ATOM     29  C   UNL     1       0.764   3.429  20.236  0.00  0.00    +0.000 A 
ATOM     30  C   UNL     1       1.592   3.490  19.113  0.00  0.00    +0.000 A 
ENDBRANCH  24  25
ENDBRANCH  21  24
ENDBRANCH  19  21
ENDBRANCH  18  19
ENDBRANCH   4  18
TORSDOF 7
ENDMDL
MODEL 5
REMARK VINA RESULT:      -7.7      1.259      1.574
REMARK  Name = 
REMARK  7 active torsions:
REMARK  status: ('A' for Active; 'I' for Inactive)
REMARK    1  A    between atoms: C_2  and  C_12
REMARK    2  A    between atoms: N_3  and  C_4
REMARK    3  A    between atoms: C_15  and  C_16
REMARK    4  A    between atoms: C_16  and  N_17
REMARK    5  A    between atoms: N_17  and  S_18
REMARK    6  A    between atoms: S_18  and  C_21
REMARK    7  A    between atoms: C_21  and  C_22
REMARK                            x       y       z     vdW  Elec       q    Type
REMARK                         _______ _______ _______ _____ _____    ______ ____
ROOT
ATOM      1  C   UNL     1       8.127   8.104  18.035  0.00  0.00    +0.000 A 
ATOM      2  N   UNL     1       7.600   8.000  16.832  0.00  0.00    +0.000 NA
ATOM      3  N   UNL     1       7.235   6.690  16.547  0.00  0.00    +0.000 NA
ATOM      4  C   UNL     1       7.497   5.866  17.544  0.00  0.00    +0.000 A 
ATOM      5  S   UNL     1       8.189   6.636  18.915  0.00  0.00    +0.000 S 
ENDROOT
BRANCH   1   7
ATOM      6  O   UNL     1       8.940   9.414  19.811  0.00  0.00    +0.000 OA
ATOM      7  C   UNL     1       8.646   9.333  18.614  0.00  0.00    +0.000 C 
ATOM      8  N   UNL     1       8.753  10.399  17.731  0.00  0.00    +0.000 N 
ATOM      9  H   UNL     1       8.335  10.279  16.808  0.00  0.00    +0.000 HD
BRANCH   8  10
ATOM     10  C   UNL     1       9.280  11.680  18.032  0.00  0.00    +0.000 A 
ATOM     11  C   UNL     1      10.516  11.868  18.658  0.00  0.00    +0.000 A 
ATOM     12  C   UNL     1      10.974  13.153  18.962  0.00  0.00    +0.000 A 
ATOM     13  C   UNL     1      10.197  14.256  18.636  0.00  0.00    +0.000 A 
ATOM     14  F   UNL     1      10.634  15.482  18.948  0.00  0.00    +0.000 F 
ATOM     15  C   UNL     1       8.977  14.101  17.992  0.00  0.00    +0.000 A 
ATOM     16  C   UNL     1       8.534  12.816  17.684  0.00  0.00    +0.000 A 
ATOM     17  F   UNL     1       7.350  12.672  17.069  0.00  0.00    +0.000 F 
ENDBRANCH   8  10
ENDBRANCH   1   7
BRANCH   4  18
ATOM     18  C   UNL     1       7.155   4.408  17.604  0.00  0.00    +0.000 C 
BRANCH  18  19
ATOM     19  N   UNL     1       5.865   4.177  18.282  0.00  0.00    +0.000 NA
ATOM     20  H   UNL     1       5.577   4.934  18.909  0.00  0.00    +0.000 HD
BRANCH  19  21
ATOM     21  S   UNL     1       4.573   3.809  17.246  0.00  0.00    +0.000 S 
ATOM     22  O   UNL     1       5.037   4.168  15.923  0.00  0.00    +0.000 OA
ATOM     23  O   UNL     1       4.196   2.450  17.571  0.00  0.00    +0.000 OA
BRANCH  21  24
ATOM     24  C   UNL     1       3.295   4.961  17.794  0.00  0.00    +0.000 C 
BRANCH  24  25
ATOM     25  C   UNL     1       2.514   4.346  18.923  0.00  0.00    +0.000 A 
ATOM     26  C   UNL     1       1.383   3.555  18.663  0.00  0.00    +0.000 A 
ATOM     27  C   UNL     1       0.646   3.005  19.713  0.00  0.00    +0.000 A 
ATOM     28  C   UNL     1       1.036   3.230  21.031  0.00  0.00    +0.000 A 
ATOM     29  C   UNL     1       2.164   4.000  21.301  0.00  0.00    +0.000 A 
ATOM     30  C   UNL     1       2.901   4.557  20.253  0.00  0.00    +0.000 A 
ENDBRANCH  24  25
ENDBRANCH  21  24
ENDBRANCH  19  21
ENDBRANCH  18  19
ENDBRANCH   4  18
TORSDOF 7
ENDMDL
MODEL 6
REMARK VINA RESULT:      -7.6      7.809     10.616
REMARK  Name = 
REMARK  7 active torsions:
REMARK  status: ('A' for Active; 'I' for Inactive)
REMARK    1  A    between atoms: C_2  and  C_12
REMARK    2  A    between atoms: N_3  and  C_4
REMARK    3  A    between atoms: C_15  and  C_16
REMARK    4  A    between atoms: C_16  and  N_17
REMARK    5  A    between atoms: N_17  and  S_18
REMARK    6  A    between atoms: S_18  and  C_21
REMARK    7  A    between atoms: C_21  and  C_22
REMARK                            x       y       z     vdW  Elec       q    Type
REMARK                         _______ _______ _______ _____ _____    ______ ____
ROOT
ATOM      1  C   UNL     1       1.555   8.432  20.647  0.00  0.00    +0.000 A 
ATOM      2  N   UNL     1       1.589   8.551  21.960  0.00  0.00    +0.000 NA
ATOM      3  N   UNL     1       1.047   9.760  22.376  0.00  0.00    +0.000 NA
ATOM      4  C   UNL     1       0.626  10.497  21.366  0.00  0.00    +0.000 A 
ATOM      5  S   UNL     1       0.839   9.757  19.831  0.00  0.00    +0.000 S 
ENDROOT
BRANCH   1   7
ATOM      6  O   UNL     1       2.531   7.432  18.756  0.00  0.00    +0.000 OA
ATOM      7  C   UNL     1       2.082   7.302  19.899  0.00  0.00    +0.000 C 
ATOM      8  N   UNL     1       2.012   6.080  20.554  0.00  0.00    +0.000 N 
ATOM      9  H   UNL     1       1.480   6.051  21.424  0.00  0.00    +0.000 HD
BRANCH   8  10
ATOM     10  C   UNL     1       2.506   4.844  20.066  0.00  0.00    +0.000 A 
ATOM     11  C   UNL     1       3.846   4.643  19.718  0.00  0.00    +0.000 A 
ATOM     12  C   UNL     1       4.275   3.413  19.210  0.00  0.00    +0.000 A 
ATOM     13  C   UNL     1       3.363   2.379  19.053  0.00  0.00    +0.000 A 
ATOM     14  F   UNL     1       3.778   1.210  18.548  0.00  0.00    +0.000 F 
ATOM     15  C   UNL     1       2.033   2.541  19.413  0.00  0.00    +0.000 A 
ATOM     16  C   UNL     1       1.617   3.767  19.929  0.00  0.00    +0.000 A 
ATOM     17  F   UNL     1       0.328   3.922  20.266  0.00  0.00    +0.000 F 
ENDBRANCH   8  10
ENDBRANCH   1   7
BRANCH   4  18
ATOM     18  C   UNL     1      -0.084  11.814  21.464  0.00  0.00    +0.000 C 
BRANCH  18  19
ATOM     19  N   UNL     1       0.240  12.696  20.327  0.00  0.00    +0.000 NA
ATOM     20  H   UNL     1       0.930  12.307  19.676  0.00  0.00    +0.000 HD
BRANCH  19  21
ATOM     21  S   UNL     1      -1.101  13.236  19.440  0.00  0.00    +0.000 S 
ATOM     22  O   UNL     1      -1.539  14.439  20.114  0.00  0.00    +0.000 OA
ATOM     23  O   UNL     1      -0.665  13.259  18.060  0.00  0.00    +0.000 OA
BRANCH  21  24
ATOM     24  C   UNL     1      -2.296  11.907  19.696  0.00  0.00    +0.000 C 
BRANCH  24  25
ATOM     25  C   UNL     1      -2.722  11.349  18.365  0.00  0.00    +0.000 A 
ATOM     26  C   UNL     1      -1.932  10.395  17.703  0.00  0.00    +0.000 A 
ATOM     27  C   UNL     1      -2.317   9.897  16.457  0.00  0.00    +0.000 A 
ATOM     28  C   UNL     1      -3.498  10.339  15.865  0.00  0.00    +0.000 A 
ATOM     29  C   UNL     1      -4.297  11.273  16.519  0.00  0.00    +0.000 A 
ATOM     30  C   UNL     1      -3.912  11.779  17.763  0.00  0.00    +0.000 A 
ENDBRANCH  24  25
ENDBRANCH  21  24
ENDBRANCH  19  21
ENDBRANCH  18  19
ENDBRANCH   4  18
TORSDOF 7
ENDMDL
MODEL 7
REMARK VINA RESULT:      -7.6      6.879      7.862
REMARK  Name = 
REMARK  7 active torsions:
REMARK  status: ('A' for Active; 'I' for Inactive)
REMARK    1  A    between atoms: C_2  and  C_12
REMARK    2  A    between atoms: N_3  and  C_4
REMARK    3  A    between atoms: C_15  and  C_16
REMARK    4  A    between atoms: C_16  and  N_17
REMARK    5  A    between atoms: N_17  and  S_18
REMARK    6  A    between atoms: S_18  and  C_21
REMARK    7  A    between atoms: C_21  and  C_22
REMARK                            x       y       z     vdW  Elec       q    Type
REMARK                         _______ _______ _______ _____ _____    ______ ____
ROOT
ATOM      1  C   UNL     1       1.098   9.117  19.826  0.00  0.00    +0.000 A 
ATOM      2  N   UNL     1       1.363   8.136  20.665  0.00  0.00    +0.000 NA
ATOM      3  N   UNL     1       2.175   7.171  20.080  0.00  0.00    +0.000 NA
ATOM      4  C   UNL     1       2.489   7.466  18.833  0.00  0.00    +0.000 A 
ATOM      5  S   UNL     1       1.835   8.958  18.287  0.00  0.00    +0.000 S 
ENDROOT
BRANCH   1   7
ATOM      6  O   UNL     1      -0.641  10.624  19.341  0.00  0.00    +0.000 OA
ATOM      7  C   UNL     1       0.245  10.257  20.120  0.00  0.00    +0.000 C 
ATOM      8  N   UNL     1       0.523  10.906  21.315  0.00  0.00    +0.000 N 
ATOM      9  H   UNL     1       1.373  10.627  21.806  0.00  0.00    +0.000 HD
BRANCH   8  10
ATOM     10  C   UNL     1      -0.196  12.002  21.855  0.00  0.00    +0.000 A 
ATOM     11  C   UNL     1       0.055  13.330  21.495  0.00  0.00    +0.000 A 
ATOM     12  C   UNL     1      -0.661  14.377  22.083  0.00  0.00    +0.000 A 
ATOM     13  C   UNL     1      -1.634  14.096  23.032  0.00  0.00    +0.000 A 
ATOM     14  F   UNL     1      -2.303  15.105  23.605  0.00  0.00    +0.000 F 
ATOM     15  C   UNL     1      -1.922  12.787  23.391  0.00  0.00    +0.000 A 
ATOM     16  C   UNL     1      -1.210  11.750  22.791  0.00  0.00    +0.000 A 
ATOM     17  F   UNL     1      -1.486  10.486  23.148  0.00  0.00    +0.000 F 
ENDBRANCH   8  10
ENDBRANCH   1   7
BRANCH   4  18
ATOM     18  C   UNL     1       3.412   6.690  17.943  0.00  0.00    +0.000 C 
BRANCH  18  19
ATOM     19  N   UNL     1       4.102   5.612  18.678  0.00  0.00    +0.000 NA
ATOM     20  H   UNL     1       3.503   5.098  19.332  0.00  0.00    +0.000 HD
BRANCH  19  21
ATOM     21  S   UNL     1       4.922   4.496  17.700  0.00  0.00    +0.000 S 
ATOM     22  O   UNL     1       4.939   5.092  16.381  0.00  0.00    +0.000 OA
ATOM     23  O   UNL     1       6.148   4.193  18.407  0.00  0.00    +0.000 OA
BRANCH  21  24
ATOM     24  C   UNL     1       3.816   3.070  17.726  0.00  0.00    +0.000 C 
BRANCH  24  25
ATOM     25  C   UNL     1       2.966   3.114  18.967  0.00  0.00    +0.000 A 
ATOM     26  C   UNL     1       3.475   2.671  20.198  0.00  0.00    +0.000 A 
ATOM     27  C   UNL     1       2.678   2.691  21.344  0.00  0.00    +0.000 A 
ATOM     28  C   UNL     1       1.370   3.163  21.273  0.00  0.00    +0.000 A 
ATOM     29  C   UNL     1       0.859   3.620  20.061  0.00  0.00    +0.000 A 
ATOM     30  C   UNL     1       1.651   3.596  18.911  0.00  0.00    +0.000 A 
ENDBRANCH  24  25
ENDBRANCH  21  24
ENDBRANCH  19  21
ENDBRANCH  18  19
ENDBRANCH   4  18
TORSDOF 7
ENDMDL
MODEL 8
REMARK VINA RESULT:      -7.6      6.416      7.596
REMARK  Name = 
REMARK  7 active torsions:
REMARK  status: ('A' for Active; 'I' for Inactive)
REMARK    1  A    between atoms: C_2  and  C_12
REMARK    2  A    between atoms: N_3  and  C_4
REMARK    3  A    between atoms: C_15  and  C_16
REMARK    4  A    between atoms: C_16  and  N_17
REMARK    5  A    between atoms: N_17  and  S_18
REMARK    6  A    between atoms: S_18  and  C_21
REMARK    7  A    between atoms: C_21  and  C_22
REMARK                            x       y       z     vdW  Elec       q    Type
REMARK                         _______ _______ _______ _____ _____    ______ ____
ROOT
ATOM      1  C   UNL     1       1.447   8.797  19.532  0.00  0.00    +0.000 A 
ATOM      2  N   UNL     1       1.750   7.742  20.261  0.00  0.00    +0.000 NA
ATOM      3  N   UNL     1       2.638   6.903  19.599  0.00  0.00    +0.000 NA
ATOM      4  C   UNL     1       2.967   7.361  18.406  0.00  0.00    +0.000 A 
ATOM      5  S   UNL     1       2.235   8.864  18.013  0.00  0.00    +0.000 S 
ENDROOT
BRANCH   1   7
ATOM      6  O   UNL     1      -0.343  10.274  19.148  0.00  0.00    +0.000 OA
ATOM      7  C   UNL     1       0.514   9.842  19.925  0.00  0.00    +0.000 C 
ATOM      8  N   UNL     1       0.683  10.325  21.216  0.00  0.00    +0.000 N 
ATOM      9  H   UNL     1       1.517  10.018  21.719  0.00  0.00    +0.000 HD
BRANCH   8  10
ATOM     10  C   UNL     1      -0.127  11.297  21.855  0.00  0.00    +0.000 A 
ATOM     11  C   UNL     1      -1.175  10.965  22.721  0.00  0.00    +0.000 A 
ATOM     12  C   UNL     1      -1.965  11.963  23.298  0.00  0.00    +0.000 A 
ATOM     13  C   UNL     1      -1.707  13.297  23.014  0.00  0.00    +0.000 A 
ATOM     14  F   UNL     1      -2.481  14.246  23.556  0.00  0.00    +0.000 F 
ATOM     15  C   UNL     1      -0.659  13.656  22.178  0.00  0.00    +0.000 A 
ATOM     16  C   UNL     1       0.131  12.655  21.616  0.00  0.00    +0.000 A 
ATOM     17  F   UNL     1       1.137  13.007  20.801  0.00  0.00    +0.000 F 
ENDBRANCH   8  10
ENDBRANCH   1   7
BRANCH   4  18
ATOM     18  C   UNL     1       3.963   6.751  17.466  0.00  0.00    +0.000 C 
BRANCH  18  19
ATOM     19  N   UNL     1       3.678   5.324  17.217  0.00  0.00    +0.000 NA
ATOM     20  H   UNL     1       3.453   5.104  16.242  0.00  0.00    +0.000 HD
BRANCH  19  21
ATOM     21  S   UNL     1       4.880   4.255  17.754  0.00  0.00    +0.000 S 
ATOM     22  O   UNL     1       5.791   4.121  16.637  0.00  0.00    +0.000 OA
ATOM     23  O   UNL     1       5.320   4.780  19.029  0.00  0.00    +0.000 OA
BRANCH  21  24
ATOM     24  C   UNL     1       3.957   2.722  17.993  0.00  0.00    +0.000 C 
BRANCH  24  25
ATOM     25  C   UNL     1       3.026   2.873  19.166  0.00  0.00    +0.000 A 
ATOM     26  C   UNL     1       3.449   2.543  20.463  0.00  0.00    +0.000 A 
ATOM     27  C   UNL     1       2.576   2.662  21.546  0.00  0.00    +0.000 A 
ATOM     28  C   UNL     1       1.277   3.120  21.346  0.00  0.00    +0.000 A 
ATOM     29  C   UNL     1       0.850   3.466  20.066  0.00  0.00    +0.000 A 
ATOM     30  C   UNL     1       1.718   3.342  18.979  0.00  0.00    +0.000 A 
ENDBRANCH  24  25
ENDBRANCH  21  24
ENDBRANCH  19  21
ENDBRANCH  18  19
ENDBRANCH   4  18
TORSDOF 7
ENDMDL
MODEL 9
REMARK VINA RESULT:      -7.6      6.546      7.560
REMARK  Name = 
REMARK  7 active torsions:
REMARK  status: ('A' for Active; 'I' for Inactive)
REMARK    1  A    between atoms: C_2  and  C_12
REMARK    2  A    between atoms: N_3  and  C_4
REMARK    3  A    between atoms: C_15  and  C_16
REMARK    4  A    between atoms: C_16  and  N_17
REMARK    5  A    between atoms: N_17  and  S_18
REMARK    6  A    between atoms: S_18  and  C_21
REMARK    7  A    between atoms: C_21  and  C_22
REMARK                            x       y       z     vdW  Elec       q    Type
REMARK                         _______ _______ _______ _____ _____    ______ ____
ROOT
ATOM      1  C   UNL     1       1.424   9.166  18.689  0.00  0.00    +0.000 A 
ATOM      2  N   UNL     1       2.028   9.508  17.568  0.00  0.00    +0.000 NA
ATOM      3  N   UNL     1       2.941   8.541  17.166  0.00  0.00    +0.000 NA
ATOM      4  C   UNL     1       2.983   7.513  17.993  0.00  0.00    +0.000 A 
ATOM      5  S   UNL     1       1.892   7.641  19.314  0.00  0.00    +0.000 S 
ENDROOT
BRANCH   1   7
ATOM      6  O   UNL     1      -0.729  10.055  19.013  0.00  0.00    +0.000 OA
ATOM      7  C   UNL     1       0.445   9.981  19.390  0.00  0.00    +0.000 C 
ATOM      8  N   UNL     1       0.938  10.681  20.483  0.00  0.00    +0.000 N 
ATOM      9  H   UNL     1       1.950  10.680  20.614  0.00  0.00    +0.000 HD
BRANCH   8  10
ATOM     10  C   UNL     1       0.181  11.496  21.361  0.00  0.00    +0.000 A 
ATOM     11  C   UNL     1       0.245  12.893  21.350  0.00  0.00    +0.000 A 
ATOM     12  C   UNL     1      -0.499  13.648  22.261  0.00  0.00    +0.000 A 
ATOM     13  C   UNL     1      -1.313  13.007  23.185  0.00  0.00    +0.000 A 
ATOM     14  F   UNL     1      -2.008  13.737  24.067  0.00  0.00    +0.000 F 
ATOM     15  C   UNL     1      -1.415  11.623  23.203  0.00  0.00    +0.000 A 
ATOM     16  C   UNL     1      -0.678  10.879  22.283  0.00  0.00    +0.000 A 
ATOM     17  F   UNL     1      -0.773   9.541  22.311  0.00  0.00    +0.000 F 
ENDBRANCH   8  10
ENDBRANCH   1   7
BRANCH   4  18
ATOM     18  C   UNL     1       3.790   6.263  17.815  0.00  0.00    +0.000 C 
BRANCH  18  19
ATOM     19  N   UNL     1       4.218   5.699  19.110  0.00  0.00    +0.000 NA
ATOM     20  H   UNL     1       3.459   5.283  19.658  0.00  0.00    +0.000 HD
BRANCH  19  21
ATOM     21  S   UNL     1       5.494   4.585  19.014  0.00  0.00    +0.000 S 
ATOM     22  O   UNL     1       5.638   4.299  17.602  0.00  0.00    +0.000 OA
ATOM     23  O   UNL     1       6.573   5.171  19.780  0.00  0.00    +0.000 OA
BRANCH  21  24
ATOM     24  C   UNL     1       4.821   3.149  19.877  0.00  0.00    +0.000 C 
BRANCH  24  25
ATOM     25  C   UNL     1       3.322   3.139  19.744  0.00  0.00    +0.000 A 
ATOM     26  C   UNL     1       2.711   2.665  18.572  0.00  0.00    +0.000 A 
ATOM     27  C   UNL     1       1.321   2.678  18.442  0.00  0.00    +0.000 A 
ATOM     28  C   UNL     1       0.529   3.155  19.484  0.00  0.00    +0.000 A 
ATOM     29  C   UNL     1       1.123   3.613  20.657  0.00  0.00    +0.000 A 
ATOM     30  C   UNL     1       2.514   3.607  20.788  0.00  0.00    +0.000 A 
ENDBRANCH  24  25
ENDBRANCH  21  24
ENDBRANCH  19  21
ENDBRANCH  18  19
ENDBRANCH   4  18
TORSDOF 7
ENDMDL
