MODEL 1
REMARK VINA RESULT:      -7.8      0.000      0.000
REMARK  Name = 
REMARK  6 active torsions:
REMARK  status: ('A' for Active; 'I' for Inactive)
REMARK    1  A    between atoms: C_1  and  C_2
REMARK    2  A    between atoms: C_2  and  C_3
REMARK    3  A    between atoms: C_3  and  C_4
REMARK    4  A    between atoms: C_4  and  N_5
REMARK    5  A    between atoms: N_5  and  C_6
REMARK    6  A    between atoms: C_8  and  C_9
REMARK                            x       y       z     vdW  Elec       q    Type
REMARK                         _______ _______ _______ _____ _____    ______ ____
ROOT
ATOM      1  C   UNL     1       3.108   4.465  17.388  0.00  0.00    +0.000 A 
ATOM      2  N   UNL     1       2.443   5.454  18.017  0.00  0.00    +0.000 NA
ATOM      3  C   UNL     1       3.054   6.647  18.124  0.00  0.00    +0.000 A 
ATOM      4  N   UNL     1       4.286   6.916  17.654  0.00  0.00    +0.000 NA
ATOM      5  C   UNL     1       4.938   5.935  17.033  0.00  0.00    +0.000 A 
ATOM      6  C   UNL     1       6.187   6.220  16.495  0.00  0.00    +0.000 A 
ATOM      7  C   UNL     1       6.926   5.269  15.793  0.00  0.00    +0.000 A 
ATOM      8  C   UNL     1       6.418   3.990  15.632  0.00  0.00    +0.000 A 
ATOM      9  C   UNL     1       5.175   3.676  16.176  0.00  0.00    +0.000 A 
ATOM     10  C   UNL     1       4.408   4.653  16.871  0.00  0.00    +0.000 A 
ENDROOT
BRANCH   3  11
ATOM     11  C   UNL     1       2.289   7.782  18.685  0.00  0.00    +0.000 A 
ATOM     12  C   UNL     1       1.891   7.811  20.035  0.00  0.00    +0.000 A 
ATOM     13  C   UNL     1       1.066   8.826  20.534  0.00  0.00    +0.000 A 
ATOM     14  C   UNL     1       0.633   9.850  19.695  0.00  0.00    +0.000 A 
ATOM     15  C   UNL     1       1.050   9.877  18.368  0.00  0.00    +0.000 A 
ATOM     16  C   UNL     1       1.871   8.859  17.875  0.00  0.00    +0.000 A 
ENDBRANCH   3  11
BRANCH   1  17
ATOM     17  N   UNL     1       2.501   3.190  17.297  0.00  0.00    +0.000 N 
ATOM     18  H   UNL     1       1.532   3.299  17.023  0.00  0.00    +0.000 HD
BRANCH  17  19
ATOM     19  C   UNL     1       2.567   2.405  18.531  0.00  0.00    +0.000 C 
BRANCH  19  20
ATOM     20  C   UNL     1       1.157   2.320  19.128  0.00  0.00    +0.000 C 
BRANCH  20  22
ATOM     21  C   UNL     1       1.553   2.669  21.591  0.00  0.00    +0.000 C 
ATOM     22  C   UNL     1       0.991   3.270  20.313  0.00  0.00    +0.000 C 
ENDBRANCH  20  22
ENDBRANCH  19  20
ENDBRANCH  17  19
ENDBRANCH   1  17
TORSDOF 5
ENDMDL
MODEL 2
REMARK VINA RESULT:      -7.8      1.125      1.667
REMARK  Name = 
REMARK  6 active torsions:
REMARK  status: ('A' for Active; 'I' for Inactive)
REMARK    1  A    between atoms: C_1  and  C_2
REMARK    2  A    between atoms: C_2  and  C_3
REMARK    3  A    between atoms: C_3  and  C_4
REMARK    4  A    between atoms: C_4  and  N_5
REMARK    5  A    between atoms: N_5  and  C_6
REMARK    6  A    between atoms: C_8  and  C_9
REMARK                            x       y       z     vdW  Elec       q    Type
REMARK                         _______ _______ _______ _____ _____    ______ ____
ROOT
ATOM      1  C   UNL     1       4.543   4.339  18.409  0.00  0.00    +0.000 A 
ATOM      2  N   UNL     1       3.756   5.273  18.977  0.00  0.00    +0.000 NA
ATOM      3  C   UNL     1       3.535   6.406  18.288  0.00  0.00    +0.000 A 
ATOM      4  N   UNL     1       4.052   6.672  17.075  0.00  0.00    +0.000 NA
ATOM      5  C   UNL     1       4.829   5.746  16.518  0.00  0.00    +0.000 A 
ATOM      6  C   UNL     1       5.321   5.988  15.241  0.00  0.00    +0.000 A 
ATOM      7  C   UNL     1       6.109   5.059  14.563  0.00  0.00    +0.000 A 
ATOM      8  C   UNL     1       6.431   3.858  15.173  0.00  0.00    +0.000 A 
ATOM      9  C   UNL     1       5.961   3.598  16.459  0.00  0.00    +0.000 A 
ATOM     10  C   UNL     1       5.137   4.535  17.144  0.00  0.00    +0.000 A 
ENDROOT
BRANCH   3  11
ATOM     11  C   UNL     1       2.565   7.382  18.831  0.00  0.00    +0.000 A 
ATOM     12  C   UNL     1       2.114   8.479  18.072  0.00  0.00    +0.000 A 
ATOM     13  C   UNL     1       1.290   9.465  18.627  0.00  0.00    +0.000 A 
ATOM     14  C   UNL     1       0.882   9.368  19.955  0.00  0.00    +0.000 A 
ATOM     15  C   UNL     1       1.270   8.271  20.717  0.00  0.00    +0.000 A 
ATOM     16  C   UNL     1       2.094   7.291  20.158  0.00  0.00    +0.000 A 
ENDBRANCH   3  11
BRANCH   1  17
ATOM     17  N   UNL     1       4.822   3.155  19.132  0.00  0.00    +0.000 N 
ATOM     18  H   UNL     1       5.280   2.490  18.522  0.00  0.00    +0.000 HD
BRANCH  17  19
ATOM     19  C   UNL     1       3.643   2.526  19.731  0.00  0.00    +0.000 C 
BRANCH  19  20
ATOM     20  C   UNL     1       2.769   1.963  18.605  0.00  0.00    +0.000 C 
BRANCH  20  22
ATOM     21  C   UNL     1       1.081   3.125  20.068  0.00  0.00    +0.000 C 
ATOM     22  C   UNL     1       1.312   2.395  18.755  0.00  0.00    +0.000 C 
ENDBRANCH  20  22
ENDBRANCH  19  20
ENDBRANCH  17  19
ENDBRANCH   1  17
TORSDOF 5
ENDMDL
MODEL 3
REMARK VINA RESULT:      -7.7      0.449      1.147
REMARK  Name = 
REMARK  6 active torsions:
REMARK  status: ('A' for Active; 'I' for Inactive)
REMARK    1  A    between atoms: C_1  and  C_2
REMARK    2  A    between atoms: C_2  and  C_3
REMARK    3  A    between atoms: C_3  and  C_4
REMARK    4  A    between atoms: C_4  and  N_5
REMARK    5  A    between atoms: N_5  and  C_6
REMARK    6  A    between atoms: C_8  and  C_9
REMARK                            x       y       z     vdW  Elec       q    Type
REMARK                         _______ _______ _______ _____ _____    ______ ____
ROOT
ATOM      1  C   UNL     1       3.169   4.364  17.589  0.00  0.00    +0.000 A 
ATOM      2  N   UNL     1       2.478   5.341  18.208  0.00  0.00    +0.000 NA
ATOM      3  C   UNL     1       2.998   6.581  18.189  0.00  0.00    +0.000 A 
ATOM      4  N   UNL     1       4.163   6.909  17.602  0.00  0.00    +0.000 NA
ATOM      5  C   UNL     1       4.841   5.940  16.991  0.00  0.00    +0.000 A 
ATOM      6  C   UNL     1       6.016   6.280  16.332  0.00  0.00    +0.000 A 
ATOM      7  C   UNL     1       6.772   5.341  15.632  0.00  0.00    +0.000 A 
ATOM      8  C   UNL     1       6.358   4.020  15.594  0.00  0.00    +0.000 A 
ATOM      9  C   UNL     1       5.191   3.651  16.258  0.00  0.00    +0.000 A 
ATOM     10  C   UNL     1       4.405   4.613  16.954  0.00  0.00    +0.000 A 
ENDROOT
BRANCH   3  11
ATOM     11  C   UNL     1       2.191   7.691  18.741  0.00  0.00    +0.000 A 
ATOM     12  C   UNL     1       1.816   8.797  17.954  0.00  0.00    +0.000 A 
ATOM     13  C   UNL     1       1.155   9.900  18.508  0.00  0.00    +0.000 A 
ATOM     14  C   UNL     1       0.837   9.915  19.863  0.00  0.00    +0.000 A 
ATOM     15  C   UNL     1       1.149   8.817  20.657  0.00  0.00    +0.000 A 
ATOM     16  C   UNL     1       1.811   7.720  20.100  0.00  0.00    +0.000 A 
ENDBRANCH   3  11
BRANCH   1  17
ATOM     17  N   UNL     1       2.661   3.044  17.629  0.00  0.00    +0.000 N 
ATOM     18  H   UNL     1       2.602   2.680  16.686  0.00  0.00    +0.000 HD
BRANCH  17  19
ATOM     19  C   UNL     1       1.354   2.923  18.276  0.00  0.00    +0.000 C 
BRANCH  19  20
ATOM     20  C   UNL     1       1.550   2.267  19.647  0.00  0.00    +0.000 C 
BRANCH  20  22
ATOM     21  C   UNL     1       2.243   3.653  21.632  0.00  0.00    +0.000 C 
ATOM     22  C   UNL     1       1.078   3.177  20.779  0.00  0.00    +0.000 C 
ENDBRANCH  20  22
ENDBRANCH  19  20
ENDBRANCH  17  19
ENDBRANCH   1  17
TORSDOF 5
ENDMDL
MODEL 4
REMARK VINA RESULT:      -7.7      1.071      5.372
REMARK  Name = 
REMARK  6 active torsions:
REMARK  status: ('A' for Active; 'I' for Inactive)
REMARK    1  A    between atoms: C_1  and  C_2
REMARK    2  A    between atoms: C_2  and  C_3
REMARK    3  A    between atoms: C_3  and  C_4
REMARK    4  A    between atoms: C_4  and  N_5
REMARK    5  A    between atoms: N_5  and  C_6
REMARK    6  A    between atoms: C_8  and  C_9
REMARK                            x       y       z     vdW  Elec       q    Type
REMARK                         _______ _______ _______ _____ _____    ______ ____
ROOT
ATOM      1  C   UNL     1       2.669   6.179  19.817  0.00  0.00    +0.000 A 
ATOM      2  N   UNL     1       3.513   5.565  18.967  0.00  0.00    +0.000 NA
ATOM      3  C   UNL     1       3.829   6.206  17.828  0.00  0.00    +0.000 A 
ATOM      4  N   UNL     1       3.352   7.414  17.478  0.00  0.00    +0.000 NA
ATOM      5  C   UNL     1       2.518   8.017  18.322  0.00  0.00    +0.000 A 
ATOM      6  C   UNL     1       2.065   9.290  17.996  0.00  0.00    +0.000 A 
ATOM      7  C   UNL     1       1.222  10.015  18.836  0.00  0.00    +0.000 A 
ATOM      8  C   UNL     1       0.802   9.456  20.033  0.00  0.00    +0.000 A 
ATOM      9  C   UNL     1       1.230   8.176  20.376  0.00  0.00    +0.000 A 
ATOM     10  C   UNL     1       2.111   7.444  19.529  0.00  0.00    +0.000 A 
ENDROOT
BRANCH   3  11
ATOM     11  C   UNL     1       4.860   5.613  16.948  0.00  0.00    +0.000 A 
ATOM     12  C   UNL     1       4.690   4.345  16.359  0.00  0.00    +0.000 A 
ATOM     13  C   UNL     1       5.715   3.735  15.626  0.00  0.00    +0.000 A 
ATOM     14  C   UNL     1       6.932   4.389  15.448  0.00  0.00    +0.000 A 
ATOM     15  C   UNL     1       7.113   5.664  15.976  0.00  0.00    +0.000 A 
ATOM     16  C   UNL     1       6.087   6.266  16.710  0.00  0.00    +0.000 A 
ENDBRANCH   3  11
BRANCH   1  17
ATOM     17  N   UNL     1       2.292   5.507  21.004  0.00  0.00    +0.000 N 
ATOM     18  H   UNL     1       2.833   5.868  21.780  0.00  0.00    +0.000 HD
BRANCH  17  19
ATOM     19  C   UNL     1       2.446   4.052  20.945  0.00  0.00    +0.000 C 
BRANCH  19  20
ATOM     20  C   UNL     1       1.065   3.426  20.723  0.00  0.00    +0.000 C 
BRANCH  20  22
ATOM     21  C   UNL     1       2.205   2.197  18.844  0.00  0.00    +0.000 C 
ATOM     22  C   UNL     1       0.922   2.866  19.309  0.00  0.00    +0.000 C 
ENDBRANCH  20  22
ENDBRANCH  19  20
ENDBRANCH  17  19
ENDBRANCH   1  17
TORSDOF 5
ENDMDL
MODEL 5
REMARK VINA RESULT:      -7.7      1.060      1.209
REMARK  Name = 
REMARK  6 active torsions:
REMARK  status: ('A' for Active; 'I' for Inactive)
REMARK    1  A    between atoms: C_1  and  C_2
REMARK    2  A    between atoms: C_2  and  C_3
REMARK    3  A    between atoms: C_3  and  C_4
REMARK    4  A    between atoms: C_4  and  N_5
REMARK    5  A    between atoms: N_5  and  C_6
REMARK    6  A    between atoms: C_8  and  C_9
REMARK                            x       y       z     vdW  Elec       q    Type
REMARK                         _______ _______ _______ _____ _____    ______ ____
ROOT
ATOM      1  C   UNL     1       4.246   4.522  18.442  0.00  0.00    +0.000 A 
ATOM      2  N   UNL     1       3.512   5.526  18.958  0.00  0.00    +0.000 NA
ATOM      3  C   UNL     1       3.427   6.667  18.250  0.00  0.00    +0.000 A 
ATOM      4  N   UNL     1       4.033   6.874  17.067  0.00  0.00    +0.000 NA
ATOM      5  C   UNL     1       4.757   5.878  16.561  0.00  0.00    +0.000 A 
ATOM      6  C   UNL     1       5.339   6.062  15.312  0.00  0.00    +0.000 A 
ATOM      7  C   UNL     1       6.080   5.062  14.685  0.00  0.00    +0.000 A 
ATOM      8  C   UNL     1       6.263   3.845  15.320  0.00  0.00    +0.000 A 
ATOM      9  C   UNL     1       5.702   3.640  16.579  0.00  0.00    +0.000 A 
ATOM     10  C   UNL     1       4.925   4.652  17.210  0.00  0.00    +0.000 A 
ENDROOT
BRANCH   3  11
ATOM     11  C   UNL     1       2.516   7.728  18.731  0.00  0.00    +0.000 A 
ATOM     12  C   UNL     1       2.012   7.731  20.046  0.00  0.00    +0.000 A 
ATOM     13  C   UNL     1       1.058   8.667  20.462  0.00  0.00    +0.000 A 
ATOM     14  C   UNL     1       0.598   9.637  19.575  0.00  0.00    +0.000 A 
ATOM     15  C   UNL     1       1.113   9.691  18.284  0.00  0.00    +0.000 A 
ATOM     16  C   UNL     1       2.064   8.752  17.873  0.00  0.00    +0.000 A 
ENDBRANCH   3  11
BRANCH   1  17
ATOM     17  N   UNL     1       4.381   3.326  19.187  0.00  0.00    +0.000 N 
ATOM     18  H   UNL     1       4.991   2.690  18.690  0.00  0.00    +0.000 HD
BRANCH  17  19
ATOM     19  C   UNL     1       3.113   2.653  19.475  0.00  0.00    +0.000 C 
BRANCH  19  20
ATOM     20  C   UNL     1       2.897   2.655  20.992  0.00  0.00    +0.000 C 
BRANCH  20  22
ATOM     21  C   UNL     1       0.821   3.904  20.303  0.00  0.00    +0.000 C 
ATOM     22  C   UNL     1       1.455   3.005  21.354  0.00  0.00    +0.000 C 
ENDBRANCH  20  22
ENDBRANCH  19  20
ENDBRANCH  17  19
ENDBRANCH   1  17
TORSDOF 5
ENDMDL
MODEL 6
REMARK VINA RESULT:      -7.6      3.048      6.876
REMARK  Name = 
REMARK  6 active torsions:
REMARK  status: ('A' for Active; 'I' for Inactive)
REMARK    1  A    between atoms: C_1  and  C_2
REMARK    2  A    between atoms: C_2  and  C_3
REMARK    3  A    between atoms: C_3  and  C_4
REMARK    4  A    between atoms: C_4  and  N_5
REMARK    5  A    between atoms: N_5  and  C_6
REMARK    6  A    between atoms: C_8  and  C_9
REMARK                            x       y       z     vdW  Elec       q    Type
REMARK                         _______ _______ _______ _____ _____    ______ ____
ROOT
ATOM      1  C   UNL     1       5.630   4.822  18.199  0.00  0.00    +0.000 A 
ATOM      2  N   UNL     1       6.167   4.704  16.970  0.00  0.00    +0.000 NA
ATOM      3  C   UNL     1       5.365   4.287  15.975  0.00  0.00    +0.000 A 
ATOM      4  N   UNL     1       4.066   3.973  16.126  0.00  0.00    +0.000 NA
ATOM      5  C   UNL     1       3.539   4.092  17.343  0.00  0.00    +0.000 A 
ATOM      6  C   UNL     1       2.184   3.824  17.498  0.00  0.00    +0.000 A 
ATOM      7  C   UNL     1       1.538   3.960  18.725  0.00  0.00    +0.000 A 
ATOM      8  C   UNL     1       2.258   4.361  19.838  0.00  0.00    +0.000 A 
ATOM      9  C   UNL     1       3.621   4.621  19.712  0.00  0.00    +0.000 A 
ATOM     10  C   UNL     1       4.278   4.505  18.455  0.00  0.00    +0.000 A 
ENDROOT
BRANCH   3  11
ATOM     11  C   UNL     1       5.898   4.284  14.595  0.00  0.00    +0.000 A 
ATOM     12  C   UNL     1       5.325   3.492  13.582  0.00  0.00    +0.000 A 
ATOM     13  C   UNL     1       5.903   3.399  12.310  0.00  0.00    +0.000 A 
ATOM     14  C   UNL     1       7.061   4.114  12.015  0.00  0.00    +0.000 A 
ATOM     15  C   UNL     1       7.623   4.944  12.979  0.00  0.00    +0.000 A 
ATOM     16  C   UNL     1       7.044   5.030  14.248  0.00  0.00    +0.000 A 
ENDBRANCH   3  11
BRANCH   1  17
ATOM     17  N   UNL     1       6.465   5.222  19.270  0.00  0.00    +0.000 N 
ATOM     18  H   UNL     1       6.101   6.074  19.677  0.00  0.00    +0.000 HD
BRANCH  17  19
ATOM     19  C   UNL     1       7.865   5.425  18.895  0.00  0.00    +0.000 C 
BRANCH  19  20
ATOM     20  C   UNL     1       8.186   6.920  19.009  0.00  0.00    +0.000 C 
BRANCH  20  22
ATOM     21  C   UNL     1       8.095   9.160  17.864  0.00  0.00    +0.000 C 
ATOM     22  C   UNL     1       7.851   7.667  17.720  0.00  0.00    +0.000 C 
ENDBRANCH  20  22
ENDBRANCH  19  20
ENDBRANCH  17  19
ENDBRANCH   1  17
TORSDOF 5
ENDMDL
MODEL 7
REMARK VINA RESULT:      -7.6      1.808      4.442
REMARK  Name = 
REMARK  6 active torsions:
REMARK  status: ('A' for Active; 'I' for Inactive)
REMARK    1  A    between atoms: C_1  and  C_2
REMARK    2  A    between atoms: C_2  and  C_3
REMARK    3  A    between atoms: C_3  and  C_4
REMARK    4  A    between atoms: C_4  and  N_5
REMARK    5  A    between atoms: N_5  and  C_6
REMARK    6  A    between atoms: C_8  and  C_9
REMARK                            x       y       z     vdW  Elec       q    Type
REMARK                         _______ _______ _______ _____ _____    ______ ____
ROOT
ATOM      1  C   UNL     1       4.707   4.996  19.082  0.00  0.00    +0.000 A 
ATOM      2  N   UNL     1       4.205   6.245  19.076  0.00  0.00    +0.000 NA
ATOM      3  C   UNL     1       2.900   6.393  18.786  0.00  0.00    +0.000 A 
ATOM      4  N   UNL     1       2.066   5.378  18.494  0.00  0.00    +0.000 NA
ATOM      5  C   UNL     1       2.568   4.145  18.502  0.00  0.00    +0.000 A 
ATOM      6  C   UNL     1       1.701   3.086  18.257  0.00  0.00    +0.000 A 
ATOM      7  C   UNL     1       2.127   1.759  18.285  0.00  0.00    +0.000 A 
ATOM      8  C   UNL     1       3.456   1.471  18.549  0.00  0.00    +0.000 A 
ATOM      9  C   UNL     1       4.347   2.516  18.783  0.00  0.00    +0.000 A 
ATOM     10  C   UNL     1       3.909   3.871  18.779  0.00  0.00    +0.000 A 
ENDROOT
BRANCH   3  11
ATOM     11  C   UNL     1       2.299   7.739  18.910  0.00  0.00    +0.000 A 
ATOM     12  C   UNL     1       1.635   8.148  20.082  0.00  0.00    +0.000 A 
ATOM     13  C   UNL     1       0.965   9.375  20.153  0.00  0.00    +0.000 A 
ATOM     14  C   UNL     1       0.958  10.233  19.056  0.00  0.00    +0.000 A 
ATOM     15  C   UNL     1       1.646   9.879  17.900  0.00  0.00    +0.000 A 
ATOM     16  C   UNL     1       2.311   8.651  17.834  0.00  0.00    +0.000 A 
ENDBRANCH   3  11
BRANCH   1  17
ATOM     17  N   UNL     1       6.086   4.819  19.347  0.00  0.00    +0.000 N 
ATOM     18  H   UNL     1       6.350   5.389  20.141  0.00  0.00    +0.000 HD
BRANCH  17  19
ATOM     19  C   UNL     1       6.959   5.134  18.215  0.00  0.00    +0.000 C 
BRANCH  19  20
ATOM     20  C   UNL     1       7.769   6.389  18.562  0.00  0.00    +0.000 C 
BRANCH  20  22
ATOM     21  C   UNL     1       8.165   8.808  17.983  0.00  0.00    +0.000 C 
ATOM     22  C   UNL     1       7.587   7.483  17.512  0.00  0.00    +0.000 C 
ENDBRANCH  20  22
ENDBRANCH  19  20
ENDBRANCH  17  19
ENDBRANCH   1  17
TORSDOF 5
ENDMDL
MODEL 8
REMARK VINA RESULT:      -7.6      1.125      5.416
REMARK  Name = 
REMARK  6 active torsions:
REMARK  status: ('A' for Active; 'I' for Inactive)
REMARK    1  A    between atoms: C_1  and  C_2
REMARK    2  A    between atoms: C_2  and  C_3
REMARK    3  A    between atoms: C_3  and  C_4
REMARK    4  A    between atoms: C_4  and  N_5
REMARK    5  A    between atoms: N_5  and  C_6
REMARK    6  A    between atoms: C_8  and  C_9
REMARK                            x       y       z     vdW  Elec       q    Type
REMARK                         _______ _______ _______ _____ _____    ______ ____
ROOT
ATOM      1  C   UNL     1       2.571   6.178  19.822  0.00  0.00    +0.000 A 
ATOM      2  N   UNL     1       3.343   5.516  18.937  0.00  0.00    +0.000 NA
ATOM      3  C   UNL     1       3.637   6.135  17.780  0.00  0.00    +0.000 A 
ATOM      4  N   UNL     1       3.206   7.364  17.444  0.00  0.00    +0.000 NA
ATOM      5  C   UNL     1       2.444   8.014  18.322  0.00  0.00    +0.000 A 
ATOM      6  C   UNL     1       2.042   9.306  18.007  0.00  0.00    +0.000 A 
ATOM      7  C   UNL     1       1.278  10.077  18.881  0.00  0.00    +0.000 A 
ATOM      8  C   UNL     1       0.887   9.548  20.100  0.00  0.00    +0.000 A 
ATOM      9  C   UNL     1       1.265   8.248  20.432  0.00  0.00    +0.000 A 
ATOM     10  C   UNL     1       2.066   7.468  19.551  0.00  0.00    +0.000 A 
ENDROOT
BRANCH   3  11
ATOM     11  C   UNL     1       4.593   5.485  16.858  0.00  0.00    +0.000 A 
ATOM     12  C   UNL     1       5.330   6.225  15.914  0.00  0.00    +0.000 A 
ATOM     13  C   UNL     1       6.144   5.596  14.964  0.00  0.00    +0.000 A 
ATOM     14  C   UNL     1       6.253   4.207  14.947  0.00  0.00    +0.000 A 
ATOM     15  C   UNL     1       5.576   3.451  15.898  0.00  0.00    +0.000 A 
ATOM     16  C   UNL     1       4.764   4.084  16.843  0.00  0.00    +0.000 A 
ENDBRANCH   3  11
BRANCH   1  17
ATOM     17  N   UNL     1       2.217   5.532  21.030  0.00  0.00    +0.000 N 
ATOM     18  H   UNL     1       2.586   6.059  21.812  0.00  0.00    +0.000 HD
BRANCH  17  19
ATOM     19  C   UNL     1       2.675   4.144  21.125  0.00  0.00    +0.000 C 
BRANCH  19  20
ATOM     20  C   UNL     1       1.446   3.236  21.249  0.00  0.00    +0.000 C 
BRANCH  20  22
ATOM     21  C   UNL     1       1.386   2.380  18.882  0.00  0.00    +0.000 C 
ATOM     22  C   UNL     1       0.653   3.182  19.946  0.00  0.00    +0.000 C 
ENDBRANCH  20  22
ENDBRANCH  19  20
ENDBRANCH  17  19
ENDBRANCH   1  17
TORSDOF 5
ENDMDL
MODEL 9
REMARK VINA RESULT:      -7.5      1.495      4.194
REMARK  Name = 
REMARK  6 active torsions:
REMARK  status: ('A' for Active; 'I' for Inactive)
REMARK    1  A    between atoms: C_1  and  C_2
REMARK    2  A    between atoms: C_2  and  C_3
REMARK    3  A    between atoms: C_3  and  C_4
REMARK    4  A    between atoms: C_4  and  N_5
REMARK    5  A    between atoms: N_5  and  C_6
REMARK    6  A    between atoms: C_8  and  C_9
REMARK                            x       y       z     vdW  Elec       q    Type
REMARK                         _______ _______ _______ _____ _____    ______ ____
ROOT
ATOM      1  C   UNL     1       4.680   5.067  19.114  0.00  0.00    +0.000 A 
ATOM      2  N   UNL     1       4.144   6.303  19.095  0.00  0.00    +0.000 NA
ATOM      3  C   UNL     1       2.855   6.420  18.731  0.00  0.00    +0.000 A 
ATOM      4  N   UNL     1       2.068   5.388  18.377  0.00  0.00    +0.000 NA
ATOM      5  C   UNL     1       2.602   4.168  18.398  0.00  0.00    +0.000 A 
ATOM      6  C   UNL     1       1.781   3.090  18.089  0.00  0.00    +0.000 A 
ATOM      7  C   UNL     1       2.241   1.775  18.124  0.00  0.00    +0.000 A 
ATOM      8  C   UNL     1       3.560   1.519  18.461  0.00  0.00    +0.000 A 
ATOM      9  C   UNL     1       4.407   2.584  18.761  0.00  0.00    +0.000 A 
ATOM     10  C   UNL     1       3.933   3.926  18.749  0.00  0.00    +0.000 A 
ENDROOT
BRANCH   3  11
ATOM     11  C   UNL     1       2.211   7.747  18.837  0.00  0.00    +0.000 A 
ATOM     12  C   UNL     1       2.265   8.682  17.786  0.00  0.00    +0.000 A 
ATOM     13  C   UNL     1       1.759   9.979  17.933  0.00  0.00    +0.000 A 
ATOM     14  C   UNL     1       1.169  10.367  19.134  0.00  0.00    +0.000 A 
ATOM     15  C   UNL     1       1.056   9.451  20.174  0.00  0.00    +0.000 A 
ATOM     16  C   UNL     1       1.565   8.158  20.022  0.00  0.00    +0.000 A 
ENDBRANCH   3  11
BRANCH   1  17
ATOM     17  N   UNL     1       6.045   4.923  19.457  0.00  0.00    +0.000 N 
ATOM     18  H   UNL     1       6.190   5.256  20.402  0.00  0.00    +0.000 HD
BRANCH  17  19
ATOM     19  C   UNL     1       6.966   5.618  18.555  0.00  0.00    +0.000 C 
BRANCH  19  20
ATOM     20  C   UNL     1       7.455   4.620  17.499  0.00  0.00    +0.000 C 
BRANCH  20  22
ATOM     21  C   UNL     1       5.992   3.832  15.607  0.00  0.00    +0.000 C 
ATOM     22  C   UNL     1       6.893   4.945  16.116  0.00  0.00    +0.000 C 
ENDBRANCH  20  22
ENDBRANCH  19  20
ENDBRANCH  17  19
ENDBRANCH   1  17
TORSDOF 5
ENDMDL
