MODEL 1
REMARK VINA RESULT:      -8.3      0.000      0.000
REMARK  Name = 
REMARK  8 active torsions:
REMARK  status: ('A' for Active; 'I' for Inactive)
REMARK    1  A    between atoms: C_1  and  C_2
REMARK    2  A    between atoms: C_2  and  C_3
REMARK    3  A    between atoms: C_11  and  C_13
REMARK    4  A    between atoms: C_13  and  C_14
REMARK    5  A    between atoms: C_14  and  O_15
REMARK    6  A    between atoms: O_15  and  C_16
REMARK    7  A    between atoms: C_18  and  C_19
REMARK    8  A    between atoms: C_22  and  C_23
REMARK                            x       y       z     vdW  Elec       q    Type
REMARK                         _______ _______ _______ _____ _____    ______ ____
ROOT
ATOM      1  C   UNL     1       6.741   6.233  17.277  0.00  0.00    +0.000 A 
ATOM      2  N   UNL     1       6.590   6.271  15.968  0.00  0.00    +0.000 NA
ATOM      3  N   UNL     1       5.490   5.513  15.636  0.00  0.00    +0.000 NA
ATOM      4  C   UNL     1       4.983   5.028  16.747  0.00  0.00    +0.000 A 
ATOM      5  N   UNL     1       5.737   5.472  17.804  0.00  0.00    +0.000 N 
ATOM      6  C   UNL     1       5.449   5.145  19.184  0.00  0.00    +0.000 C 
ATOM      7  C   UNL     1       4.591   3.881  19.258  0.00  0.00    +0.000 C 
ATOM      8  N   UNL     1       3.459   3.987  18.331  0.00  0.00    +0.000 N 
ATOM      9  C   UNL     1       2.117   3.973  18.662  0.00  0.00    +0.000 C 
ATOM     10  O   UNL     1       1.237   4.035  17.800  0.00  0.00    +0.000 OA
ATOM     11  C   UNL     1       3.821   4.109  16.909  0.00  0.00    +0.000 C 
ENDROOT
BRANCH   1  13
ATOM     12  C   UNL     1       7.892   8.372  17.768  0.00  0.00    +0.000 C 
ATOM     13  C   UNL     1       7.832   6.879  18.052  0.00  0.00    +0.000 C 
ENDBRANCH   1  13
BRANCH   9  14
ATOM     14  C   UNL     1       1.741   3.842  20.125  0.00  0.00    +0.000 C 
BRANCH  14  15
ATOM     15  C   UNL     1       1.844   5.197  20.810  0.00  0.00    +0.000 C 
BRANCH  15  16
ATOM     16  O   UNL     1       2.200   6.181  19.833  0.00  0.00    +0.000 OA
BRANCH  16  17
ATOM     17  C   UNL     1       1.692   7.443  20.040  0.00  0.00    +0.000 A 
ATOM     18  C   UNL     1       1.006   7.835  21.196  0.00  0.00    +0.000 A 
ATOM     19  C   UNL     1       0.514   9.137  21.341  0.00  0.00    +0.000 A 
ATOM     20  C   UNL     1      -0.210   9.541  22.591  0.00  0.00    +0.000 C 
ATOM     21  C   UNL     1       0.714  10.057  20.311  0.00  0.00    +0.000 A 
ATOM     22  C   UNL     1       1.394   9.679  19.152  0.00  0.00    +0.000 A 
ATOM     23  C   UNL     1       1.889   8.374  19.004  0.00  0.00    +0.000 A 
ATOM     24  C   UNL     1       2.622   7.996  17.746  0.00  0.00    +0.000 C 
ENDBRANCH  16  17
ENDBRANCH  15  16
ENDBRANCH  14  15
ENDBRANCH   9  14
TORSDOF 5
ENDMDL
MODEL 2
REMARK VINA RESULT:      -7.3      1.098      2.375
REMARK  Name = 
REMARK  8 active torsions:
REMARK  status: ('A' for Active; 'I' for Inactive)
REMARK    1  A    between atoms: C_1  and  C_2
REMARK    2  A    between atoms: C_2  and  C_3
REMARK    3  A    between atoms: C_11  and  C_13
REMARK    4  A    between atoms: C_13  and  C_14
REMARK    5  A    between atoms: C_14  and  O_15
REMARK    6  A    between atoms: O_15  and  C_16
REMARK    7  A    between atoms: C_18  and  C_19
REMARK    8  A    between atoms: C_22  and  C_23
REMARK                            x       y       z     vdW  Elec       q    Type
REMARK                         _______ _______ _______ _____ _____    ______ ____
ROOT
ATOM      1  C   UNL     1       6.585   4.710  17.360  0.00  0.00    +0.000 A 
ATOM      2  N   UNL     1       6.451   4.505  16.064  0.00  0.00    +0.000 NA
ATOM      3  N   UNL     1       5.251   3.867  15.848  0.00  0.00    +0.000 NA
ATOM      4  C   UNL     1       4.668   3.698  17.012  0.00  0.00    +0.000 A 
ATOM      5  N   UNL     1       5.473   4.228  17.988  0.00  0.00    +0.000 N 
ATOM      6  C   UNL     1       5.129   4.234  19.394  0.00  0.00    +0.000 C 
ATOM      7  C   UNL     1       4.087   3.152  19.685  0.00  0.00    +0.000 C 
ATOM      8  N   UNL     1       2.992   3.235  18.713  0.00  0.00    +0.000 N 
ATOM      9  C   UNL     1       1.660   3.487  18.989  0.00  0.00    +0.000 C 
ATOM     10  O   UNL     1       0.807   3.503  18.099  0.00  0.00    +0.000 OA
ATOM     11  C   UNL     1       3.378   3.013  17.310  0.00  0.00    +0.000 C 
ENDROOT
BRANCH   1  13
ATOM     12  C   UNL     1       7.648   6.848  18.026  0.00  0.00    +0.000 C 
ATOM     13  C   UNL     1       7.756   5.330  18.031  0.00  0.00    +0.000 C 
ENDBRANCH   1  13
BRANCH   9  14
ATOM     14  C   UNL     1       1.258   3.711  20.433  0.00  0.00    +0.000 C 
BRANCH  14  15
ATOM     15  C   UNL     1       2.106   4.819  21.041  0.00  0.00    +0.000 C 
BRANCH  15  16
ATOM     16  O   UNL     1       1.356   6.038  21.020  0.00  0.00    +0.000 OA
BRANCH  16  17
ATOM     17  C   UNL     1       1.730   6.956  20.067  0.00  0.00    +0.000 A 
ATOM     18  C   UNL     1       2.634   6.690  19.030  0.00  0.00    +0.000 A 
ATOM     19  C   UNL     1       2.972   7.673  18.092  0.00  0.00    +0.000 A 
ATOM     20  C   UNL     1       3.933   7.365  16.983  0.00  0.00    +0.000 C 
ATOM     21  C   UNL     1       2.394   8.938  18.198  0.00  0.00    +0.000 A 
ATOM     22  C   UNL     1       1.495   9.219  19.228  0.00  0.00    +0.000 A 
ATOM     23  C   UNL     1       1.153   8.235  20.170  0.00  0.00    +0.000 A 
ATOM     24  C   UNL     1       0.178   8.563  21.266  0.00  0.00    +0.000 C 
ENDBRANCH  16  17
ENDBRANCH  15  16
ENDBRANCH  14  15
ENDBRANCH   9  14
TORSDOF 5
ENDMDL
MODEL 3
REMARK VINA RESULT:      -7.3      3.884      7.784
REMARK  Name = 
REMARK  8 active torsions:
REMARK  status: ('A' for Active; 'I' for Inactive)
REMARK    1  A    between atoms: C_1  and  C_2
REMARK    2  A    between atoms: C_2  and  C_3
REMARK    3  A    between atoms: C_11  and  C_13
REMARK    4  A    between atoms: C_13  and  C_14
REMARK    5  A    between atoms: C_14  and  O_15
REMARK    6  A    between atoms: O_15  and  C_16
REMARK    7  A    between atoms: C_18  and  C_19
REMARK    8  A    between atoms: C_22  and  C_23
REMARK                            x       y       z     vdW  Elec       q    Type
REMARK                         _______ _______ _______ _____ _____    ______ ____
ROOT
ATOM      1  C   UNL     1       3.312   4.290  18.572  0.00  0.00    +0.000 A 
ATOM      2  N   UNL     1       3.828   3.245  19.187  0.00  0.00    +0.000 NA
ATOM      3  N   UNL     1       5.199   3.370  19.180  0.00  0.00    +0.000 NA
ATOM      4  C   UNL     1       5.499   4.491  18.566  0.00  0.00    +0.000 A 
ATOM      5  N   UNL     1       4.334   5.106  18.181  0.00  0.00    +0.000 N 
ATOM      6  C   UNL     1       4.291   6.379  17.493  0.00  0.00    +0.000 C 
ATOM      7  C   UNL     1       5.632   6.654  16.809  0.00  0.00    +0.000 C 
ATOM      8  N   UNL     1       6.732   6.423  17.752  0.00  0.00    +0.000 N 
ATOM      9  C   UNL     1       7.655   7.356  18.189  0.00  0.00    +0.000 C 
ATOM     10  O   UNL     1       8.567   7.052  18.961  0.00  0.00    +0.000 OA
ATOM     11  C   UNL     1       6.847   5.045  18.259  0.00  0.00    +0.000 C 
ENDROOT
BRANCH   1  13
ATOM     12  C   UNL     1       1.061   3.255  18.503  0.00  0.00    +0.000 C 
ATOM     13  C   UNL     1       1.868   4.531  18.318  0.00  0.00    +0.000 C 
ENDBRANCH   1  13
BRANCH   9  14
ATOM     14  C   UNL     1       7.542   8.774  17.665  0.00  0.00    +0.000 C 
BRANCH  14  15
ATOM     15  C   UNL     1       8.884   9.481  17.792  0.00  0.00    +0.000 C 
BRANCH  15  16
ATOM     16  O   UNL     1       8.897  10.231  19.011  0.00  0.00    +0.000 OA
BRANCH  16  17
ATOM     17  C   UNL     1       9.749  11.309  19.044  0.00  0.00    +0.000 A 
ATOM     18  C   UNL     1      10.518  11.738  17.954  0.00  0.00    +0.000 A 
ATOM     19  C   UNL     1      11.368  12.845  18.057  0.00  0.00    +0.000 A 
ATOM     20  C   UNL     1      12.176  13.295  16.875  0.00  0.00    +0.000 C 
ATOM     21  C   UNL     1      11.446  13.530  19.270  0.00  0.00    +0.000 A 
ATOM     22  C   UNL     1      10.688  13.113  20.365  0.00  0.00    +0.000 A 
ATOM     23  C   UNL     1       9.835  12.003  20.265  0.00  0.00    +0.000 A 
ATOM     24  C   UNL     1       9.026  11.578  21.459  0.00  0.00    +0.000 C 
ENDBRANCH  16  17
ENDBRANCH  15  16
ENDBRANCH  14  15
ENDBRANCH   9  14
TORSDOF 5
ENDMDL
MODEL 4
REMARK VINA RESULT:      -7.3      0.935      2.254
REMARK  Name = 
REMARK  8 active torsions:
REMARK  status: ('A' for Active; 'I' for Inactive)
REMARK    1  A    between atoms: C_1  and  C_2
REMARK    2  A    between atoms: C_2  and  C_3
REMARK    3  A    between atoms: C_11  and  C_13
REMARK    4  A    between atoms: C_13  and  C_14
REMARK    5  A    between atoms: C_14  and  O_15
REMARK    6  A    between atoms: O_15  and  C_16
REMARK    7  A    between atoms: C_18  and  C_19
REMARK    8  A    between atoms: C_22  and  C_23
REMARK                            x       y       z     vdW  Elec       q    Type
REMARK                         _______ _______ _______ _____ _____    ______ ____
ROOT
ATOM      1  C   UNL     1       7.227   6.287  17.411  0.00  0.00    +0.000 A 
ATOM      2  N   UNL     1       7.244   6.170  16.098  0.00  0.00    +0.000 NA
ATOM      3  N   UNL     1       6.319   5.218  15.734  0.00  0.00    +0.000 NA
ATOM      4  C   UNL     1       5.748   4.771  16.829  0.00  0.00    +0.000 A 
ATOM      5  N   UNL     1       6.285   5.432  17.905  0.00  0.00    +0.000 N 
ATOM      6  C   UNL     1       5.870   5.202  19.273  0.00  0.00    +0.000 C 
ATOM      7  C   UNL     1       5.204   3.830  19.398  0.00  0.00    +0.000 C 
ATOM      8  N   UNL     1       4.199   3.663  18.342  0.00  0.00    +0.000 N 
ATOM      9  C   UNL     1       2.841   3.467  18.517  0.00  0.00    +0.000 C 
ATOM     10  O   UNL     1       2.083   3.303  17.559  0.00  0.00    +0.000 OA
ATOM     11  C   UNL     1       4.722   3.700  16.966  0.00  0.00    +0.000 C 
ENDROOT
BRANCH   1  13
ATOM     12  C   UNL     1       7.964   8.623  17.787  0.00  0.00    +0.000 C 
ATOM     13  C   UNL     1       8.102   7.172  18.222  0.00  0.00    +0.000 C 
ENDBRANCH   1  13
BRANCH   9  14
ATOM     14  C   UNL     1       2.301   3.424  19.933  0.00  0.00    +0.000 C 
BRANCH  14  15
ATOM     15  C   UNL     1       1.160   4.420  20.083  0.00  0.00    +0.000 C 
BRANCH  15  16
ATOM     16  O   UNL     1       1.655   5.592  20.739  0.00  0.00    +0.000 OA
BRANCH  16  17
ATOM     17  C   UNL     1       1.887   6.679  19.930  0.00  0.00    +0.000 A 
ATOM     18  C   UNL     1       2.709   6.655  18.796  0.00  0.00    +0.000 A 
ATOM     19  C   UNL     1       2.904   7.801  18.016  0.00  0.00    +0.000 A 
ATOM     20  C   UNL     1       3.779   7.752  16.799  0.00  0.00    +0.000 C 
ATOM     21  C   UNL     1       2.263   8.986  18.380  0.00  0.00    +0.000 A 
ATOM     22  C   UNL     1       1.444   9.026  19.509  0.00  0.00    +0.000 A 
ATOM     23  C   UNL     1       1.247   7.878  20.293  0.00  0.00    +0.000 A 
ATOM     24  C   UNL     1       0.354   7.948  21.501  0.00  0.00    +0.000 C 
ENDBRANCH  16  17
ENDBRANCH  15  16
ENDBRANCH  14  15
ENDBRANCH   9  14
TORSDOF 5
ENDMDL
MODEL 5
REMARK VINA RESULT:      -7.3      3.976      7.392
REMARK  Name = 
REMARK  8 active torsions:
REMARK  status: ('A' for Active; 'I' for Inactive)
REMARK    1  A    between atoms: C_1  and  C_2
REMARK    2  A    between atoms: C_2  and  C_3
REMARK    3  A    between atoms: C_11  and  C_13
REMARK    4  A    between atoms: C_13  and  C_14
REMARK    5  A    between atoms: C_14  and  O_15
REMARK    6  A    between atoms: O_15  and  C_16
REMARK    7  A    between atoms: C_18  and  C_19
REMARK    8  A    between atoms: C_22  and  C_23
REMARK                            x       y       z     vdW  Elec       q    Type
REMARK                         _______ _______ _______ _____ _____    ______ ____
ROOT
ATOM      1  C   UNL     1       3.360   4.440  18.784  0.00  0.00    +0.000 A 
ATOM      2  N   UNL     1       3.862   3.375  19.376  0.00  0.00    +0.000 NA
ATOM      3  N   UNL     1       5.235   3.446  19.308  0.00  0.00    +0.000 NA
ATOM      4  C   UNL     1       5.550   4.556  18.680  0.00  0.00    +0.000 A 
ATOM      5  N   UNL     1       4.395   5.216  18.347  0.00  0.00    +0.000 N 
ATOM      6  C   UNL     1       4.371   6.491  17.661  0.00  0.00    +0.000 C 
ATOM      7  C   UNL     1       5.689   6.714  16.919  0.00  0.00    +0.000 C 
ATOM      8  N   UNL     1       6.821   6.440  17.811  0.00  0.00    +0.000 N 
ATOM      9  C   UNL     1       7.798   7.335  18.206  0.00  0.00    +0.000 C 
ATOM     10  O   UNL     1       8.731   6.994  18.936  0.00  0.00    +0.000 OA
ATOM     11  C   UNL     1       6.904   5.057  18.312  0.00  0.00    +0.000 C 
ENDROOT
BRANCH   1  13
ATOM     12  C   UNL     1       1.126   4.433  19.857  0.00  0.00    +0.000 C 
ATOM     13  C   UNL     1       1.917   4.738  18.594  0.00  0.00    +0.000 C 
ENDBRANCH   1  13
BRANCH   9  14
ATOM     14  C   UNL     1       7.717   8.757  17.687  0.00  0.00    +0.000 C 
BRANCH  14  15
ATOM     15  C   UNL     1       8.597   9.668  18.533  0.00  0.00    +0.000 C 
BRANCH  15  16
ATOM     16  O   UNL     1       9.409  10.462  17.662  0.00  0.00    +0.000 OA
BRANCH  16  17
ATOM     17  C   UNL     1       9.384  11.818  17.889  0.00  0.00    +0.000 A 
ATOM     18  C   UNL     1       8.264  12.631  17.672  0.00  0.00    +0.000 A 
ATOM     19  C   UNL     1       8.308  14.008  17.923  0.00  0.00    +0.000 A 
ATOM     20  C   UNL     1       7.095  14.860  17.694  0.00  0.00    +0.000 C 
ATOM     21  C   UNL     1       9.491  14.574  18.398  0.00  0.00    +0.000 A 
ATOM     22  C   UNL     1      10.616  13.776  18.616  0.00  0.00    +0.000 A 
ATOM     23  C   UNL     1      10.575  12.395  18.365  0.00  0.00    +0.000 A 
ATOM     24  C   UNL     1      11.800  11.559  18.614  0.00  0.00    +0.000 C 
ENDBRANCH  16  17
ENDBRANCH  15  16
ENDBRANCH  14  15
ENDBRANCH   9  14
TORSDOF 5
ENDMDL
MODEL 6
REMARK VINA RESULT:      -7.0      3.299      5.501
REMARK  Name = 
REMARK  8 active torsions:
REMARK  status: ('A' for Active; 'I' for Inactive)
REMARK    1  A    between atoms: C_1  and  C_2
REMARK    2  A    between atoms: C_2  and  C_3
REMARK    3  A    between atoms: C_11  and  C_13
REMARK    4  A    between atoms: C_13  and  C_14
REMARK    5  A    between atoms: C_14  and  O_15
REMARK    6  A    between atoms: O_15  and  C_16
REMARK    7  A    between atoms: C_18  and  C_19
REMARK    8  A    between atoms: C_22  and  C_23
REMARK                            x       y       z     vdW  Elec       q    Type
REMARK                         _______ _______ _______ _____ _____    ______ ____
ROOT
ATOM      1  C   UNL     1       1.874   3.163  19.190  0.00  0.00    +0.000 A 
ATOM      2  N   UNL     1       1.523   2.863  20.424  0.00  0.00    +0.000 NA
ATOM      3  N   UNL     1       1.511   4.022  21.166  0.00  0.00    +0.000 NA
ATOM      4  C   UNL     1       1.849   5.013  20.373  0.00  0.00    +0.000 A 
ATOM      5  N   UNL     1       2.072   4.512  19.115  0.00  0.00    +0.000 N 
ATOM      6  C   UNL     1       2.444   5.332  17.982  0.00  0.00    +0.000 C 
ATOM      7  C   UNL     1       3.055   6.650  18.463  0.00  0.00    +0.000 C 
ATOM      8  N   UNL     1       2.200   7.253  19.492  0.00  0.00    +0.000 N 
ATOM      9  C   UNL     1       1.564   8.479  19.423  0.00  0.00    +0.000 C 
ATOM     10  O   UNL     1       0.891   8.913  20.361  0.00  0.00    +0.000 OA
ATOM     11  C   UNL     1       2.029   6.452  20.716  0.00  0.00    +0.000 C 
ENDROOT
BRANCH   1  13
ATOM     12  C   UNL     1       3.488   1.695  18.015  0.00  0.00    +0.000 C 
ATOM     13  C   UNL     1       2.055   2.201  18.072  0.00  0.00    +0.000 C 
ENDBRANCH   1  13
BRANCH   9  14
ATOM     14  C   UNL     1       1.743   9.308  18.167  0.00  0.00    +0.000 C 
BRANCH  14  15
ATOM     15  C   UNL     1       0.732  10.447  18.149  0.00  0.00    +0.000 C 
BRANCH  15  16
ATOM     16  O   UNL     1      -0.530   9.936  17.706  0.00  0.00    +0.000 OA
BRANCH  16  17
ATOM     17  C   UNL     1      -1.637  10.648  18.103  0.00  0.00    +0.000 A 
ATOM     18  C   UNL     1      -1.702  11.416  19.273  0.00  0.00    +0.000 A 
ATOM     19  C   UNL     1      -2.864  12.116  19.619  0.00  0.00    +0.000 A 
ATOM     20  C   UNL     1      -2.909  12.941  20.870  0.00  0.00    +0.000 C 
ATOM     21  C   UNL     1      -3.974  12.044  18.777  0.00  0.00    +0.000 A 
ATOM     22  C   UNL     1      -3.926  11.280  17.609  0.00  0.00    +0.000 A 
ATOM     23  C   UNL     1      -2.761  10.577  17.260  0.00  0.00    +0.000 A 
ATOM     24  C   UNL     1      -2.735   9.767  15.994  0.00  0.00    +0.000 C 
ENDBRANCH  16  17
ENDBRANCH  15  16
ENDBRANCH  14  15
ENDBRANCH   9  14
TORSDOF 5
ENDMDL
MODEL 7
REMARK VINA RESULT:      -6.9      3.710      6.004
REMARK  Name = 
REMARK  8 active torsions:
REMARK  status: ('A' for Active; 'I' for Inactive)
REMARK    1  A    between atoms: C_1  and  C_2
REMARK    2  A    between atoms: C_2  and  C_3
REMARK    3  A    between atoms: C_11  and  C_13
REMARK    4  A    between atoms: C_13  and  C_14
REMARK    5  A    between atoms: C_14  and  O_15
REMARK    6  A    between atoms: O_15  and  C_16
REMARK    7  A    between atoms: C_18  and  C_19
REMARK    8  A    between atoms: C_22  and  C_23
REMARK                            x       y       z     vdW  Elec       q    Type
REMARK                         _______ _______ _______ _____ _____    ______ ____
ROOT
ATOM      1  C   UNL     1       2.048   3.483  19.037  0.00  0.00    +0.000 A 
ATOM      2  N   UNL     1       1.692   2.984  20.204  0.00  0.00    +0.000 NA
ATOM      3  N   UNL     1       1.553   4.023  21.097  0.00  0.00    +0.000 NA
ATOM      4  C   UNL     1       1.822   5.140  20.460  0.00  0.00    +0.000 A 
ATOM      5  N   UNL     1       2.125   4.841  19.156  0.00  0.00    +0.000 N 
ATOM      6  C   UNL     1       2.452   5.840  18.161  0.00  0.00    +0.000 C 
ATOM      7  C   UNL     1       2.926   7.125  18.842  0.00  0.00    +0.000 C 
ATOM      8  N   UNL     1       1.991   7.503  19.907  0.00  0.00    +0.000 N 
ATOM      9  C   UNL     1       1.248   8.667  19.981  0.00  0.00    +0.000 C 
ATOM     10  O   UNL     1       0.513   8.906  20.941  0.00  0.00    +0.000 OA
ATOM     11  C   UNL     1       1.860   6.527  21.003  0.00  0.00    +0.000 C 
ENDROOT
BRANCH   1  13
ATOM     12  C   UNL     1       3.387   1.628  18.082  0.00  0.00    +0.000 C 
ATOM     13  C   UNL     1       2.348   2.704  17.807  0.00  0.00    +0.000 C 
ENDBRANCH   1  13
BRANCH   9  14
ATOM     14  C   UNL     1       1.386   9.676  18.857  0.00  0.00    +0.000 C 
BRANCH  14  15
ATOM     15  C   UNL     1       0.129   9.669  17.999  0.00  0.00    +0.000 C 
BRANCH  15  16
ATOM     16  O   UNL     1      -0.797  10.623  18.529  0.00  0.00    +0.000 OA
BRANCH  16  17
ATOM     17  C   UNL     1      -1.950  10.807  17.803  0.00  0.00    +0.000 A 
ATOM     18  C   UNL     1      -2.162  10.292  16.518  0.00  0.00    +0.000 A 
ATOM     19  C   UNL     1      -3.362  10.518  15.834  0.00  0.00    +0.000 A 
ATOM     20  C   UNL     1      -3.574   9.949  14.463  0.00  0.00    +0.000 C 
ATOM     21  C   UNL     1      -4.362  11.272  16.450  0.00  0.00    +0.000 A 
ATOM     22  C   UNL     1      -4.164  11.794  17.729  0.00  0.00    +0.000 A 
ATOM     23  C   UNL     1      -2.961  11.568  18.418  0.00  0.00    +0.000 A 
ATOM     24  C   UNL     1      -2.777  12.138  19.797  0.00  0.00    +0.000 C 
ENDBRANCH  16  17
ENDBRANCH  15  16
ENDBRANCH  14  15
ENDBRANCH   9  14
TORSDOF 5
ENDMDL
MODEL 8
REMARK VINA RESULT:      -6.8      2.623      5.706
REMARK  Name = 
REMARK  8 active torsions:
REMARK  status: ('A' for Active; 'I' for Inactive)
REMARK    1  A    between atoms: C_1  and  C_2
REMARK    2  A    between atoms: C_2  and  C_3
REMARK    3  A    between atoms: C_11  and  C_13
REMARK    4  A    between atoms: C_13  and  C_14
REMARK    5  A    between atoms: C_14  and  O_15
REMARK    6  A    between atoms: O_15  and  C_16
REMARK    7  A    between atoms: C_18  and  C_19
REMARK    8  A    between atoms: C_22  and  C_23
REMARK                            x       y       z     vdW  Elec       q    Type
REMARK                         _______ _______ _______ _____ _____    ______ ____
ROOT
ATOM      1  C   UNL     1       2.074   7.932  19.118  0.00  0.00    +0.000 A 
ATOM      2  N   UNL     1       1.847   8.271  20.371  0.00  0.00    +0.000 NA
ATOM      3  N   UNL     1       1.606   7.125  21.094  0.00  0.00    +0.000 NA
ATOM      4  C   UNL     1       1.695   6.103  20.273  0.00  0.00    +0.000 A 
ATOM      5  N   UNL     1       2.002   6.572  19.021  0.00  0.00    +0.000 N 
ATOM      6  C   UNL     1       2.196   5.714  17.871  0.00  0.00    +0.000 C 
ATOM      7  C   UNL     1       1.514   4.364  18.100  0.00  0.00    +0.000 C 
ATOM      8  N   UNL     1       1.880   3.834  19.417  0.00  0.00    +0.000 N 
ATOM      9  C   UNL     1       2.552   2.653  19.675  0.00  0.00    +0.000 C 
ATOM     10  O   UNL     1       2.783   2.278  20.826  0.00  0.00    +0.000 OA
ATOM     11  C   UNL     1       1.466   4.660  20.564  0.00  0.00    +0.000 C 
ENDROOT
BRANCH   1  13
ATOM     12  C   UNL     1       1.317   9.997  17.975  0.00  0.00    +0.000 C 
ATOM     13  C   UNL     1       2.334   8.866  17.992  0.00  0.00    +0.000 C 
ENDBRANCH   1  13
BRANCH   9  14
ATOM     14  C   UNL     1       2.973   1.798  18.496  0.00  0.00    +0.000 C 
BRANCH  14  15
ATOM     15  C   UNL     1       4.411   2.117  18.112  0.00  0.00    +0.000 C 
BRANCH  15  16
ATOM     16  O   UNL     1       4.404   3.126  17.097  0.00  0.00    +0.000 OA
BRANCH  16  17
ATOM     17  C   UNL     1       5.399   4.071  17.182  0.00  0.00    +0.000 A 
ATOM     18  C   UNL     1       6.014   4.460  18.380  0.00  0.00    +0.000 A 
ATOM     19  C   UNL     1       7.022   5.431  18.396  0.00  0.00    +0.000 A 
ATOM     20  C   UNL     1       7.675   5.826  19.686  0.00  0.00    +0.000 C 
ATOM     21  C   UNL     1       7.417   6.018  17.193  0.00  0.00    +0.000 A 
ATOM     22  C   UNL     1       6.811   5.643  15.993  0.00  0.00    +0.000 A 
ATOM     23  C   UNL     1       5.800   4.669  15.974  0.00  0.00    +0.000 A 
ATOM     24  C   UNL     1       5.168   4.280  14.666  0.00  0.00    +0.000 C 
ENDBRANCH  16  17
ENDBRANCH  15  16
ENDBRANCH  14  15
ENDBRANCH   9  14
TORSDOF 5
ENDMDL
MODEL 9
REMARK VINA RESULT:      -6.7      3.603      7.382
REMARK  Name = 
REMARK  8 active torsions:
REMARK  status: ('A' for Active; 'I' for Inactive)
REMARK    1  A    between atoms: C_1  and  C_2
REMARK    2  A    between atoms: C_2  and  C_3
REMARK    3  A    between atoms: C_11  and  C_13
REMARK    4  A    between atoms: C_13  and  C_14
REMARK    5  A    between atoms: C_14  and  O_15
REMARK    6  A    between atoms: O_15  and  C_16
REMARK    7  A    between atoms: C_18  and  C_19
REMARK    8  A    between atoms: C_22  and  C_23
REMARK                            x       y       z     vdW  Elec       q    Type
REMARK                         _______ _______ _______ _____ _____    ______ ____
ROOT
ATOM      1  C   UNL     1       2.953   3.902  18.584  0.00  0.00    +0.000 A 
ATOM      2  N   UNL     1       3.343   2.808  17.960  0.00  0.00    +0.000 NA
ATOM      3  N   UNL     1       4.374   3.138  17.110  0.00  0.00    +0.000 NA
ATOM      4  C   UNL     1       4.602   4.425  17.233  0.00  0.00    +0.000 A 
ATOM      5  N   UNL     1       3.735   4.939  18.163  0.00  0.00    +0.000 N 
ATOM      6  C   UNL     1       3.721   6.330  18.563  0.00  0.00    +0.000 C 
ATOM      7  C   UNL     1       4.376   7.194  17.483  0.00  0.00    +0.000 C 
ATOM      8  N   UNL     1       5.662   6.610  17.085  0.00  0.00    +0.000 N 
ATOM      9  C   UNL     1       6.908   7.197  17.204  0.00  0.00    +0.000 C 
ATOM     10  O   UNL     1       7.930   6.633  16.805  0.00  0.00    +0.000 OA
ATOM     11  C   UNL     1       5.583   5.265  16.489  0.00  0.00    +0.000 C 
ENDROOT
BRANCH   1  13
ATOM     12  C   UNL     1       2.262   3.513  20.933  0.00  0.00    +0.000 C 
ATOM     13  C   UNL     1       1.835   4.003  19.558  0.00  0.00    +0.000 C 
ENDBRANCH   1  13
BRANCH   9  14
ATOM     14  C   UNL     1       6.992   8.583  17.811  0.00  0.00    +0.000 C 
BRANCH  14  15
ATOM     15  C   UNL     1       8.403   9.131  17.659  0.00  0.00    +0.000 C 
BRANCH  15  16
ATOM     16  O   UNL     1       8.865   9.579  18.938  0.00  0.00    +0.000 OA
BRANCH  16  17
ATOM     17  C   UNL     1       9.526  10.784  18.949  0.00  0.00    +0.000 A 
ATOM     18  C   UNL     1      10.115  11.369  17.820  0.00  0.00    +0.000 A 
ATOM     19  C   UNL     1      10.776  12.601  17.902  0.00  0.00    +0.000 A 
ATOM     20  C   UNL     1      11.390  13.216  16.680  0.00  0.00    +0.000 C 
ATOM     21  C   UNL     1      10.845  13.252  19.134  0.00  0.00    +0.000 A 
ATOM     22  C   UNL     1      10.265  12.680  20.268  0.00  0.00    +0.000 A 
ATOM     23  C   UNL     1       9.602  11.445  20.189  0.00  0.00    +0.000 A 
ATOM     24  C   UNL     1       8.983  10.854  21.425  0.00  0.00    +0.000 C 
ENDBRANCH  16  17
ENDBRANCH  15  16
ENDBRANCH  14  15
ENDBRANCH   9  14
TORSDOF 5
ENDMDL
