MODEL 1
REMARK VINA RESULT:      -8.4      0.000      0.000
REMARK  Name = 
REMARK  7 active torsions:
REMARK  status: ('A' for Active; 'I' for Inactive)
REMARK    1  A    between atoms: C_1  and  C_2
REMARK    2  A    between atoms: C_2  and  C_3
REMARK    3  A    between atoms: C_3  and  S_4
REMARK    4  A    between atoms: S_4  and  C_5
REMARK    5  A    between atoms: C_9  and  C_10
REMARK    6  A    between atoms: C_12  and  N_13
REMARK    7  A    between atoms: N_13  and  C_14
REMARK                            x       y       z     vdW  Elec       q    Type
REMARK                         _______ _______ _______ _____ _____    ______ ____
ROOT
ATOM      1  C   UNL     1       6.379   3.978  13.844  0.00  0.00    +0.000 A 
ATOM      2  N   UNL     1       7.118   5.102  14.054  0.00  0.00    +0.000 NA
ATOM      3  C   UNL     1       7.023   5.307  15.355  0.00  0.00    +0.000 A 
ATOM      4  N   UNL     1       7.585   6.288  16.094  0.00  0.00    +0.000 NA
ATOM      5  C   UNL     1       7.340   6.251  17.372  0.00  0.00    +0.000 A 
ATOM      6  C   UNL     1       7.932   7.315  18.260  0.00  0.00    +0.000 C 
ATOM      7  C   UNL     1       6.506   5.222  18.060  0.00  0.00    +0.000 A 
ATOM      8  C   UNL     1       5.938   4.269  17.291  0.00  0.00    +0.000 A 
ATOM      9  N   UNL     1       6.207   4.299  15.904  0.00  0.00    +0.000 N 
ATOM     10  N   UNL     1       5.811   3.442  14.924  0.00  0.00    +0.000 NA
ENDROOT
BRANCH   8  11
ATOM     11  N   UNL     1       5.097   3.292  17.819  0.00  0.00    +0.000 N 
ATOM     12  H   UNL     1       5.575   2.472  18.200  0.00  0.00    +0.000 HD
BRANCH  11  13
ATOM     13  C   UNL     1       3.855   3.571  18.433  0.00  0.00    +0.000 A 
ATOM     14  C   UNL     1       3.723   3.451  19.823  0.00  0.00    +0.000 A 
ATOM     15  C   UNL     1       2.469   3.555  20.439  0.00  0.00    +0.000 A 
ATOM     16  C   UNL     1       1.347   3.822  19.665  0.00  0.00    +0.000 A 
ATOM     17  F   UNL     1       0.144   3.902  20.246  0.00  0.00    +0.000 F 
ATOM     18  C   UNL     1       1.459   3.993  18.292  0.00  0.00    +0.000 A 
ATOM     19  C   UNL     1       2.706   3.865  17.680  0.00  0.00    +0.000 A 
ENDBRANCH  11  13
ENDBRANCH   8  11
BRANCH   1  20
ATOM     20  S   UNL     1       6.127   3.320  12.247  0.00  0.00    +0.000 S 
BRANCH  20  21
ATOM     21  C   UNL     1       4.347   3.651  12.015  0.00  0.00    +0.000 C 
BRANCH  21  23
ATOM     22  C   UNL     1       3.094   4.042   9.854  0.00  0.00    +0.000 C 
ATOM     23  C   UNL     1       3.885   3.044  10.689  0.00  0.00    +0.000 C 
ENDBRANCH  21  23
ENDBRANCH  20  21
ENDBRANCH   1  20
TORSDOF 5
ENDMDL
MODEL 2
REMARK VINA RESULT:      -8.1      1.422      1.753
REMARK  Name = 
REMARK  7 active torsions:
REMARK  status: ('A' for Active; 'I' for Inactive)
REMARK    1  A    between atoms: C_1  and  C_2
REMARK    2  A    between atoms: C_2  and  C_3
REMARK    3  A    between atoms: C_3  and  S_4
REMARK    4  A    between atoms: S_4  and  C_5
REMARK    5  A    between atoms: C_9  and  C_10
REMARK    6  A    between atoms: C_12  and  N_13
REMARK    7  A    between atoms: N_13  and  C_14
REMARK                            x       y       z     vdW  Elec       q    Type
REMARK                         _______ _______ _______ _____ _____    ______ ____
ROOT
ATOM      1  C   UNL     1       6.030   4.194  14.542  0.00  0.00    +0.000 A 
ATOM      2  N   UNL     1       6.726   5.364  14.559  0.00  0.00    +0.000 NA
ATOM      3  C   UNL     1       6.890   5.618  15.845  0.00  0.00    +0.000 A 
ATOM      4  N   UNL     1       7.533   6.658  16.420  0.00  0.00    +0.000 NA
ATOM      5  C   UNL     1       7.560   6.661  17.721  0.00  0.00    +0.000 A 
ATOM      6  C   UNL     1       8.257   7.792  18.433  0.00  0.00    +0.000 C 
ATOM      7  C   UNL     1       6.951   5.619  18.599  0.00  0.00    +0.000 A 
ATOM      8  C   UNL     1       6.296   4.605  17.995  0.00  0.00    +0.000 A 
ATOM      9  N   UNL     1       6.269   4.592  16.583  0.00  0.00    +0.000 N 
ATOM     10  N   UNL     1       5.732   3.674  15.734  0.00  0.00    +0.000 NA
ENDROOT
BRANCH   8  11
ATOM     11  N   UNL     1       5.644   3.608  18.717  0.00  0.00    +0.000 N 
ATOM     12  H   UNL     1       6.225   3.124  19.405  0.00  0.00    +0.000 HD
BRANCH  11  13
ATOM     13  C   UNL     1       4.270   3.647  19.049  0.00  0.00    +0.000 A 
ATOM     14  C   UNL     1       3.439   4.607  18.455  0.00  0.00    +0.000 A 
ATOM     15  C   UNL     1       2.118   4.780  18.888  0.00  0.00    +0.000 A 
ATOM     16  C   UNL     1       1.614   3.961  19.891  0.00  0.00    +0.000 A 
ATOM     17  F   UNL     1       0.358   4.136  20.322  0.00  0.00    +0.000 F 
ATOM     18  C   UNL     1       2.402   2.971  20.460  0.00  0.00    +0.000 A 
ATOM     19  C   UNL     1       3.725   2.818  20.043  0.00  0.00    +0.000 A 
ENDBRANCH  11  13
ENDBRANCH   8  11
BRANCH   1  20
ATOM     20  S   UNL     1       5.493   3.456  13.054  0.00  0.00    +0.000 S 
BRANCH  20  21
ATOM     21  C   UNL     1       6.960   3.706  11.997  0.00  0.00    +0.000 C 
BRANCH  21  23
ATOM     22  C   UNL     1       6.176   1.459  11.144  0.00  0.00    +0.000 C 
ATOM     23  C   UNL     1       7.374   2.370  11.377  0.00  0.00    +0.000 C 
ENDBRANCH  21  23
ENDBRANCH  20  21
ENDBRANCH   1  20
TORSDOF 5
ENDMDL
MODEL 3
REMARK VINA RESULT:      -8.1      1.419      1.485
REMARK  Name = 
REMARK  7 active torsions:
REMARK  status: ('A' for Active; 'I' for Inactive)
REMARK    1  A    between atoms: C_1  and  C_2
REMARK    2  A    between atoms: C_2  and  C_3
REMARK    3  A    between atoms: C_3  and  S_4
REMARK    4  A    between atoms: S_4  and  C_5
REMARK    5  A    between atoms: C_9  and  C_10
REMARK    6  A    between atoms: C_12  and  N_13
REMARK    7  A    between atoms: N_13  and  C_14
REMARK                            x       y       z     vdW  Elec       q    Type
REMARK                         _______ _______ _______ _____ _____    ______ ____
ROOT
ATOM      1  C   UNL     1       6.097   4.155  14.479  0.00  0.00    +0.000 A 
ATOM      2  N   UNL     1       6.792   5.325  14.514  0.00  0.00    +0.000 NA
ATOM      3  C   UNL     1       6.921   5.581  15.803  0.00  0.00    +0.000 A 
ATOM      4  N   UNL     1       7.547   6.622  16.395  0.00  0.00    +0.000 NA
ATOM      5  C   UNL     1       7.538   6.626  17.696  0.00  0.00    +0.000 A 
ATOM      6  C   UNL     1       8.216   7.758  18.426  0.00  0.00    +0.000 C 
ATOM      7  C   UNL     1       6.906   5.585  18.558  0.00  0.00    +0.000 A 
ATOM      8  C   UNL     1       6.267   4.571  17.937  0.00  0.00    +0.000 A 
ATOM      9  N   UNL     1       6.279   4.556  16.525  0.00  0.00    +0.000 N 
ATOM     10  N   UNL     1       5.766   3.636  15.662  0.00  0.00    +0.000 NA
ENDROOT
BRANCH   8  11
ATOM     11  N   UNL     1       5.595   3.574  18.642  0.00  0.00    +0.000 N 
ATOM     12  H   UNL     1       6.192   2.978  19.219  0.00  0.00    +0.000 HD
BRANCH  11  13
ATOM     13  C   UNL     1       4.273   3.707  19.126  0.00  0.00    +0.000 A 
ATOM     14  C   UNL     1       3.792   2.810  20.089  0.00  0.00    +0.000 A 
ATOM     15  C   UNL     1       2.442   2.811  20.462  0.00  0.00    +0.000 A 
ATOM     16  C   UNL     1       1.577   3.739  19.897  0.00  0.00    +0.000 A 
ATOM     17  F   UNL     1       0.282   3.731  20.234  0.00  0.00    +0.000 F 
ATOM     18  C   UNL     1       2.040   4.670  18.977  0.00  0.00    +0.000 A 
ATOM     19  C   UNL     1       3.381   4.650  18.591  0.00  0.00    +0.000 A 
ENDBRANCH  11  13
ENDBRANCH   8  11
BRANCH   1  20
ATOM     20  S   UNL     1       5.601   3.416  12.977  0.00  0.00    +0.000 S 
BRANCH  20  21
ATOM     21  C   UNL     1       7.175   3.426  12.053  0.00  0.00    +0.000 C 
BRANCH  21  23
ATOM     22  C   UNL     1       5.990   1.341  11.254  0.00  0.00    +0.000 C 
ATOM     23  C   UNL     1       7.200   2.249  11.077  0.00  0.00    +0.000 C 
ENDBRANCH  21  23
ENDBRANCH  20  21
ENDBRANCH   1  20
TORSDOF 5
ENDMDL
MODEL 4
REMARK VINA RESULT:      -8.0      0.418      1.101
REMARK  Name = 
REMARK  7 active torsions:
REMARK  status: ('A' for Active; 'I' for Inactive)
REMARK    1  A    between atoms: C_1  and  C_2
REMARK    2  A    between atoms: C_2  and  C_3
REMARK    3  A    between atoms: C_3  and  S_4
REMARK    4  A    between atoms: S_4  and  C_5
REMARK    5  A    between atoms: C_9  and  C_10
REMARK    6  A    between atoms: C_12  and  N_13
REMARK    7  A    between atoms: N_13  and  C_14
REMARK                            x       y       z     vdW  Elec       q    Type
REMARK                         _______ _______ _______ _____ _____    ______ ____
ROOT
ATOM      1  C   UNL     1       6.520   4.026  13.669  0.00  0.00    +0.000 A 
ATOM      2  N   UNL     1       7.238   5.144  13.969  0.00  0.00    +0.000 NA
ATOM      3  C   UNL     1       7.060   5.297  15.268  0.00  0.00    +0.000 A 
ATOM      4  N   UNL     1       7.569   6.251  16.079  0.00  0.00    +0.000 NA
ATOM      5  C   UNL     1       7.246   6.162  17.336  0.00  0.00    +0.000 A 
ATOM      6  C   UNL     1       7.774   7.192  18.300  0.00  0.00    +0.000 C 
ATOM      7  C   UNL     1       6.378   5.103  17.930  0.00  0.00    +0.000 A 
ATOM      8  C   UNL     1       5.865   4.179  17.091  0.00  0.00    +0.000 A 
ATOM      9  N   UNL     1       6.218   4.265  15.726  0.00  0.00    +0.000 N 
ATOM     10  N   UNL     1       5.890   3.445  14.690  0.00  0.00    +0.000 NA
ENDROOT
BRANCH   8  11
ATOM     11  N   UNL     1       4.999   3.178  17.527  0.00  0.00    +0.000 N 
ATOM     12  H   UNL     1       5.446   2.282  17.734  0.00  0.00    +0.000 HD
BRANCH  11  13
ATOM     13  C   UNL     1       3.827   3.424  18.278  0.00  0.00    +0.000 A 
ATOM     14  C   UNL     1       2.720   4.025  17.663  0.00  0.00    +0.000 A 
ATOM     15  C   UNL     1       1.613   4.435  18.417  0.00  0.00    +0.000 A 
ATOM     16  C   UNL     1       1.595   4.205  19.787  0.00  0.00    +0.000 A 
ATOM     17  F   UNL     1       0.548   4.613  20.514  0.00  0.00    +0.000 F 
ATOM     18  C   UNL     1       2.658   3.568  20.412  0.00  0.00    +0.000 A 
ATOM     19  C   UNL     1       3.769   3.183  19.661  0.00  0.00    +0.000 A 
ENDBRANCH  11  13
ENDBRANCH   8  11
BRANCH   1  20
ATOM     20  S   UNL     1       6.372   3.430  12.035  0.00  0.00    +0.000 S 
BRANCH  20  21
ATOM     21  C   UNL     1       4.565   3.203  11.914  0.00  0.00    +0.000 C 
BRANCH  21  23
ATOM     22  C   UNL     1       2.864   3.191  10.044  0.00  0.00    +0.000 C 
ATOM     23  C   UNL     1       4.044   3.923  10.669  0.00  0.00    +0.000 C 
ENDBRANCH  21  23
ENDBRANCH  20  21
ENDBRANCH   1  20
TORSDOF 5
ENDMDL
MODEL 5
REMARK VINA RESULT:      -8.0      1.451      1.818
REMARK  Name = 
REMARK  7 active torsions:
REMARK  status: ('A' for Active; 'I' for Inactive)
REMARK    1  A    between atoms: C_1  and  C_2
REMARK    2  A    between atoms: C_2  and  C_3
REMARK    3  A    between atoms: C_3  and  S_4
REMARK    4  A    between atoms: S_4  and  C_5
REMARK    5  A    between atoms: C_9  and  C_10
REMARK    6  A    between atoms: C_12  and  N_13
REMARK    7  A    between atoms: N_13  and  C_14
REMARK                            x       y       z     vdW  Elec       q    Type
REMARK                         _______ _______ _______ _____ _____    ______ ____
ROOT
ATOM      1  C   UNL     1       6.578   4.349  14.012  0.00  0.00    +0.000 A 
ATOM      2  N   UNL     1       7.572   4.863  14.787  0.00  0.00    +0.000 NA
ATOM      3  C   UNL     1       7.043   4.905  15.997  0.00  0.00    +0.000 A 
ATOM      4  N   UNL     1       7.614   5.321  17.149  0.00  0.00    +0.000 NA
ATOM      5  C   UNL     1       6.869   5.244  18.213  0.00  0.00    +0.000 A 
ATOM      6  C   UNL     1       7.438   5.693  19.535  0.00  0.00    +0.000 C 
ATOM      7  C   UNL     1       5.466   4.737  18.249  0.00  0.00    +0.000 A 
ATOM      8  C   UNL     1       4.916   4.351  17.078  0.00  0.00    +0.000 A 
ATOM      9  N   UNL     1       5.722   4.425  15.920  0.00  0.00    +0.000 N 
ATOM     10  N   UNL     1       5.438   4.056  14.641  0.00  0.00    +0.000 NA
ENDROOT
BRANCH   8  11
ATOM     11  N   UNL     1       3.597   3.913  16.986  0.00  0.00    +0.000 N 
ATOM     12  H   UNL     1       3.375   3.392  16.135  0.00  0.00    +0.000 HD
BRANCH  11  13
ATOM     13  C   UNL     1       2.806   3.557  18.103  0.00  0.00    +0.000 A 
ATOM     14  C   UNL     1       1.983   4.517  18.706  0.00  0.00    +0.000 A 
ATOM     15  C   UNL     1       1.320   4.243  19.910  0.00  0.00    +0.000 A 
ATOM     16  C   UNL     1       1.450   2.988  20.491  0.00  0.00    +0.000 A 
ATOM     17  F   UNL     1       0.836   2.727  21.652  0.00  0.00    +0.000 F 
ATOM     18  C   UNL     1       2.221   2.004  19.887  0.00  0.00    +0.000 A 
ATOM     19  C   UNL     1       2.897   2.290  18.701  0.00  0.00    +0.000 A 
ENDBRANCH  11  13
ENDBRANCH   8  11
BRANCH   1  20
ATOM     20  S   UNL     1       6.754   4.155  12.286  0.00  0.00    +0.000 S 
BRANCH  20  21
ATOM     21  C   UNL     1       5.295   3.126  11.905  0.00  0.00    +0.000 C 
BRANCH  21  23
ATOM     22  C   UNL     1       7.211   1.760  10.979  0.00  0.00    +0.000 C 
ATOM     23  C   UNL     1       5.756   1.748  11.427  0.00  0.00    +0.000 C 
ENDBRANCH  21  23
ENDBRANCH  20  21
ENDBRANCH   1  20
TORSDOF 5
ENDMDL
MODEL 6
REMARK VINA RESULT:      -8.0      1.189      1.456
REMARK  Name = 
REMARK  7 active torsions:
REMARK  status: ('A' for Active; 'I' for Inactive)
REMARK    1  A    between atoms: C_1  and  C_2
REMARK    2  A    between atoms: C_2  and  C_3
REMARK    3  A    between atoms: C_3  and  S_4
REMARK    4  A    between atoms: S_4  and  C_5
REMARK    5  A    between atoms: C_9  and  C_10
REMARK    6  A    between atoms: C_12  and  N_13
REMARK    7  A    between atoms: N_13  and  C_14
REMARK                            x       y       z     vdW  Elec       q    Type
REMARK                         _______ _______ _______ _____ _____    ______ ____
ROOT
ATOM      1  C   UNL     1       6.603   4.332  14.037  0.00  0.00    +0.000 A 
ATOM      2  N   UNL     1       7.619   4.789  14.819  0.00  0.00    +0.000 NA
ATOM      3  C   UNL     1       7.081   4.875  16.022  0.00  0.00    +0.000 A 
ATOM      4  N   UNL     1       7.664   5.264  17.177  0.00  0.00    +0.000 NA
ATOM      5  C   UNL     1       6.905   5.243  18.233  0.00  0.00    +0.000 A 
ATOM      6  C   UNL     1       7.485   5.667  19.558  0.00  0.00    +0.000 C 
ATOM      7  C   UNL     1       5.472   4.824  18.258  0.00  0.00    +0.000 A 
ATOM      8  C   UNL     1       4.912   4.463  17.084  0.00  0.00    +0.000 A 
ATOM      9  N   UNL     1       5.733   4.477  15.934  0.00  0.00    +0.000 N 
ATOM     10  N   UNL     1       5.441   4.115  14.655  0.00  0.00    +0.000 NA
ENDROOT
BRANCH   8  11
ATOM     11  N   UNL     1       3.569   4.107  16.980  0.00  0.00    +0.000 N 
ATOM     12  H   UNL     1       3.305   3.677  16.091  0.00  0.00    +0.000 HD
BRANCH  11  13
ATOM     13  C   UNL     1       2.777   3.695  18.076  0.00  0.00    +0.000 A 
ATOM     14  C   UNL     1       1.992   4.635  18.758  0.00  0.00    +0.000 A 
ATOM     15  C   UNL     1       1.332   4.294  19.946  0.00  0.00    +0.000 A 
ATOM     16  C   UNL     1       1.425   2.997  20.432  0.00  0.00    +0.000 A 
ATOM     17  F   UNL     1       0.813   2.671  21.578  0.00  0.00    +0.000 F 
ATOM     18  C   UNL     1       2.157   2.035  19.749  0.00  0.00    +0.000 A 
ATOM     19  C   UNL     1       2.832   2.386  18.579  0.00  0.00    +0.000 A 
ENDBRANCH  11  13
ENDBRANCH   8  11
BRANCH   1  20
ATOM     20  S   UNL     1       6.785   4.112  12.314  0.00  0.00    +0.000 S 
BRANCH  20  21
ATOM     21  C   UNL     1       5.428   2.941  11.971  0.00  0.00    +0.000 C 
BRANCH  21  23
ATOM     22  C   UNL     1       3.375   2.961  10.495  0.00  0.00    +0.000 C 
ATOM     23  C   UNL     1       4.182   3.718  11.542  0.00  0.00    +0.000 C 
ENDBRANCH  21  23
ENDBRANCH  20  21
ENDBRANCH   1  20
TORSDOF 5
ENDMDL
MODEL 7
REMARK VINA RESULT:      -7.9      1.138      1.279
REMARK  Name = 
REMARK  7 active torsions:
REMARK  status: ('A' for Active; 'I' for Inactive)
REMARK    1  A    between atoms: C_1  and  C_2
REMARK    2  A    between atoms: C_2  and  C_3
REMARK    3  A    between atoms: C_3  and  S_4
REMARK    4  A    between atoms: S_4  and  C_5
REMARK    5  A    between atoms: C_9  and  C_10
REMARK    6  A    between atoms: C_12  and  N_13
REMARK    7  A    between atoms: N_13  and  C_14
REMARK                            x       y       z     vdW  Elec       q    Type
REMARK                         _______ _______ _______ _____ _____    ______ ____
ROOT
ATOM      1  C   UNL     1       6.257   4.059  14.199  0.00  0.00    +0.000 A 
ATOM      2  N   UNL     1       7.398   4.493  14.801  0.00  0.00    +0.000 NA
ATOM      3  C   UNL     1       7.021   4.770  16.036  0.00  0.00    +0.000 A 
ATOM      4  N   UNL     1       7.773   5.224  17.062  0.00  0.00    +0.000 NA
ATOM      5  C   UNL     1       7.150   5.402  18.190  0.00  0.00    +0.000 A 
ATOM      6  C   UNL     1       7.924   5.910  19.379  0.00  0.00    +0.000 C 
ATOM      7  C   UNL     1       5.700   5.141  18.425  0.00  0.00    +0.000 A 
ATOM      8  C   UNL     1       4.970   4.710  17.374  0.00  0.00    +0.000 A 
ATOM      9  N   UNL     1       5.642   4.508  16.148  0.00  0.00    +0.000 N 
ATOM     10  N   UNL     1       5.164   4.036  14.964  0.00  0.00    +0.000 NA
ENDROOT
BRANCH   8  11
ATOM     11  N   UNL     1       3.597   4.487  17.464  0.00  0.00    +0.000 N 
ATOM     12  H   UNL     1       3.158   4.152  16.604  0.00  0.00    +0.000 HD
BRANCH  11  13
ATOM     13  C   UNL     1       2.944   4.066  18.646  0.00  0.00    +0.000 A 
ATOM     14  C   UNL     1       3.025   2.724  19.044  0.00  0.00    +0.000 A 
ATOM     15  C   UNL     1       2.253   2.243  20.110  0.00  0.00    +0.000 A 
ATOM     16  C   UNL     1       1.429   3.118  20.807  0.00  0.00    +0.000 A 
ATOM     17  F   UNL     1       0.675   2.659  21.814  0.00  0.00    +0.000 F 
ATOM     18  C   UNL     1       1.369   4.461  20.463  0.00  0.00    +0.000 A 
ATOM     19  C   UNL     1       2.121   4.930  19.385  0.00  0.00    +0.000 A 
ENDBRANCH  11  13
ENDBRANCH   8  11
BRANCH   1  20
ATOM     20  S   UNL     1       6.207   3.628  12.508  0.00  0.00    +0.000 S 
BRANCH  20  21
ATOM     21  C   UNL     1       4.405   3.541  12.228  0.00  0.00    +0.000 C 
BRANCH  21  23
ATOM     22  C   UNL     1       3.175   3.917  10.051  0.00  0.00    +0.000 C 
ATOM     23  C   UNL     1       4.134   3.015  10.818  0.00  0.00    +0.000 C 
ENDBRANCH  21  23
ENDBRANCH  20  21
ENDBRANCH   1  20
TORSDOF 5
ENDMDL
MODEL 8
REMARK VINA RESULT:      -7.8      1.391      1.627
REMARK  Name = 
REMARK  7 active torsions:
REMARK  status: ('A' for Active; 'I' for Inactive)
REMARK    1  A    between atoms: C_1  and  C_2
REMARK    2  A    between atoms: C_2  and  C_3
REMARK    3  A    between atoms: C_3  and  S_4
REMARK    4  A    between atoms: S_4  and  C_5
REMARK    5  A    between atoms: C_9  and  C_10
REMARK    6  A    between atoms: C_12  and  N_13
REMARK    7  A    between atoms: N_13  and  C_14
REMARK                            x       y       z     vdW  Elec       q    Type
REMARK                         _______ _______ _______ _____ _____    ______ ____
ROOT
ATOM      1  C   UNL     1       6.564   4.408  13.949  0.00  0.00    +0.000 A 
ATOM      2  N   UNL     1       7.600   4.953  14.644  0.00  0.00    +0.000 NA
ATOM      3  C   UNL     1       7.146   5.033  15.882  0.00  0.00    +0.000 A 
ATOM      4  N   UNL     1       7.784   5.490  16.982  0.00  0.00    +0.000 NA
ATOM      5  C   UNL     1       7.107   5.445  18.092  0.00  0.00    +0.000 A 
ATOM      6  C   UNL     1       7.752   5.940  19.361  0.00  0.00    +0.000 C 
ATOM      7  C   UNL     1       5.712   4.931  18.232  0.00  0.00    +0.000 A 
ATOM      8  C   UNL     1       5.094   4.503  17.110  0.00  0.00    +0.000 A 
ATOM      9  N   UNL     1       5.826   4.543  15.903  0.00  0.00    +0.000 N 
ATOM     10  N   UNL     1       5.468   4.130  14.656  0.00  0.00    +0.000 NA
ENDROOT
BRANCH   8  11
ATOM     11  N   UNL     1       3.775   4.055  17.114  0.00  0.00    +0.000 N 
ATOM     12  H   UNL     1       3.514   3.481  16.310  0.00  0.00    +0.000 HD
BRANCH  11  13
ATOM     13  C   UNL     1       3.045   3.766  18.290  0.00  0.00    +0.000 A 
ATOM     14  C   UNL     1       3.182   2.513  18.903  0.00  0.00    +0.000 A 
ATOM     15  C   UNL     1       2.349   2.138  19.965  0.00  0.00    +0.000 A 
ATOM     16  C   UNL     1       1.404   3.036  20.444  0.00  0.00    +0.000 A 
ATOM     17  F   UNL     1       0.593   2.675  21.446  0.00  0.00    +0.000 F 
ATOM     18  C   UNL     1       1.282   4.301  19.886  0.00  0.00    +0.000 A 
ATOM     19  C   UNL     1       2.098   4.661  18.812  0.00  0.00    +0.000 A 
ENDBRANCH  11  13
ENDBRANCH   8  11
BRANCH   1  20
ATOM     20  S   UNL     1       6.635   4.158  12.223  0.00  0.00    +0.000 S 
BRANCH  20  21
ATOM     21  C   UNL     1       5.240   3.005  11.985  0.00  0.00    +0.000 C 
BRANCH  21  23
ATOM     22  C   UNL     1       7.239   1.778  11.042  0.00  0.00    +0.000 C 
ATOM     23  C   UNL     1       5.756   1.699  11.380  0.00  0.00    +0.000 C 
ENDBRANCH  21  23
ENDBRANCH  20  21
ENDBRANCH   1  20
TORSDOF 5
ENDMDL
MODEL 9
REMARK VINA RESULT:      -7.8      3.689      6.145
REMARK  Name = 
REMARK  7 active torsions:
REMARK  status: ('A' for Active; 'I' for Inactive)
REMARK    1  A    between atoms: C_1  and  C_2
REMARK    2  A    between atoms: C_2  and  C_3
REMARK    3  A    between atoms: C_3  and  S_4
REMARK    4  A    between atoms: S_4  and  C_5
REMARK    5  A    between atoms: C_9  and  C_10
REMARK    6  A    between atoms: C_12  and  N_13
REMARK    7  A    between atoms: N_13  and  C_14
REMARK                            x       y       z     vdW  Elec       q    Type
REMARK                         _______ _______ _______ _____ _____    ______ ____
ROOT
ATOM      1  C   UNL     1       5.467   5.075  17.385  0.00  0.00    +0.000 A 
ATOM      2  N   UNL     1       4.868   3.892  17.077  0.00  0.00    +0.000 NA
ATOM      3  C   UNL     1       3.767   3.894  17.806  0.00  0.00    +0.000 A 
ATOM      4  N   UNL     1       2.798   2.954  17.867  0.00  0.00    +0.000 NA
ATOM      5  C   UNL     1       1.803   3.213  18.665  0.00  0.00    +0.000 A 
ATOM      6  C   UNL     1       0.686   2.209  18.786  0.00  0.00    +0.000 C 
ATOM      7  C   UNL     1       1.659   4.447  19.491  0.00  0.00    +0.000 A 
ATOM      8  C   UNL     1       2.654   5.357  19.426  0.00  0.00    +0.000 A 
ATOM      9  N   UNL     1       3.734   5.085  18.557  0.00  0.00    +0.000 N 
ATOM     10  N   UNL     1       4.826   5.844  18.266  0.00  0.00    +0.000 NA
ENDROOT
BRANCH   8  11
ATOM     11  N   UNL     1       2.650   6.519  20.195  0.00  0.00    +0.000 N 
ATOM     12  H   UNL     1       3.466   6.637  20.800  0.00  0.00    +0.000 HD
BRANCH  11  13
ATOM     13  C   UNL     1       2.058   7.734  19.781  0.00  0.00    +0.000 A 
ATOM     14  C   UNL     1       1.245   8.449  20.671  0.00  0.00    +0.000 A 
ATOM     15  C   UNL     1       0.512   9.562  20.239  0.00  0.00    +0.000 A 
ATOM     16  C   UNL     1       0.624   9.985  18.920  0.00  0.00    +0.000 A 
ATOM     17  F   UNL     1      -0.090  11.036  18.497  0.00  0.00    +0.000 F 
ATOM     18  C   UNL     1       1.461   9.323  18.033  0.00  0.00    +0.000 A 
ATOM     19  C   UNL     1       2.171   8.201  18.462  0.00  0.00    +0.000 A 
ENDBRANCH  11  13
ENDBRANCH   8  11
BRANCH   1  20
ATOM     20  S   UNL     1       7.018   5.528  16.724  0.00  0.00    +0.000 S 
BRANCH  20  21
ATOM     21  C   UNL     1       7.624   6.666  18.016  0.00  0.00    +0.000 C 
BRANCH  21  23
ATOM     22  C   UNL     1       8.481   9.027  18.306  0.00  0.00    +0.000 C 
ATOM     23  C   UNL     1       7.592   8.101  17.486  0.00  0.00    +0.000 C 
ENDBRANCH  21  23
ENDBRANCH  20  21
ENDBRANCH   1  20
TORSDOF 5
ENDMDL
