MODEL 1
REMARK VINA RESULT:      -5.6      0.000      0.000
REMARK  Name = 
REMARK  13 active torsions:
REMARK  status: ('A' for Active; 'I' for Inactive)
REMARK    1  A    between atoms: C_1  and  C_2
REMARK    2  A    between atoms: C_2  and  N_3
REMARK    3  A    between atoms: N_3  and  C_4
REMARK    4  A    between atoms: N_3  and  C_9
REMARK    5  A    between atoms: C_4  and  C_5
REMARK    6  A    between atoms: C_5  and  C_6
REMARK    7  A    between atoms: C_6  and  C_7
REMARK    8  A    between atoms: C_7  and  O_8
REMARK    9  A    between atoms: C_9  and  C_10
REMARK   10  A    between atoms: C_10  and  O_11
REMARK   11  A    between atoms: O_11  and  C_12
REMARK   12  A    between atoms: C_15  and  O_16
REMARK   13  A    between atoms: O_16  and  C_17
REMARK                            x       y       z     vdW  Elec       q    Type
REMARK                         _______ _______ _______ _____ _____    ______ ____
ROOT
ATOM      1  C   UNL     1       3.851   5.674  19.517  0.00  0.00    +0.000 C 
ENDROOT
BRANCH   1   2
ATOM      2  N   UNL     1       2.914   4.522  19.561  0.00  0.00    +0.000 NA
BRANCH   2   4
ATOM      3  C   UNL     1       1.622   3.224  21.327  0.00  0.00    +0.000 C 
ATOM      4  C   UNL     1       2.101   4.572  20.795  0.00  0.00    +0.000 C 
ENDBRANCH   2   4
BRANCH   2   5
ATOM      5  C   UNL     1       2.074   4.494  18.347  0.00  0.00    +0.000 C 
BRANCH   5   6
ATOM      6  C   UNL     1       2.551   3.527  17.244  0.00  0.00    +0.000 C 
BRANCH   6   7
ATOM      7  C   UNL     1       3.744   2.646  17.625  0.00  0.00    +0.000 C 
BRANCH   7   8
ATOM      8  C   UNL     1       3.345   1.432  18.455  0.00  0.00    +0.000 C 
BRANCH   8   9
ATOM      9  O   UNL     1       4.442   0.537  18.577  0.00  0.00    +0.000 OA
ATOM     10  H   UNL     1       4.464   0.223  19.497  0.00  0.00    +0.000 HD
ENDBRANCH   8   9
ENDBRANCH   7   8
ENDBRANCH   6   7
ENDBRANCH   5   6
ENDBRANCH   2   5
ENDBRANCH   1   2
BRANCH   1  11
ATOM     11  C   UNL     1       5.341   5.300  19.439  0.00  0.00    +0.000 C 
BRANCH  11  12
ATOM     12  O   UNL     1       5.986   6.184  18.516  0.00  0.00    +0.000 OA
BRANCH  12  13
ATOM     13  C   UNL     1       6.043   5.745  17.221  0.00  0.00    +0.000 A 
ATOM     14  C   UNL     1       7.015   4.780  16.965  0.00  0.00    +0.000 A 
ATOM     15  C   UNL     1       7.166   4.263  15.678  0.00  0.00    +0.000 A 
ATOM     16  C   UNL     1       6.326   4.674  14.646  0.00  0.00    +0.000 A 
ATOM     17  C   UNL     1       5.347   5.633  14.901  0.00  0.00    +0.000 A 
ATOM     18  C   UNL     1       5.204   6.170  16.186  0.00  0.00    +0.000 A 
BRANCH  16  19
ATOM     19  O   UNL     1       6.573   4.108  13.425  0.00  0.00    +0.000 OA
ATOM     20  C   UNL     1       5.451   3.497  12.798  0.00  0.00    +0.000 C 
ENDBRANCH  16  19
ENDBRANCH  12  13
ENDBRANCH  11  12
ENDBRANCH   1  11
TORSDOF 11
ENDMDL
MODEL 2
REMARK VINA RESULT:      -5.5      2.370      6.078
REMARK  Name = 
REMARK  13 active torsions:
REMARK  status: ('A' for Active; 'I' for Inactive)
REMARK    1  A    between atoms: C_1  and  C_2
REMARK    2  A    between atoms: C_2  and  N_3
REMARK    3  A    between atoms: N_3  and  C_4
REMARK    4  A    between atoms: N_3  and  C_9
REMARK    5  A    between atoms: C_4  and  C_5
REMARK    6  A    between atoms: C_5  and  C_6
REMARK    7  A    between atoms: C_6  and  C_7
REMARK    8  A    between atoms: C_7  and  O_8
REMARK    9  A    between atoms: C_9  and  C_10
REMARK   10  A    between atoms: C_10  and  O_11
REMARK   11  A    between atoms: O_11  and  C_12
REMARK   12  A    between atoms: C_15  and  O_16
REMARK   13  A    between atoms: O_16  and  C_17
REMARK                            x       y       z     vdW  Elec       q    Type
REMARK                         _______ _______ _______ _____ _____    ______ ____
ROOT
ATOM      1  C   UNL     1       5.316   6.272  15.927  0.00  0.00    +0.000 C 
ENDROOT
BRANCH   1   2
ATOM      2  N   UNL     1       6.592   5.523  15.791  0.00  0.00    +0.000 NA
BRANCH   2   4
ATOM      3  C   UNL     1       7.797   4.611  17.838  0.00  0.00    +0.000 C 
ATOM      4  C   UNL     1       6.673   4.460  16.816  0.00  0.00    +0.000 C 
ENDBRANCH   2   4
BRANCH   2   5
ATOM      5  C   UNL     1       6.730   4.983  14.424  0.00  0.00    +0.000 C 
BRANCH   5   6
ATOM      6  C   UNL     1       5.712   3.887  14.048  0.00  0.00    +0.000 C 
BRANCH   6   7
ATOM      7  C   UNL     1       5.475   3.708  12.545  0.00  0.00    +0.000 C 
BRANCH   7   8
ATOM      8  C   UNL     1       6.514   2.813  11.883  0.00  0.00    +0.000 C 
BRANCH   8   9
ATOM      9  O   UNL     1       5.967   1.525  11.634  0.00  0.00    +0.000 OA
ATOM     10  H   UNL     1       5.119   1.650  11.173  0.00  0.00    +0.000 HD
ENDBRANCH   8   9
ENDBRANCH   7   8
ENDBRANCH   6   7
ENDBRANCH   5   6
ENDBRANCH   2   5
ENDBRANCH   1   2
BRANCH   1  11
ATOM     11  C   UNL     1       5.014   6.797  17.341  0.00  0.00    +0.000 C 
BRANCH  11  12
ATOM     12  O   UNL     1       3.602   6.996  17.461  0.00  0.00    +0.000 OA
BRANCH  12  13
ATOM     13  C   UNL     1       2.937   6.066  18.215  0.00  0.00    +0.000 A 
ATOM     14  C   UNL     1       2.636   6.463  19.516  0.00  0.00    +0.000 A 
ATOM     15  C   UNL     1       1.964   5.593  20.374  0.00  0.00    +0.000 A 
ATOM     16  C   UNL     1       1.551   4.338  19.933  0.00  0.00    +0.000 A 
ATOM     17  C   UNL     1       1.843   3.942  18.629  0.00  0.00    +0.000 A 
ATOM     18  C   UNL     1       2.535   4.803  17.769  0.00  0.00    +0.000 A 
BRANCH  16  19
ATOM     19  O   UNL     1       0.910   3.568  20.864  0.00  0.00    +0.000 OA
ATOM     20  C   UNL     1       1.728   2.618  21.538  0.00  0.00    +0.000 C 
ENDBRANCH  16  19
ENDBRANCH  12  13
ENDBRANCH  11  12
ENDBRANCH   1  11
TORSDOF 11
ENDMDL
MODEL 3
REMARK VINA RESULT:      -5.5      2.423      6.244
REMARK  Name = 
REMARK  13 active torsions:
REMARK  status: ('A' for Active; 'I' for Inactive)
REMARK    1  A    between atoms: C_1  and  C_2
REMARK    2  A    between atoms: C_2  and  N_3
REMARK    3  A    between atoms: N_3  and  C_4
REMARK    4  A    between atoms: N_3  and  C_9
REMARK    5  A    between atoms: C_4  and  C_5
REMARK    6  A    between atoms: C_5  and  C_6
REMARK    7  A    between atoms: C_6  and  C_7
REMARK    8  A    between atoms: C_7  and  O_8
REMARK    9  A    between atoms: C_9  and  C_10
REMARK   10  A    between atoms: C_10  and  O_11
REMARK   11  A    between atoms: O_11  and  C_12
REMARK   12  A    between atoms: C_15  and  O_16
REMARK   13  A    between atoms: O_16  and  C_17
REMARK                            x       y       z     vdW  Elec       q    Type
REMARK                         _______ _______ _______ _____ _____    ______ ____
ROOT
ATOM      1  C   UNL     1       5.695   6.167  15.709  0.00  0.00    +0.000 C 
ENDROOT
BRANCH   1   2
ATOM      2  N   UNL     1       7.018   5.506  15.564  0.00  0.00    +0.000 NA
BRANCH   2   4
ATOM      3  C   UNL     1       7.777   4.729  17.864  0.00  0.00    +0.000 C 
ATOM      4  C   UNL     1       7.139   4.386  16.521  0.00  0.00    +0.000 C 
ENDBRANCH   2   4
BRANCH   2   5
ATOM      5  C   UNL     1       7.224   5.067  14.169  0.00  0.00    +0.000 C 
BRANCH   5   6
ATOM      6  C   UNL     1       6.266   3.959  13.685  0.00  0.00    +0.000 C 
BRANCH   6   7
ATOM      7  C   UNL     1       6.468   3.515  12.233  0.00  0.00    +0.000 C 
BRANCH   7   8
ATOM      8  C   UNL     1       5.396   2.544  11.755  0.00  0.00    +0.000 C 
BRANCH   8   9
ATOM      9  O   UNL     1       5.977   1.286  11.436  0.00  0.00    +0.000 OA
ATOM     10  H   UNL     1       6.511   1.008  12.201  0.00  0.00    +0.000 HD
ENDBRANCH   8   9
ENDBRANCH   7   8
ENDBRANCH   6   7
ENDBRANCH   5   6
ENDBRANCH   2   5
ENDBRANCH   1   2
BRANCH   1  11
ATOM     11  C   UNL     1       4.655   5.373  16.518  0.00  0.00    +0.000 C 
BRANCH  11  12
ATOM     12  O   UNL     1       3.877   6.294  17.290  0.00  0.00    +0.000 OA
BRANCH  12  13
ATOM     13  C   UNL     1       3.129   5.738  18.293  0.00  0.00    +0.000 A 
ATOM     14  C   UNL     1       2.789   4.400  18.106  0.00  0.00    +0.000 A 
ATOM     15  C   UNL     1       2.025   3.732  19.063  0.00  0.00    +0.000 A 
ATOM     16  C   UNL     1       1.627   4.380  20.230  0.00  0.00    +0.000 A 
ATOM     17  C   UNL     1       1.973   5.716  20.424  0.00  0.00    +0.000 A 
ATOM     18  C   UNL     1       2.723   6.397  19.457  0.00  0.00    +0.000 A 
BRANCH  16  19
ATOM     19  O   UNL     1       0.873   3.629  21.091  0.00  0.00    +0.000 OA
ATOM     20  C   UNL     1       1.536   2.507  21.663  0.00  0.00    +0.000 C 
ENDBRANCH  16  19
ENDBRANCH  12  13
ENDBRANCH  11  12
ENDBRANCH   1  11
TORSDOF 11
ENDMDL
MODEL 4
REMARK VINA RESULT:      -5.3      2.406      4.438
REMARK  Name = 
REMARK  13 active torsions:
REMARK  status: ('A' for Active; 'I' for Inactive)
REMARK    1  A    between atoms: C_1  and  C_2
REMARK    2  A    between atoms: C_2  and  N_3
REMARK    3  A    between atoms: N_3  and  C_4
REMARK    4  A    between atoms: N_3  and  C_9
REMARK    5  A    between atoms: C_4  and  C_5
REMARK    6  A    between atoms: C_5  and  C_6
REMARK    7  A    between atoms: C_6  and  C_7
REMARK    8  A    between atoms: C_7  and  O_8
REMARK    9  A    between atoms: C_9  and  C_10
REMARK   10  A    between atoms: C_10  and  O_11
REMARK   11  A    between atoms: O_11  and  C_12
REMARK   12  A    between atoms: C_15  and  O_16
REMARK   13  A    between atoms: O_16  and  C_17
REMARK                            x       y       z     vdW  Elec       q    Type
REMARK                         _______ _______ _______ _____ _____    ______ ____
ROOT
ATOM      1  C   UNL     1       1.892   4.313  18.494  0.00  0.00    +0.000 C 
ENDROOT
BRANCH   1   2
ATOM      2  N   UNL     1       1.694   4.578  19.942  0.00  0.00    +0.000 NA
BRANCH   2   4
ATOM      3  C   UNL     1       1.590   2.653  21.602  0.00  0.00    +0.000 C 
ATOM      4  C   UNL     1       2.441   3.591  20.751  0.00  0.00    +0.000 C 
ENDBRANCH   2   4
BRANCH   2   5
ATOM      5  C   UNL     1       2.080   5.966  20.269  0.00  0.00    +0.000 C 
BRANCH   5   6
ATOM      6  C   UNL     1       2.543   6.816  19.069  0.00  0.00    +0.000 C 
BRANCH   6   7
ATOM      7  C   UNL     1       1.961   8.232  19.013  0.00  0.00    +0.000 C 
BRANCH   7   8
ATOM      8  C   UNL     1       2.404   9.006  17.778  0.00  0.00    +0.000 C 
BRANCH   8   9
ATOM      9  O   UNL     1       1.505  10.077  17.520  0.00  0.00    +0.000 OA
ATOM     10  H   UNL     1       2.038  10.860  17.295  0.00  0.00    +0.000 HD
ENDBRANCH   8   9
ENDBRANCH   7   8
ENDBRANCH   6   7
ENDBRANCH   5   6
ENDBRANCH   2   5
ENDBRANCH   1   2
BRANCH   1  11
ATOM     11  C   UNL     1       2.946   3.242  18.165  0.00  0.00    +0.000 C 
BRANCH  11  12
ATOM     12  O   UNL     1       3.663   3.651  16.996  0.00  0.00    +0.000 OA
BRANCH  12  13
ATOM     13  C   UNL     1       4.664   4.561  17.207  0.00  0.00    +0.000 A 
ATOM     14  C   UNL     1       5.452   4.324  18.331  0.00  0.00    +0.000 A 
ATOM     15  C   UNL     1       6.500   5.190  18.646  0.00  0.00    +0.000 A 
ATOM     16  C   UNL     1       6.795   6.275  17.824  0.00  0.00    +0.000 A 
ATOM     17  C   UNL     1       6.013   6.509  16.694  0.00  0.00    +0.000 A 
ATOM     18  C   UNL     1       4.949   5.655  16.384  0.00  0.00    +0.000 A 
BRANCH  16  19
ATOM     19  O   UNL     1       7.836   7.060  18.237  0.00  0.00    +0.000 OA
ATOM     20  C   UNL     1       7.855   8.380  17.704  0.00  0.00    +0.000 C 
ENDBRANCH  16  19
ENDBRANCH  12  13
ENDBRANCH  11  12
ENDBRANCH   1  11
TORSDOF 11
ENDMDL
MODEL 5
REMARK VINA RESULT:      -5.3      2.114      5.866
REMARK  Name = 
REMARK  13 active torsions:
REMARK  status: ('A' for Active; 'I' for Inactive)
REMARK    1  A    between atoms: C_1  and  C_2
REMARK    2  A    between atoms: C_2  and  N_3
REMARK    3  A    between atoms: N_3  and  C_4
REMARK    4  A    between atoms: N_3  and  C_9
REMARK    5  A    between atoms: C_4  and  C_5
REMARK    6  A    between atoms: C_5  and  C_6
REMARK    7  A    between atoms: C_6  and  C_7
REMARK    8  A    between atoms: C_7  and  O_8
REMARK    9  A    between atoms: C_9  and  C_10
REMARK   10  A    between atoms: C_10  and  O_11
REMARK   11  A    between atoms: O_11  and  C_12
REMARK   12  A    between atoms: C_15  and  O_16
REMARK   13  A    between atoms: O_16  and  C_17
REMARK                            x       y       z     vdW  Elec       q    Type
REMARK                         _______ _______ _______ _____ _____    ______ ____
ROOT
ATOM      1  C   UNL     1       5.399   6.576  15.832  0.00  0.00    +0.000 C 
ENDROOT
BRANCH   1   2
ATOM      2  N   UNL     1       6.812   6.122  15.906  0.00  0.00    +0.000 NA
BRANCH   2   4
ATOM      3  C   UNL     1       7.718   4.730  17.833  0.00  0.00    +0.000 C 
ATOM      4  C   UNL     1       7.266   6.092  17.313  0.00  0.00    +0.000 C 
ENDBRANCH   2   4
BRANCH   2   5
ATOM      5  C   UNL     1       6.967   4.810  15.247  0.00  0.00    +0.000 C 
BRANCH   5   6
ATOM      6  C   UNL     1       5.647   4.081  14.924  0.00  0.00    +0.000 C 
BRANCH   6   7
ATOM      7  C   UNL     1       5.276   4.038  13.438  0.00  0.00    +0.000 C 
BRANCH   7   8
ATOM      8  C   UNL     1       6.465   3.722  12.539  0.00  0.00    +0.000 C 
BRANCH   8   9
ATOM      9  O   UNL     1       6.374   2.389  12.053  0.00  0.00    +0.000 OA
ATOM     10  H   UNL     1       5.464   2.253  11.737  0.00  0.00    +0.000 HD
ENDBRANCH   8   9
ENDBRANCH   7   8
ENDBRANCH   6   7
ENDBRANCH   5   6
ENDBRANCH   2   5
ENDBRANCH   1   2
BRANCH   1  11
ATOM     11  C   UNL     1       4.778   7.001  17.173  0.00  0.00    +0.000 C 
BRANCH  11  12
ATOM     12  O   UNL     1       3.427   6.532  17.219  0.00  0.00    +0.000 OA
BRANCH  12  13
ATOM     13  C   UNL     1       3.203   5.459  18.040  0.00  0.00    +0.000 A 
ATOM     14  C   UNL     1       1.871   5.066  18.149  0.00  0.00    +0.000 A 
ATOM     15  C   UNL     1       1.525   3.986  18.961  0.00  0.00    +0.000 A 
ATOM     16  C   UNL     1       2.506   3.266  19.640  0.00  0.00    +0.000 A 
ATOM     17  C   UNL     1       3.840   3.653  19.525  0.00  0.00    +0.000 A 
ATOM     18  C   UNL     1       4.190   4.748  18.727  0.00  0.00    +0.000 A 
BRANCH  16  19
ATOM     19  O   UNL     1       2.049   2.235  20.414  0.00  0.00    +0.000 OA
ATOM     20  C   UNL     1       1.464   2.615  21.654  0.00  0.00    +0.000 C 
ENDBRANCH  16  19
ENDBRANCH  12  13
ENDBRANCH  11  12
ENDBRANCH   1  11
TORSDOF 11
ENDMDL
MODEL 6
REMARK VINA RESULT:      -5.2      2.604      5.752
REMARK  Name = 
REMARK  13 active torsions:
REMARK  status: ('A' for Active; 'I' for Inactive)
REMARK    1  A    between atoms: C_1  and  C_2
REMARK    2  A    between atoms: C_2  and  N_3
REMARK    3  A    between atoms: N_3  and  C_4
REMARK    4  A    between atoms: N_3  and  C_9
REMARK    5  A    between atoms: C_4  and  C_5
REMARK    6  A    between atoms: C_5  and  C_6
REMARK    7  A    between atoms: C_6  and  C_7
REMARK    8  A    between atoms: C_7  and  O_8
REMARK    9  A    between atoms: C_9  and  C_10
REMARK   10  A    between atoms: C_10  and  O_11
REMARK   11  A    between atoms: O_11  and  C_12
REMARK   12  A    between atoms: C_15  and  O_16
REMARK   13  A    between atoms: O_16  and  C_17
REMARK                            x       y       z     vdW  Elec       q    Type
REMARK                         _______ _______ _______ _____ _____    ______ ____
ROOT
ATOM      1  C   UNL     1       5.112   7.266  17.590  0.00  0.00    +0.000 C 
ENDROOT
BRANCH   1   2
ATOM      2  N   UNL     1       6.203   6.946  16.633  0.00  0.00    +0.000 NA
BRANCH   2   4
ATOM      3  C   UNL     1       8.065   8.259  17.764  0.00  0.00    +0.000 C 
ATOM      4  C   UNL     1       7.503   6.906  17.335  0.00  0.00    +0.000 C 
ENDBRANCH   2   4
BRANCH   2   5
ATOM      5  C   UNL     1       5.916   5.679  15.930  0.00  0.00    +0.000 C 
BRANCH   5   6
ATOM      6  C   UNL     1       6.214   4.400  16.738  0.00  0.00    +0.000 C 
BRANCH   6   7
ATOM      7  C   UNL     1       4.993   3.743  17.388  0.00  0.00    +0.000 C 
BRANCH   7   8
ATOM      8  C   UNL     1       5.054   3.752  18.910  0.00  0.00    +0.000 C 
BRANCH   8   9
ATOM      9  O   UNL     1       6.265   4.354  19.351  0.00  0.00    +0.000 OA
ATOM     10  H   UNL     1       6.417   4.069  20.268  0.00  0.00    +0.000 HD
ENDBRANCH   8   9
ENDBRANCH   7   8
ENDBRANCH   6   7
ENDBRANCH   5   6
ENDBRANCH   2   5
ENDBRANCH   1   2
BRANCH   1  11
ATOM     11  C   UNL     1       3.696   7.266  16.988  0.00  0.00    +0.000 C 
BRANCH  11  12
ATOM     12  O   UNL     1       2.747   7.365  18.055  0.00  0.00    +0.000 OA
BRANCH  12  13
ATOM     13  C   UNL     1       2.294   6.172  18.553  0.00  0.00    +0.000 A 
ATOM     14  C   UNL     1       2.319   6.064  19.942  0.00  0.00    +0.000 A 
ATOM     15  C   UNL     1       1.884   4.891  20.559  0.00  0.00    +0.000 A 
ATOM     16  C   UNL     1       1.384   3.833  19.802  0.00  0.00    +0.000 A 
ATOM     17  C   UNL     1       1.351   3.944  18.413  0.00  0.00    +0.000 A 
ATOM     18  C   UNL     1       1.804   5.111  17.787  0.00  0.00    +0.000 A 
BRANCH  16  19
ATOM     19  O   UNL     1       0.997   2.731  20.513  0.00  0.00    +0.000 OA
ATOM     20  C   UNL     1       1.618   2.576  21.785  0.00  0.00    +0.000 C 
ENDBRANCH  16  19
ENDBRANCH  12  13
ENDBRANCH  11  12
ENDBRANCH   1  11
TORSDOF 11
ENDMDL
MODEL 7
REMARK VINA RESULT:      -5.2      2.197      4.313
REMARK  Name = 
REMARK  13 active torsions:
REMARK  status: ('A' for Active; 'I' for Inactive)
REMARK    1  A    between atoms: C_1  and  C_2
REMARK    2  A    between atoms: C_2  and  N_3
REMARK    3  A    between atoms: N_3  and  C_4
REMARK    4  A    between atoms: N_3  and  C_9
REMARK    5  A    between atoms: C_4  and  C_5
REMARK    6  A    between atoms: C_5  and  C_6
REMARK    7  A    between atoms: C_6  and  C_7
REMARK    8  A    between atoms: C_7  and  O_8
REMARK    9  A    between atoms: C_9  and  C_10
REMARK   10  A    between atoms: C_10  and  O_11
REMARK   11  A    between atoms: O_11  and  C_12
REMARK   12  A    between atoms: C_15  and  O_16
REMARK   13  A    between atoms: O_16  and  C_17
REMARK                            x       y       z     vdW  Elec       q    Type
REMARK                         _______ _______ _______ _____ _____    ______ ____
ROOT
ATOM      1  C   UNL     1       1.793   4.051  18.352  0.00  0.00    +0.000 C 
ENDROOT
BRANCH   1   2
ATOM      2  N   UNL     1       1.221   4.179  19.718  0.00  0.00    +0.000 NA
BRANCH   2   4
ATOM      3  C   UNL     1       1.688   2.641  21.690  0.00  0.00    +0.000 C 
ATOM      4  C   UNL     1       1.039   2.842  20.323  0.00  0.00    +0.000 C 
ENDBRANCH   2   4
BRANCH   2   5
ATOM      5  C   UNL     1       2.071   5.052  20.553  0.00  0.00    +0.000 C 
BRANCH   5   6
ATOM      6  C   UNL     1       2.133   6.526  20.104  0.00  0.00    +0.000 C 
BRANCH   6   7
ATOM      7  C   UNL     1       1.268   7.491  20.922  0.00  0.00    +0.000 C 
BRANCH   7   8
ATOM      8  C   UNL     1       1.247   8.901  20.348  0.00  0.00    +0.000 C 
BRANCH   8   9
ATOM      9  O   UNL     1       1.622   8.880  18.977  0.00  0.00    +0.000 OA
ATOM     10  H   UNL     1       2.461   9.366  18.895  0.00  0.00    +0.000 HD
ENDBRANCH   8   9
ENDBRANCH   7   8
ENDBRANCH   6   7
ENDBRANCH   5   6
ENDBRANCH   2   5
ENDBRANCH   1   2
BRANCH   1  11
ATOM     11  C   UNL     1       2.518   2.724  18.070  0.00  0.00    +0.000 C 
BRANCH  11  12
ATOM     12  O   UNL     1       3.885   2.857  18.471  0.00  0.00    +0.000 OA
BRANCH  12  13
ATOM     13  C   UNL     1       4.573   3.890  17.892  0.00  0.00    +0.000 A 
ATOM     14  C   UNL     1       5.238   4.730  18.782  0.00  0.00    +0.000 A 
ATOM     15  C   UNL     1       5.968   5.819  18.303  0.00  0.00    +0.000 A 
ATOM     16  C   UNL     1       6.072   6.056  16.934  0.00  0.00    +0.000 A 
ATOM     17  C   UNL     1       5.414   5.212  16.042  0.00  0.00    +0.000 A 
ATOM     18  C   UNL     1       4.664   4.129  16.518  0.00  0.00    +0.000 A 
BRANCH  16  19
ATOM     19  O   UNL     1       6.803   7.157  16.582  0.00  0.00    +0.000 OA
ATOM     20  C   UNL     1       7.700   7.638  17.577  0.00  0.00    +0.000 C 
ENDBRANCH  16  19
ENDBRANCH  12  13
ENDBRANCH  11  12
ENDBRANCH   1  11
TORSDOF 11
ENDMDL
MODEL 8
REMARK VINA RESULT:      -5.2      2.019      3.967
REMARK  Name = 
REMARK  13 active torsions:
REMARK  status: ('A' for Active; 'I' for Inactive)
REMARK    1  A    between atoms: C_1  and  C_2
REMARK    2  A    between atoms: C_2  and  N_3
REMARK    3  A    between atoms: N_3  and  C_4
REMARK    4  A    between atoms: N_3  and  C_9
REMARK    5  A    between atoms: C_4  and  C_5
REMARK    6  A    between atoms: C_5  and  C_6
REMARK    7  A    between atoms: C_6  and  C_7
REMARK    8  A    between atoms: C_7  and  O_8
REMARK    9  A    between atoms: C_9  and  C_10
REMARK   10  A    between atoms: C_10  and  O_11
REMARK   11  A    between atoms: O_11  and  C_12
REMARK   12  A    between atoms: C_15  and  O_16
REMARK   13  A    between atoms: O_16  and  C_17
REMARK                            x       y       z     vdW  Elec       q    Type
REMARK                         _______ _______ _______ _____ _____    ______ ____
ROOT
ATOM      1  C   UNL     1       2.069   2.454  18.284  0.00  0.00    +0.000 C 
ENDROOT
BRANCH   1   2
ATOM      2  N   UNL     1       1.539   3.214  19.446  0.00  0.00    +0.000 NA
BRANCH   2   4
ATOM      3  C   UNL     1       1.548   2.431  21.867  0.00  0.00    +0.000 C 
ATOM      4  C   UNL     1       2.337   2.921  20.656  0.00  0.00    +0.000 C 
ENDBRANCH   2   4
BRANCH   2   5
ATOM      5  C   UNL     1       1.505   4.659  19.144  0.00  0.00    +0.000 C 
BRANCH   5   6
ATOM      6  C   UNL     1       2.315   5.548  20.109  0.00  0.00    +0.000 C 
BRANCH   6   7
ATOM      7  C   UNL     1       2.474   7.007  19.669  0.00  0.00    +0.000 C 
BRANCH   7   8
ATOM      8  C   UNL     1       2.657   7.156  18.164  0.00  0.00    +0.000 C 
BRANCH   8   9
ATOM      9  O   UNL     1       1.752   8.125  17.651  0.00  0.00    +0.000 OA
ATOM     10  H   UNL     1       2.263   8.739  17.095  0.00  0.00    +0.000 HD
ENDBRANCH   8   9
ENDBRANCH   7   8
ENDBRANCH   6   7
ENDBRANCH   5   6
ENDBRANCH   2   5
ENDBRANCH   1   2
BRANCH   1  11
ATOM     11  C   UNL     1       2.707   3.313  17.179  0.00  0.00    +0.000 C 
BRANCH  11  12
ATOM     12  O   UNL     1       4.071   2.910  17.018  0.00  0.00    +0.000 OA
BRANCH  12  13
ATOM     13  C   UNL     1       4.993   3.922  17.053  0.00  0.00    +0.000 A 
ATOM     14  C   UNL     1       5.330   4.459  15.813  0.00  0.00    +0.000 A 
ATOM     15  C   UNL     1       6.263   5.493  15.729  0.00  0.00    +0.000 A 
ATOM     16  C   UNL     1       6.837   6.026  16.881  0.00  0.00    +0.000 A 
ATOM     17  C   UNL     1       6.493   5.496  18.124  0.00  0.00    +0.000 A 
ATOM     18  C   UNL     1       5.573   4.446  18.212  0.00  0.00    +0.000 A 
BRANCH  16  19
ATOM     19  O   UNL     1       7.744   7.029  16.677  0.00  0.00    +0.000 OA
ATOM     20  C   UNL     1       7.668   8.118  17.590  0.00  0.00    +0.000 C 
ENDBRANCH  16  19
ENDBRANCH  12  13
ENDBRANCH  11  12
ENDBRANCH   1  11
TORSDOF 11
ENDMDL
MODEL 9
REMARK VINA RESULT:      -5.2      2.683      6.241
REMARK  Name = 
REMARK  13 active torsions:
REMARK  status: ('A' for Active; 'I' for Inactive)
REMARK    1  A    between atoms: C_1  and  C_2
REMARK    2  A    between atoms: C_2  and  N_3
REMARK    3  A    between atoms: N_3  and  C_4
REMARK    4  A    between atoms: N_3  and  C_9
REMARK    5  A    between atoms: C_4  and  C_5
REMARK    6  A    between atoms: C_5  and  C_6
REMARK    7  A    between atoms: C_6  and  C_7
REMARK    8  A    between atoms: C_7  and  O_8
REMARK    9  A    between atoms: C_9  and  C_10
REMARK   10  A    between atoms: C_10  and  O_11
REMARK   11  A    between atoms: O_11  and  C_12
REMARK   12  A    between atoms: C_15  and  O_16
REMARK   13  A    between atoms: O_16  and  C_17
REMARK                            x       y       z     vdW  Elec       q    Type
REMARK                         _______ _______ _______ _____ _____    ______ ____
ROOT
ATOM      1  C   UNL     1       5.384   4.574  17.946  0.00  0.00    +0.000 C 
ENDROOT
BRANCH   1   2
ATOM      2  N   UNL     1       6.361   5.367  17.156  0.00  0.00    +0.000 NA
BRANCH   2   4
ATOM      3  C   UNL     1       7.660   7.508  17.605  0.00  0.00    +0.000 C 
ATOM      4  C   UNL     1       7.271   6.103  18.059  0.00  0.00    +0.000 C 
ENDBRANCH   2   4
BRANCH   2   5
ATOM      5  C   UNL     1       7.098   4.493  16.222  0.00  0.00    +0.000 C 
BRANCH   5   6
ATOM      6  C   UNL     1       6.902   4.821  14.728  0.00  0.00    +0.000 C 
BRANCH   6   7
ATOM      7  C   UNL     1       6.004   3.845  13.961  0.00  0.00    +0.000 C 
BRANCH   7   8
ATOM      8  C   UNL     1       6.422   3.673  12.506  0.00  0.00    +0.000 C 
BRANCH   8   9
ATOM      9  O   UNL     1       6.185   2.337  12.080  0.00  0.00    +0.000 OA
ATOM     10  H   UNL     1       6.464   1.746  12.801  0.00  0.00    +0.000 HD
ENDBRANCH   8   9
ENDBRANCH   7   8
ENDBRANCH   6   7
ENDBRANCH   5   6
ENDBRANCH   2   5
ENDBRANCH   1   2
BRANCH   1  11
ATOM     11  C   UNL     1       4.106   4.172  17.190  0.00  0.00    +0.000 C 
BRANCH  11  12
ATOM     12  O   UNL     1       3.023   4.112  18.123  0.00  0.00    +0.000 OA
BRANCH  12  13
ATOM     13  C   UNL     1       2.649   5.310  18.671  0.00  0.00    +0.000 A 
ATOM     14  C   UNL     1       2.211   5.246  19.991  0.00  0.00    +0.000 A 
ATOM     15  C   UNL     1       1.801   6.406  20.649  0.00  0.00    +0.000 A 
ATOM     16  C   UNL     1       1.863   7.643  20.011  0.00  0.00    +0.000 A 
ATOM     17  C   UNL     1       2.310   7.710  18.693  0.00  0.00    +0.000 A 
ATOM     18  C   UNL     1       2.703   6.546  18.021  0.00  0.00    +0.000 A 
BRANCH  16  19
ATOM     19  O   UNL     1       1.427   8.708  20.750  0.00  0.00    +0.000 OA
ATOM     20  C   UNL     1       0.664   9.675  20.036  0.00  0.00    +0.000 C 
ENDBRANCH  16  19
ENDBRANCH  12  13
ENDBRANCH  11  12
ENDBRANCH   1  11
TORSDOF 11
ENDMDL
