MODEL 1
REMARK VINA RESULT:      -9.1      0.000      0.000
REMARK  Name = 
REMARK  11 active torsions:
REMARK  status: ('A' for Active; 'I' for Inactive)
REMARK    1  A    between atoms: C_1  and  O_2
REMARK    2  A    between atoms: O_2  and  C_3
REMARK    3  A    between atoms: C_9  and  O_10
REMARK    4  A    between atoms: O_10  and  C_11
REMARK    5  A    between atoms: C_14  and  N_15
REMARK    6  A    between atoms: N_15  and  C_16
REMARK    7  A    between atoms: C_16  and  N_18
REMARK    8  A    between atoms: C_19  and  C_21
REMARK    9  A    between atoms: C_21  and  C_22
REMARK   10  A    between atoms: C_33  and  O_34
REMARK   11  A    between atoms: O_34  and  C_35
REMARK                            x       y       z     vdW  Elec       q    Type
REMARK                         _______ _______ _______ _____ _____    ______ ____
ROOT
ATOM      1  C   UNL     1       1.217   9.459  19.199  0.00  0.00    +0.000 A 
ATOM      2  C   UNL     1       1.014   9.127  20.540  0.00  0.00    +0.000 A 
ATOM      3  C   UNL     1       1.419   7.875  21.013  0.00  0.00    +0.000 A 
ATOM      4  C   UNL     1       2.071   6.960  20.171  0.00  0.00    +0.000 A 
ATOM      5  C   UNL     1       2.429   7.376  18.890  0.00  0.00    +0.000 A 
ATOM      6  C   UNL     1       2.000   8.620  18.412  0.00  0.00    +0.000 A 
ATOM      7  F   UNL     1       2.329   8.979  17.162  0.00  0.00    +0.000 F 
ENDROOT
BRANCH   4   8
ATOM      8  N   UNL     1       2.306   5.674  20.712  0.00  0.00    +0.000 N 
ATOM      9  H   UNL     1       2.459   5.668  21.723  0.00  0.00    +0.000 HD
BRANCH   8  10
ATOM     10  C   UNL     1       2.185   4.407  20.183  0.00  0.00    +0.000 C 
ATOM     11  S   UNL     1       1.143   3.178  20.621  0.00  0.00    +0.000 S 
BRANCH  10  12
ATOM     12  N   UNL     1       3.105   4.097  19.188  0.00  0.00    +0.000 N 
ATOM     13  C   UNL     1       2.882   3.935  17.827  0.00  0.00    +0.000 C 
ATOM     14  O   UNL     1       1.764   3.969  17.318  0.00  0.00    +0.000 OA
ATOM     15  H   UNL     1       4.060   4.036  19.518  0.00  0.00    +0.000 HD
BRANCH  13  16
ATOM     16  C   UNL     1       4.139   3.743  16.985  0.00  0.00    +0.000 C 
BRANCH  16  17
ATOM     17  C   UNL     1       5.198   4.785  17.232  0.00  0.00    +0.000 A 
ATOM     18  C   UNL     1       6.420   4.449  17.840  0.00  0.00    +0.000 A 
ATOM     19  C   UNL     1       7.401   5.421  18.050  0.00  0.00    +0.000 A 
ATOM     20  C   UNL     1       7.181   6.735  17.641  0.00  0.00    +0.000 A 
ATOM     21  C   UNL     1       5.987   7.074  17.009  0.00  0.00    +0.000 A 
ATOM     22  C   UNL     1       5.004   6.104  16.799  0.00  0.00    +0.000 A 
ENDBRANCH  16  17
ENDBRANCH  13  16
ENDBRANCH  10  12
ENDBRANCH   8  10
ENDBRANCH   4   8
BRANCH   1  23
ATOM     23  O   UNL     1       0.631  10.570  18.621  0.00  0.00    +0.000 OA
BRANCH  23  30
ATOM     24  C   UNL     1      -4.312  11.254  17.625  0.00  0.00    +0.000 A 
ATOM     25  C   UNL     1      -3.990  11.892  18.833  0.00  0.00    +0.000 A 
ATOM     26  C   UNL     1      -2.724  11.852  19.386  0.00  0.00    +0.000 A 
ATOM     27  N   UNL     1      -2.514  12.570  20.500  0.00  0.00    +0.000 NA
ATOM     28  C   UNL     1      -1.286  12.551  21.046  0.00  0.00    +0.000 A 
ATOM     29  C   UNL     1      -0.230  11.845  20.515  0.00  0.00    +0.000 A 
ATOM     30  C   UNL     1      -0.424  11.166  19.310  0.00  0.00    +0.000 A 
ATOM     31  C   UNL     1      -1.720  11.102  18.748  0.00  0.00    +0.000 A 
ATOM     32  C   UNL     1      -2.069  10.361  17.596  0.00  0.00    +0.000 A 
ATOM     33  C   UNL     1      -3.353  10.432  17.024  0.00  0.00    +0.000 A 
BRANCH  24  35
ATOM     34  C   UNL     1      -6.082  12.750  17.116  0.00  0.00    +0.000 C 
ATOM     35  O   UNL     1      -5.544  11.424  17.048  0.00  0.00    +0.000 OA
ENDBRANCH  24  35
BRANCH  33  36
ATOM     36  O   UNL     1      -3.448   9.664  15.896  0.00  0.00    +0.000 OA
ATOM     37  C   UNL     1      -3.027  10.173  14.642  0.00  0.00    +0.000 C 
ENDBRANCH  33  36
ENDBRANCH  23  30
ENDBRANCH   1  23
TORSDOF 9
ENDMDL
MODEL 2
REMARK VINA RESULT:      -9.1      2.941     10.046
REMARK  Name = 
REMARK  11 active torsions:
REMARK  status: ('A' for Active; 'I' for Inactive)
REMARK    1  A    between atoms: C_1  and  O_2
REMARK    2  A    between atoms: O_2  and  C_3
REMARK    3  A    between atoms: C_9  and  O_10
REMARK    4  A    between atoms: O_10  and  C_11
REMARK    5  A    between atoms: C_14  and  N_15
REMARK    6  A    between atoms: N_15  and  C_16
REMARK    7  A    between atoms: C_16  and  N_18
REMARK    8  A    between atoms: C_19  and  C_21
REMARK    9  A    between atoms: C_21  and  C_22
REMARK   10  A    between atoms: C_33  and  O_34
REMARK   11  A    between atoms: O_34  and  C_35
REMARK                            x       y       z     vdW  Elec       q    Type
REMARK                         _______ _______ _______ _____ _____    ______ ____
ROOT
ATOM      1  C   UNL     1       2.195   7.759  19.565  0.00  0.00    +0.000 A 
ATOM      2  C   UNL     1       1.357   7.964  20.664  0.00  0.00    +0.000 A 
ATOM      3  C   UNL     1       0.472   9.047  20.666  0.00  0.00    +0.000 A 
ATOM      4  C   UNL     1       0.377   9.907  19.561  0.00  0.00    +0.000 A 
ATOM      5  C   UNL     1       1.084   9.582  18.405  0.00  0.00    +0.000 A 
ATOM      6  C   UNL     1       1.988   8.513  18.414  0.00  0.00    +0.000 A 
ATOM      7  F   UNL     1       2.682   8.245  17.298  0.00  0.00    +0.000 F 
ENDROOT
BRANCH   4   8
ATOM      8  N   UNL     1      -0.442  11.048  19.728  0.00  0.00    +0.000 N 
ATOM      9  H   UNL     1      -0.862  11.129  20.657  0.00  0.00    +0.000 HD
BRANCH   8  10
ATOM     10  C   UNL     1      -0.640  12.172  18.954  0.00  0.00    +0.000 C 
ATOM     11  S   UNL     1       0.428  13.403  18.593  0.00  0.00    +0.000 S 
BRANCH  10  12
ATOM     12  N   UNL     1      -1.931  12.323  18.462  0.00  0.00    +0.000 N 
ATOM     13  C   UNL     1      -2.839  11.334  18.105  0.00  0.00    +0.000 C 
ATOM     14  O   UNL     1      -2.566  10.136  18.105  0.00  0.00    +0.000 OA
ATOM     15  H   UNL     1      -2.242  13.285  18.414  0.00  0.00    +0.000 HD
BRANCH  13  16
ATOM     16  C   UNL     1      -4.231  11.838  17.738  0.00  0.00    +0.000 C 
BRANCH  16  17
ATOM     17  C   UNL     1      -5.273  11.554  18.788  0.00  0.00    +0.000 A 
ATOM     18  C   UNL     1      -5.359  12.331  19.955  0.00  0.00    +0.000 A 
ATOM     19  C   UNL     1      -6.340  12.068  20.915  0.00  0.00    +0.000 A 
ATOM     20  C   UNL     1      -7.255  11.037  20.713  0.00  0.00    +0.000 A 
ATOM     21  C   UNL     1      -7.201  10.280  19.545  0.00  0.00    +0.000 A 
ATOM     22  C   UNL     1      -6.220  10.540  18.585  0.00  0.00    +0.000 A 
ENDBRANCH  16  17
ENDBRANCH  13  16
ENDBRANCH  10  12
ENDBRANCH   8  10
ENDBRANCH   4   8
BRANCH   1  23
ATOM     23  O   UNL     1       3.247   6.862  19.601  0.00  0.00    +0.000 OA
BRANCH  23  30
ATOM     24  C   UNL     1       6.056   4.576  16.026  0.00  0.00    +0.000 A 
ATOM     25  C   UNL     1       4.863   3.860  16.206  0.00  0.00    +0.000 A 
ATOM     26  C   UNL     1       3.908   4.218  17.140  0.00  0.00    +0.000 A 
ATOM     27  N   UNL     1       2.769   3.508  17.163  0.00  0.00    +0.000 NA
ATOM     28  C   UNL     1       1.826   3.849  18.057  0.00  0.00    +0.000 A 
ATOM     29  C   UNL     1       1.961   4.895  18.941  0.00  0.00    +0.000 A 
ATOM     30  C   UNL     1       3.109   5.688  18.862  0.00  0.00    +0.000 A 
ATOM     31  C   UNL     1       4.154   5.314  17.986  0.00  0.00    +0.000 A 
ATOM     32  C   UNL     1       5.404   5.965  17.890  0.00  0.00    +0.000 A 
ATOM     33  C   UNL     1       6.357   5.612  16.916  0.00  0.00    +0.000 A 
BRANCH  24  35
ATOM     34  C   UNL     1       6.298   3.900  13.764  0.00  0.00    +0.000 C 
ATOM     35  O   UNL     1       6.916   4.262  15.005  0.00  0.00    +0.000 OA
ENDBRANCH  24  35
BRANCH  33  36
ATOM     36  O   UNL     1       7.471   6.403  16.987  0.00  0.00    +0.000 OA
ATOM     37  C   UNL     1       7.844   7.012  18.212  0.00  0.00    +0.000 C 
ENDBRANCH  33  36
ENDBRANCH  23  30
ENDBRANCH   1  23
TORSDOF 9
ENDMDL
MODEL 3
REMARK VINA RESULT:      -9.0      1.160      1.219
REMARK  Name = 
REMARK  11 active torsions:
REMARK  status: ('A' for Active; 'I' for Inactive)
REMARK    1  A    between atoms: C_1  and  O_2
REMARK    2  A    between atoms: O_2  and  C_3
REMARK    3  A    between atoms: C_9  and  O_10
REMARK    4  A    between atoms: O_10  and  C_11
REMARK    5  A    between atoms: C_14  and  N_15
REMARK    6  A    between atoms: N_15  and  C_16
REMARK    7  A    between atoms: C_16  and  N_18
REMARK    8  A    between atoms: C_19  and  C_21
REMARK    9  A    between atoms: C_21  and  C_22
REMARK   10  A    between atoms: C_33  and  O_34
REMARK   11  A    between atoms: O_34  and  C_35
REMARK                            x       y       z     vdW  Elec       q    Type
REMARK                         _______ _______ _______ _____ _____    ______ ____
ROOT
ATOM      1  C   UNL     1       1.373   9.108  19.151  0.00  0.00    +0.000 A 
ATOM      2  C   UNL     1       1.109   8.874  20.502  0.00  0.00    +0.000 A 
ATOM      3  C   UNL     1       1.473   7.653  21.078  0.00  0.00    +0.000 A 
ATOM      4  C   UNL     1       2.144   6.672  20.330  0.00  0.00    +0.000 A 
ATOM      5  C   UNL     1       2.563   6.993  19.040  0.00  0.00    +0.000 A 
ATOM      6  C   UNL     1       2.175   8.205  18.459  0.00  0.00    +0.000 A 
ATOM      7  F   UNL     1       2.561   8.472  17.202  0.00  0.00    +0.000 F 
ENDROOT
BRANCH   4   8
ATOM      8  N   UNL     1       2.336   5.425  20.969  0.00  0.00    +0.000 N 
ATOM      9  H   UNL     1       2.534   5.494  21.970  0.00  0.00    +0.000 HD
BRANCH   8  10
ATOM     10  C   UNL     1       2.123   4.127  20.555  0.00  0.00    +0.000 C 
ATOM     11  S   UNL     1       1.485   2.841  21.408  0.00  0.00    +0.000 S 
BRANCH  10  12
ATOM     12  N   UNL     1       2.564   3.844  19.267  0.00  0.00    +0.000 N 
ATOM     13  C   UNL     1       3.808   3.377  18.866  0.00  0.00    +0.000 C 
ATOM     14  O   UNL     1       4.754   3.225  19.637  0.00  0.00    +0.000 OA
ATOM     15  H   UNL     1       1.852   3.954  18.557  0.00  0.00    +0.000 HD
BRANCH  13  16
ATOM     16  C   UNL     1       3.920   3.029  17.385  0.00  0.00    +0.000 C 
BRANCH  16  17
ATOM     17  C   UNL     1       4.777   3.988  16.600  0.00  0.00    +0.000 A 
ATOM     18  C   UNL     1       5.772   3.522  15.725  0.00  0.00    +0.000 A 
ATOM     19  C   UNL     1       6.550   4.420  14.990  0.00  0.00    +0.000 A 
ATOM     20  C   UNL     1       6.334   5.791  15.109  0.00  0.00    +0.000 A 
ATOM     21  C   UNL     1       5.329   6.265  15.950  0.00  0.00    +0.000 A 
ATOM     22  C   UNL     1       4.550   5.368  16.686  0.00  0.00    +0.000 A 
ENDBRANCH  16  17
ENDBRANCH  13  16
ENDBRANCH  10  12
ENDBRANCH   8  10
ENDBRANCH   4   8
BRANCH   1  23
ATOM     23  O   UNL     1       0.831  10.184  18.472  0.00  0.00    +0.000 OA
BRANCH  23  30
ATOM     24  C   UNL     1      -4.012  11.247  17.325  0.00  0.00    +0.000 A 
ATOM     25  C   UNL     1      -3.663  11.903  18.515  0.00  0.00    +0.000 A 
ATOM     26  C   UNL     1      -2.418  11.777  19.102  0.00  0.00    +0.000 A 
ATOM     27  N   UNL     1      -2.171  12.518  20.193  0.00  0.00    +0.000 NA
ATOM     28  C   UNL     1      -0.962  12.416  20.771  0.00  0.00    +0.000 A 
ATOM     29  C   UNL     1       0.041  11.602  20.294  0.00  0.00    +0.000 A 
ATOM     30  C   UNL     1      -0.184  10.894  19.111  0.00  0.00    +0.000 A 
ATOM     31  C   UNL     1      -1.468  10.919  18.519  0.00  0.00    +0.000 A 
ATOM     32  C   UNL     1      -1.854  10.166  17.387  0.00  0.00    +0.000 A 
ATOM     33  C   UNL     1      -3.114  10.323  16.780  0.00  0.00    +0.000 A 
BRANCH  24  35
ATOM     34  C   UNL     1      -6.016  12.517  17.316  0.00  0.00    +0.000 C 
ATOM     35  O   UNL     1      -5.212  11.498  16.710  0.00  0.00    +0.000 OA
ENDBRANCH  24  35
BRANCH  33  36
ATOM     36  O   UNL     1      -3.250   9.522  15.680  0.00  0.00    +0.000 OA
ATOM     37  C   UNL     1      -3.029  10.042  14.380  0.00  0.00    +0.000 C 
ENDBRANCH  33  36
ENDBRANCH  23  30
ENDBRANCH   1  23
TORSDOF 9
ENDMDL
MODEL 4
REMARK VINA RESULT:      -8.9      3.085     10.197
REMARK  Name = 
REMARK  11 active torsions:
REMARK  status: ('A' for Active; 'I' for Inactive)
REMARK    1  A    between atoms: C_1  and  O_2
REMARK    2  A    between atoms: O_2  and  C_3
REMARK    3  A    between atoms: C_9  and  O_10
REMARK    4  A    between atoms: O_10  and  C_11
REMARK    5  A    between atoms: C_14  and  N_15
REMARK    6  A    between atoms: N_15  and  C_16
REMARK    7  A    between atoms: C_16  and  N_18
REMARK    8  A    between atoms: C_19  and  C_21
REMARK    9  A    between atoms: C_21  and  C_22
REMARK   10  A    between atoms: C_33  and  O_34
REMARK   11  A    between atoms: O_34  and  C_35
REMARK                            x       y       z     vdW  Elec       q    Type
REMARK                         _______ _______ _______ _____ _____    ______ ____
ROOT
ATOM      1  C   UNL     1       2.263   7.526  19.537  0.00  0.00    +0.000 A 
ATOM      2  C   UNL     1       2.390   8.008  18.232  0.00  0.00    +0.000 A 
ATOM      3  C   UNL     1       1.612   9.092  17.816  0.00  0.00    +0.000 A 
ATOM      4  C   UNL     1       0.736   9.738  18.703  0.00  0.00    +0.000 A 
ATOM      5  C   UNL     1       0.757   9.364  20.045  0.00  0.00    +0.000 A 
ATOM      6  C   UNL     1       1.518   8.262  20.454  0.00  0.00    +0.000 A 
ATOM      7  F   UNL     1       1.491   7.902  21.745  0.00  0.00    +0.000 F 
ENDROOT
BRANCH   4   8
ATOM      8  N   UNL     1      -0.104  10.726  18.140  0.00  0.00    +0.000 N 
ATOM      9  H   UNL     1       0.389  11.421  17.574  0.00  0.00    +0.000 HD
BRANCH   8  10
ATOM     10  C   UNL     1      -1.475  10.836  18.044  0.00  0.00    +0.000 C 
ATOM     11  S   UNL     1      -2.543   9.931  17.132  0.00  0.00    +0.000 S 
BRANCH  10  12
ATOM     12  N   UNL     1      -2.029  11.891  18.760  0.00  0.00    +0.000 N 
ATOM     13  C   UNL     1      -1.932  12.154  20.120  0.00  0.00    +0.000 C 
ATOM     14  O   UNL     1      -1.378  11.398  20.916  0.00  0.00    +0.000 OA
ATOM     15  H   UNL     1      -2.520  12.564  18.185  0.00  0.00    +0.000 HD
BRANCH  13  16
ATOM     16  C   UNL     1      -2.539  13.481  20.565  0.00  0.00    +0.000 C 
BRANCH  16  17
ATOM     17  C   UNL     1      -3.555  13.341  21.669  0.00  0.00    +0.000 A 
ATOM     18  C   UNL     1      -4.893  13.017  21.386  0.00  0.00    +0.000 A 
ATOM     19  C   UNL     1      -5.824  12.875  22.418  0.00  0.00    +0.000 A 
ATOM     20  C   UNL     1      -5.427  13.039  23.744  0.00  0.00    +0.000 A 
ATOM     21  C   UNL     1      -4.096  13.329  24.039  0.00  0.00    +0.000 A 
ATOM     22  C   UNL     1      -3.164  13.472  23.008  0.00  0.00    +0.000 A 
ENDBRANCH  16  17
ENDBRANCH  13  16
ENDBRANCH  10  12
ENDBRANCH   8  10
ENDBRANCH   4   8
BRANCH   1  23
ATOM     23  O   UNL     1       2.819   6.323  19.933  0.00  0.00    +0.000 OA
BRANCH  23  30
ATOM     24  C   UNL     1       6.321   4.685  16.625  0.00  0.00    +0.000 A 
ATOM     25  C   UNL     1       5.137   3.955  16.446  0.00  0.00    +0.000 A 
ATOM     26  C   UNL     1       4.012   4.148  17.226  0.00  0.00    +0.000 A 
ATOM     27  N   UNL     1       2.911   3.451  16.906  0.00  0.00    +0.000 NA
ATOM     28  C   UNL     1       1.806   3.635  17.648  0.00  0.00    +0.000 A 
ATOM     29  C   UNL     1       1.740   4.509  18.709  0.00  0.00    +0.000 A 
ATOM     30  C   UNL     1       2.858   5.298  18.990  0.00  0.00    +0.000 A 
ATOM     31  C   UNL     1       4.061   5.078  18.280  0.00  0.00    +0.000 A 
ATOM     32  C   UNL     1       5.288   5.730  18.540  0.00  0.00    +0.000 A 
ATOM     33  C   UNL     1       6.418   5.548  17.722  0.00  0.00    +0.000 A 
BRANCH  24  35
ATOM     34  C   UNL     1       7.069   4.834  14.378  0.00  0.00    +0.000 C 
ATOM     35  O   UNL     1       7.369   4.551  15.750  0.00  0.00    +0.000 OA
ENDBRANCH  24  35
BRANCH  33  36
ATOM     36  O   UNL     1       7.474   6.309  18.141  0.00  0.00    +0.000 OA
ATOM     37  C   UNL     1       7.686   7.604  17.604  0.00  0.00    +0.000 C 
ENDBRANCH  33  36
ENDBRANCH  23  30
ENDBRANCH   1  23
TORSDOF 9
ENDMDL
MODEL 5
REMARK VINA RESULT:      -8.9      3.628     10.264
REMARK  Name = 
REMARK  11 active torsions:
REMARK  status: ('A' for Active; 'I' for Inactive)
REMARK    1  A    between atoms: C_1  and  O_2
REMARK    2  A    between atoms: O_2  and  C_3
REMARK    3  A    between atoms: C_9  and  O_10
REMARK    4  A    between atoms: O_10  and  C_11
REMARK    5  A    between atoms: C_14  and  N_15
REMARK    6  A    between atoms: N_15  and  C_16
REMARK    7  A    between atoms: C_16  and  N_18
REMARK    8  A    between atoms: C_19  and  C_21
REMARK    9  A    between atoms: C_21  and  C_22
REMARK   10  A    between atoms: C_33  and  O_34
REMARK   11  A    between atoms: O_34  and  C_35
REMARK                            x       y       z     vdW  Elec       q    Type
REMARK                         _______ _______ _______ _____ _____    ______ ____
ROOT
ATOM      1  C   UNL     1       2.255   7.415  19.782  0.00  0.00    +0.000 A 
ATOM      2  C   UNL     1       1.417   7.665  20.872  0.00  0.00    +0.000 A 
ATOM      3  C   UNL     1       0.651   8.835  20.903  0.00  0.00    +0.000 A 
ATOM      4  C   UNL     1       0.674   9.743  19.833  0.00  0.00    +0.000 A 
ATOM      5  C   UNL     1       1.371   9.391  18.679  0.00  0.00    +0.000 A 
ATOM      6  C   UNL     1       2.156   8.233  18.660  0.00  0.00    +0.000 A 
ATOM      7  F   UNL     1       2.844   7.937  17.547  0.00  0.00    +0.000 F 
ENDROOT
BRANCH   4   8
ATOM      8  N   UNL     1      -0.024  10.957  20.032  0.00  0.00    +0.000 N 
ATOM      9  H   UNL     1      -1.042  10.865  19.999  0.00  0.00    +0.000 HD
BRANCH   8  10
ATOM     10  C   UNL     1       0.384  12.207  20.449  0.00  0.00    +0.000 C 
ATOM     11  S   UNL     1       1.787  13.034  20.081  0.00  0.00    +0.000 S 
BRANCH  10  12
ATOM     12  N   UNL     1      -0.470  12.830  21.352  0.00  0.00    +0.000 N 
ATOM     13  C   UNL     1      -0.864  12.390  22.608  0.00  0.00    +0.000 C 
ATOM     14  O   UNL     1      -0.551  11.294  23.070  0.00  0.00    +0.000 OA
ATOM     15  H   UNL     1      -0.792  13.740  21.051  0.00  0.00    +0.000 HD
BRANCH  13  16
ATOM     16  C   UNL     1      -1.699  13.385  23.408  0.00  0.00    +0.000 C 
BRANCH  16  17
ATOM     17  C   UNL     1      -3.184  13.164  23.288  0.00  0.00    +0.000 A 
ATOM     18  C   UNL     1      -3.821  13.179  22.035  0.00  0.00    +0.000 A 
ATOM     19  C   UNL     1      -5.197  12.957  21.934  0.00  0.00    +0.000 A 
ATOM     20  C   UNL     1      -5.949  12.702  23.079  0.00  0.00    +0.000 A 
ATOM     21  C   UNL     1      -5.324  12.653  24.323  0.00  0.00    +0.000 A 
ATOM     22  C   UNL     1      -3.949  12.876  24.427  0.00  0.00    +0.000 A 
ENDBRANCH  16  17
ENDBRANCH  13  16
ENDBRANCH  10  12
ENDBRANCH   8  10
ENDBRANCH   4   8
BRANCH   1  23
ATOM     23  O   UNL     1       3.204   6.410  19.801  0.00  0.00    +0.000 OA
BRANCH  23  30
ATOM     24  C   UNL     1       5.895   4.254  16.059  0.00  0.00    +0.000 A 
ATOM     25  C   UNL     1       4.652   3.612  16.165  0.00  0.00    +0.000 A 
ATOM     26  C   UNL     1       3.712   3.953  17.120  0.00  0.00    +0.000 A 
ATOM     27  N   UNL     1       2.526   3.327  17.070  0.00  0.00    +0.000 NA
ATOM     28  C   UNL     1       1.597   3.655  17.984  0.00  0.00    +0.000 A 
ATOM     29  C   UNL     1       1.793   4.607  18.959  0.00  0.00    +0.000 A 
ATOM     30  C   UNL     1       2.994   5.319  18.960  0.00  0.00    +0.000 A 
ATOM     31  C   UNL     1       4.023   4.950  18.062  0.00  0.00    +0.000 A 
ATOM     32  C   UNL     1       5.317   5.516  18.033  0.00  0.00    +0.000 A 
ATOM     33  C   UNL     1       6.256   5.183  17.040  0.00  0.00    +0.000 A 
BRANCH  24  35
ATOM     34  C   UNL     1       6.146   3.944  13.720  0.00  0.00    +0.000 C 
ATOM     35  O   UNL     1       6.745   3.971  15.021  0.00  0.00    +0.000 OA
ENDBRANCH  24  35
BRANCH  33  36
ATOM     36  O   UNL     1       7.422   5.883  17.189  0.00  0.00    +0.000 OA
ATOM     37  C   UNL     1       7.752   6.472  18.436  0.00  0.00    +0.000 C 
ENDBRANCH  33  36
ENDBRANCH  23  30
ENDBRANCH   1  23
TORSDOF 9
ENDMDL
MODEL 6
REMARK VINA RESULT:      -8.9      2.807     10.043
REMARK  Name = 
REMARK  11 active torsions:
REMARK  status: ('A' for Active; 'I' for Inactive)
REMARK    1  A    between atoms: C_1  and  O_2
REMARK    2  A    between atoms: O_2  and  C_3
REMARK    3  A    between atoms: C_9  and  O_10
REMARK    4  A    between atoms: O_10  and  C_11
REMARK    5  A    between atoms: C_14  and  N_15
REMARK    6  A    between atoms: N_15  and  C_16
REMARK    7  A    between atoms: C_16  and  N_18
REMARK    8  A    between atoms: C_19  and  C_21
REMARK    9  A    between atoms: C_21  and  C_22
REMARK   10  A    between atoms: C_33  and  O_34
REMARK   11  A    between atoms: O_34  and  C_35
REMARK                            x       y       z     vdW  Elec       q    Type
REMARK                         _______ _______ _______ _____ _____    ______ ____
ROOT
ATOM      1  C   UNL     1       2.216   7.851  19.518  0.00  0.00    +0.000 A 
ATOM      2  C   UNL     1       1.477   7.890  20.703  0.00  0.00    +0.000 A 
ATOM      3  C   UNL     1       0.501   8.876  20.878  0.00  0.00    +0.000 A 
ATOM      4  C   UNL     1       0.218   9.802  19.862  0.00  0.00    +0.000 A 
ATOM      5  C   UNL     1       0.832   9.636  18.623  0.00  0.00    +0.000 A 
ATOM      6  C   UNL     1       1.826   8.665  18.458  0.00  0.00    +0.000 A 
ATOM      7  F   UNL     1       2.427   8.551  17.265  0.00  0.00    +0.000 F 
ENDROOT
BRANCH   4   8
ATOM      8  N   UNL     1      -0.682  10.840  20.199  0.00  0.00    +0.000 N 
ATOM      9  H   UNL     1      -0.728  11.046  21.200  0.00  0.00    +0.000 HD
BRANCH   8  10
ATOM     10  C   UNL     1      -1.370  11.758  19.434  0.00  0.00    +0.000 C 
ATOM     11  S   UNL     1      -1.003  13.357  19.124  0.00  0.00    +0.000 S 
BRANCH  10  12
ATOM     12  N   UNL     1      -2.570  11.296  18.905  0.00  0.00    +0.000 N 
ATOM     13  C   UNL     1      -2.857  10.956  17.590  0.00  0.00    +0.000 C 
ATOM     14  O   UNL     1      -2.061  11.106  16.664  0.00  0.00    +0.000 OA
ATOM     15  H   UNL     1      -3.295  11.153  19.596  0.00  0.00    +0.000 HD
BRANCH  13  16
ATOM     16  C   UNL     1      -4.235  10.341  17.368  0.00  0.00    +0.000 C 
BRANCH  16  17
ATOM     17  C   UNL     1      -5.372  11.246  17.765  0.00  0.00    +0.000 A 
ATOM     18  C   UNL     1      -5.651  12.420  17.045  0.00  0.00    +0.000 A 
ATOM     19  C   UNL     1      -6.718  13.244  17.413  0.00  0.00    +0.000 A 
ATOM     20  C   UNL     1      -7.527  12.898  18.493  0.00  0.00    +0.000 A 
ATOM     21  C   UNL     1      -7.280  11.720  19.196  0.00  0.00    +0.000 A 
ATOM     22  C   UNL     1      -6.213  10.895  18.830  0.00  0.00    +0.000 A 
ENDBRANCH  16  17
ENDBRANCH  13  16
ENDBRANCH  10  12
ENDBRANCH   8  10
ENDBRANCH   4   8
BRANCH   1  23
ATOM     23  O   UNL     1       3.344   7.063  19.382  0.00  0.00    +0.000 OA
BRANCH  23  30
ATOM     24  C   UNL     1       6.050   4.709  15.772  0.00  0.00    +0.000 A 
ATOM     25  C   UNL     1       4.882   3.975  16.028  0.00  0.00    +0.000 A 
ATOM     26  C   UNL     1       3.960   4.346  16.989  0.00  0.00    +0.000 A 
ATOM     27  N   UNL     1       2.840   3.614  17.086  0.00  0.00    +0.000 NA
ATOM     28  C   UNL     1       1.928   3.967  18.008  0.00  0.00    +0.000 A 
ATOM     29  C   UNL     1       2.076   5.047  18.848  0.00  0.00    +0.000 A 
ATOM     30  C   UNL     1       3.202   5.860  18.692  0.00  0.00    +0.000 A 
ATOM     31  C   UNL     1       4.217   5.477  17.785  0.00  0.00    +0.000 A 
ATOM     32  C   UNL     1       5.447   6.150  17.612  0.00  0.00    +0.000 A 
ATOM     33  C   UNL     1       6.365   5.782  16.611  0.00  0.00    +0.000 A 
BRANCH  24  35
ATOM     34  C   UNL     1       6.218   3.846  13.568  0.00  0.00    +0.000 C 
ATOM     35  O   UNL     1       6.873   4.377  14.727  0.00  0.00    +0.000 OA
ENDBRANCH  24  35
BRANCH  33  36
ATOM     36  O   UNL     1       7.463   6.598  16.606  0.00  0.00    +0.000 OA
ATOM     37  C   UNL     1       7.639   7.573  17.620  0.00  0.00    +0.000 C 
ENDBRANCH  33  36
ENDBRANCH  23  30
ENDBRANCH   1  23
TORSDOF 9
ENDMDL
MODEL 7
REMARK VINA RESULT:      -8.8      2.872     10.082
REMARK  Name = 
REMARK  11 active torsions:
REMARK  status: ('A' for Active; 'I' for Inactive)
REMARK    1  A    between atoms: C_1  and  O_2
REMARK    2  A    between atoms: O_2  and  C_3
REMARK    3  A    between atoms: C_9  and  O_10
REMARK    4  A    between atoms: O_10  and  C_11
REMARK    5  A    between atoms: C_14  and  N_15
REMARK    6  A    between atoms: N_15  and  C_16
REMARK    7  A    between atoms: C_16  and  N_18
REMARK    8  A    between atoms: C_19  and  C_21
REMARK    9  A    between atoms: C_21  and  C_22
REMARK   10  A    between atoms: C_33  and  O_34
REMARK   11  A    between atoms: O_34  and  C_35
REMARK                            x       y       z     vdW  Elec       q    Type
REMARK                         _______ _______ _______ _____ _____    ______ ____
ROOT
ATOM      1  C   UNL     1       2.139   7.866  19.412  0.00  0.00    +0.000 A 
ATOM      2  C   UNL     1       2.206   8.374  18.113  0.00  0.00    +0.000 A 
ATOM      3  C   UNL     1       1.309   9.368  17.711  0.00  0.00    +0.000 A 
ATOM      4  C   UNL     1       0.368   9.899  18.607  0.00  0.00    +0.000 A 
ATOM      5  C   UNL     1       0.436   9.515  19.945  0.00  0.00    +0.000 A 
ATOM      6  C   UNL     1       1.319   8.502  20.339  0.00  0.00    +0.000 A 
ATOM      7  F   UNL     1       1.337   8.127  21.626  0.00  0.00    +0.000 F 
ENDROOT
BRANCH   4   8
ATOM      8  N   UNL     1      -0.581  10.793  18.057  0.00  0.00    +0.000 N 
ATOM      9  H   UNL     1      -0.753  10.657  17.058  0.00  0.00    +0.000 HD
BRANCH   8  10
ATOM     10  C   UNL     1      -1.459  11.685  18.634  0.00  0.00    +0.000 C 
ATOM     11  S   UNL     1      -1.246  12.656  19.976  0.00  0.00    +0.000 S 
BRANCH  10  12
ATOM     12  N   UNL     1      -2.718  11.729  18.045  0.00  0.00    +0.000 N 
ATOM     13  C   UNL     1      -3.113  11.216  16.817  0.00  0.00    +0.000 C 
ATOM     14  O   UNL     1      -2.334  10.699  16.019  0.00  0.00    +0.000 OA
ATOM     15  H   UNL     1      -3.429  12.152  18.628  0.00  0.00    +0.000 HD
BRANCH  13  16
ATOM     16  C   UNL     1      -4.609  11.305  16.532  0.00  0.00    +0.000 C 
BRANCH  16  17
ATOM     17  C   UNL     1      -5.447  11.540  17.762  0.00  0.00    +0.000 A 
ATOM     18  C   UNL     1      -5.814  12.839  18.152  0.00  0.00    +0.000 A 
ATOM     19  C   UNL     1      -6.604  13.044  19.286  0.00  0.00    +0.000 A 
ATOM     20  C   UNL     1      -7.050  11.955  20.033  0.00  0.00    +0.000 A 
ATOM     21  C   UNL     1      -6.719  10.661  19.638  0.00  0.00    +0.000 A 
ATOM     22  C   UNL     1      -5.928  10.453  18.505  0.00  0.00    +0.000 A 
ENDBRANCH  16  17
ENDBRANCH  13  16
ENDBRANCH  10  12
ENDBRANCH   8  10
ENDBRANCH   4   8
BRANCH   1  23
ATOM     23  O   UNL     1       2.830   6.730  19.793  0.00  0.00    +0.000 OA
BRANCH  23  30
ATOM     24  C   UNL     1       5.806   4.347  16.423  0.00  0.00    +0.000 A 
ATOM     25  C   UNL     1       4.550   3.722  16.455  0.00  0.00    +0.000 A 
ATOM     26  C   UNL     1       3.535   4.124  17.303  0.00  0.00    +0.000 A 
ATOM     27  N   UNL     1       2.350   3.507  17.185  0.00  0.00    +0.000 NA
ATOM     28  C   UNL     1       1.349   3.892  17.995  0.00  0.00    +0.000 A 
ATOM     29  C   UNL     1       1.472   4.894  18.930  0.00  0.00    +0.000 A 
ATOM     30  C   UNL     1       2.679   5.596  18.997  0.00  0.00    +0.000 A 
ATOM     31  C   UNL     1       3.776   5.169  18.214  0.00  0.00    +0.000 A 
ATOM     32  C   UNL     1       5.076   5.722  18.268  0.00  0.00    +0.000 A 
ATOM     33  C   UNL     1       6.093   5.326  17.380  0.00  0.00    +0.000 A 
BRANCH  24  35
ATOM     34  C   UNL     1       6.723   4.778  14.277  0.00  0.00    +0.000 C 
ATOM     35  O   UNL     1       6.739   4.000  15.480  0.00  0.00    +0.000 OA
ENDBRANCH  24  35
BRANCH  33  36
ATOM     36  O   UNL     1       7.251   6.023  17.592  0.00  0.00    +0.000 OA
ATOM     37  C   UNL     1       7.781   6.154  18.900  0.00  0.00    +0.000 C 
ENDBRANCH  33  36
ENDBRANCH  23  30
ENDBRANCH   1  23
TORSDOF 9
ENDMDL
MODEL 8
REMARK VINA RESULT:      -8.8      0.848      1.206
REMARK  Name = 
REMARK  11 active torsions:
REMARK  status: ('A' for Active; 'I' for Inactive)
REMARK    1  A    between atoms: C_1  and  O_2
REMARK    2  A    between atoms: O_2  and  C_3
REMARK    3  A    between atoms: C_9  and  O_10
REMARK    4  A    between atoms: O_10  and  C_11
REMARK    5  A    between atoms: C_14  and  N_15
REMARK    6  A    between atoms: N_15  and  C_16
REMARK    7  A    between atoms: C_16  and  N_18
REMARK    8  A    between atoms: C_19  and  C_21
REMARK    9  A    between atoms: C_21  and  C_22
REMARK   10  A    between atoms: C_33  and  O_34
REMARK   11  A    between atoms: O_34  and  C_35
REMARK                            x       y       z     vdW  Elec       q    Type
REMARK                         _______ _______ _______ _____ _____    ______ ____
ROOT
ATOM      1  C   UNL     1       1.712   8.917  19.175  0.00  0.00    +0.000 A 
ATOM      2  C   UNL     1       1.444   8.381  20.436  0.00  0.00    +0.000 A 
ATOM      3  C   UNL     1       1.469   6.995  20.619  0.00  0.00    +0.000 A 
ATOM      4  C   UNL     1       1.805   6.132  19.564  0.00  0.00    +0.000 A 
ATOM      5  C   UNL     1       2.247   6.689  18.366  0.00  0.00    +0.000 A 
ATOM      6  C   UNL     1       2.197   8.075  18.178  0.00  0.00    +0.000 A 
ATOM      7  F   UNL     1       2.595   8.582  17.001  0.00  0.00    +0.000 F 
ENDROOT
BRANCH   4   8
ATOM      8  N   UNL     1       1.658   4.749  19.821  0.00  0.00    +0.000 N 
ATOM      9  H   UNL     1       0.708   4.396  19.683  0.00  0.00    +0.000 HD
BRANCH   8  10
ATOM     10  C   UNL     1       2.575   3.741  20.036  0.00  0.00    +0.000 C 
ATOM     11  S   UNL     1       2.733   2.725  21.352  0.00  0.00    +0.000 S 
BRANCH  10  12
ATOM     12  N   UNL     1       3.535   3.602  19.041  0.00  0.00    +0.000 N 
ATOM     13  C   UNL     1       3.344   3.446  17.675  0.00  0.00    +0.000 C 
ATOM     14  O   UNL     1       2.236   3.326  17.157  0.00  0.00    +0.000 OA
ATOM     15  H   UNL     1       4.487   3.676  19.377  0.00  0.00    +0.000 HD
BRANCH  13  16
ATOM     16  C   UNL     1       4.620   3.469  16.838  0.00  0.00    +0.000 C 
BRANCH  16  17
ATOM     17  C   UNL     1       5.487   4.675  17.089  0.00  0.00    +0.000 A 
ATOM     18  C   UNL     1       5.105   5.949  16.636  0.00  0.00    +0.000 A 
ATOM     19  C   UNL     1       5.910   7.064  16.887  0.00  0.00    +0.000 A 
ATOM     20  C   UNL     1       7.094   6.922  17.606  0.00  0.00    +0.000 A 
ATOM     21  C   UNL     1       7.468   5.669  18.088  0.00  0.00    +0.000 A 
ATOM     22  C   UNL     1       6.666   4.553  17.837  0.00  0.00    +0.000 A 
ENDBRANCH  16  17
ENDBRANCH  13  16
ENDBRANCH  10  12
ENDBRANCH   8  10
ENDBRANCH   4   8
BRANCH   1  23
ATOM     23  O   UNL     1       1.472  10.246  18.875  0.00  0.00    +0.000 OA
BRANCH  23  30
ATOM     24  C   UNL     1      -3.409  11.229  17.824  0.00  0.00    +0.000 A 
ATOM     25  C   UNL     1      -3.073  11.813  19.055  0.00  0.00    +0.000 A 
ATOM     26  C   UNL     1      -1.821  11.687  19.627  0.00  0.00    +0.000 A 
ATOM     27  N   UNL     1      -1.591  12.360  20.765  0.00  0.00    +0.000 NA
ATOM     28  C   UNL     1      -0.376  12.257  21.329  0.00  0.00    +0.000 A 
ATOM     29  C   UNL     1       0.649  11.510  20.794  0.00  0.00    +0.000 A 
ATOM     30  C   UNL     1       0.439  10.878  19.565  0.00  0.00    +0.000 A 
ATOM     31  C   UNL     1      -0.849  10.902  18.982  0.00  0.00    +0.000 A 
ATOM     32  C   UNL     1      -1.218  10.216  17.803  0.00  0.00    +0.000 A 
ATOM     33  C   UNL     1      -2.486  10.374  17.213  0.00  0.00    +0.000 A 
BRANCH  24  35
ATOM     34  C   UNL     1      -5.772  11.193  18.033  0.00  0.00    +0.000 C 
ATOM     35  O   UNL     1      -4.620  11.484  17.233  0.00  0.00    +0.000 OA
ENDBRANCH  24  35
BRANCH  33  36
ATOM     36  O   UNL     1      -2.603   9.646  16.061  0.00  0.00    +0.000 OA
ATOM     37  C   UNL     1      -2.906  10.287  14.833  0.00  0.00    +0.000 C 
ENDBRANCH  33  36
ENDBRANCH  23  30
ENDBRANCH   1  23
TORSDOF 9
ENDMDL
MODEL 9
REMARK VINA RESULT:      -8.8      3.221     10.342
REMARK  Name = 
REMARK  11 active torsions:
REMARK  status: ('A' for Active; 'I' for Inactive)
REMARK    1  A    between atoms: C_1  and  O_2
REMARK    2  A    between atoms: O_2  and  C_3
REMARK    3  A    between atoms: C_9  and  O_10
REMARK    4  A    between atoms: O_10  and  C_11
REMARK    5  A    between atoms: C_14  and  N_15
REMARK    6  A    between atoms: N_15  and  C_16
REMARK    7  A    between atoms: C_16  and  N_18
REMARK    8  A    between atoms: C_19  and  C_21
REMARK    9  A    between atoms: C_21  and  C_22
REMARK   10  A    between atoms: C_33  and  O_34
REMARK   11  A    between atoms: O_34  and  C_35
REMARK                            x       y       z     vdW  Elec       q    Type
REMARK                         _______ _______ _______ _____ _____    ______ ____
ROOT
ATOM      1  C   UNL     1       2.356   7.532  19.536  0.00  0.00    +0.000 A 
ATOM      2  C   UNL     1       1.516   7.780  20.624  0.00  0.00    +0.000 A 
ATOM      3  C   UNL     1       0.670   8.893  20.607  0.00  0.00    +0.000 A 
ATOM      4  C   UNL     1       0.615   9.743  19.491  0.00  0.00    +0.000 A 
ATOM      5  C   UNL     1       1.320   9.380  18.346  0.00  0.00    +0.000 A 
ATOM      6  C   UNL     1       2.185   8.280  18.374  0.00  0.00    +0.000 A 
ATOM      7  F   UNL     1       2.880   7.975  17.268  0.00  0.00    +0.000 F 
ENDROOT
BRANCH   4   8
ATOM      8  N   UNL     1      -0.165  10.914  19.638  0.00  0.00    +0.000 N 
ATOM      9  H   UNL     1       0.365  11.735  19.940  0.00  0.00    +0.000 HD
BRANCH   8  10
ATOM     10  C   UNL     1      -1.460  11.219  19.275  0.00  0.00    +0.000 C 
ATOM     11  S   UNL     1      -2.339  10.687  17.959  0.00  0.00    +0.000 S 
BRANCH  10  12
ATOM     12  N   UNL     1      -2.091  12.152  20.091  0.00  0.00    +0.000 N 
ATOM     13  C   UNL     1      -1.940  12.342  21.458  0.00  0.00    +0.000 C 
ATOM     14  O   UNL     1      -1.249  11.616  22.169  0.00  0.00    +0.000 OA
ATOM     15  H   UNL     1      -2.695  12.791  19.591  0.00  0.00    +0.000 HD
BRANCH  13  16
ATOM     16  C   UNL     1      -2.673  13.554  22.025  0.00  0.00    +0.000 C 
BRANCH  16  17
ATOM     17  C   UNL     1      -3.940  13.204  22.762  0.00  0.00    +0.000 A 
ATOM     18  C   UNL     1      -5.196  13.333  22.146  0.00  0.00    +0.000 A 
ATOM     19  C   UNL     1      -6.363  12.991  22.833  0.00  0.00    +0.000 A 
ATOM     20  C   UNL     1      -6.289  12.502  24.136  0.00  0.00    +0.000 A 
ATOM     21  C   UNL     1      -5.047  12.339  24.746  0.00  0.00    +0.000 A 
ATOM     22  C   UNL     1      -3.879  12.682  24.061  0.00  0.00    +0.000 A 
ENDBRANCH  16  17
ENDBRANCH  13  16
ENDBRANCH  10  12
ENDBRANCH   8  10
ENDBRANCH   4   8
BRANCH   1  23
ATOM     23  O   UNL     1       3.375   6.599  19.592  0.00  0.00    +0.000 OA
BRANCH  23  30
ATOM     24  C   UNL     1       6.101   4.785  15.697  0.00  0.00    +0.000 A 
ATOM     25  C   UNL     1       4.963   3.985  15.878  0.00  0.00    +0.000 A 
ATOM     26  C   UNL     1       4.044   4.207  16.887  0.00  0.00    +0.000 A 
ATOM     27  N   UNL     1       2.951   3.429  16.910  0.00  0.00    +0.000 NA
ATOM     28  C   UNL     1       2.042   3.638  17.877  0.00  0.00    +0.000 A 
ATOM     29  C   UNL     1       2.168   4.616  18.838  0.00  0.00    +0.000 A 
ATOM     30  C   UNL     1       3.262   5.482  18.766  0.00  0.00    +0.000 A 
ATOM     31  C   UNL     1       4.275   5.244  17.808  0.00  0.00    +0.000 A 
ATOM     32  C   UNL     1       5.479   5.977  17.702  0.00  0.00    +0.000 A 
ATOM     33  C   UNL     1       6.393   5.763  16.654  0.00  0.00    +0.000 A 
BRANCH  24  35
ATOM     34  C   UNL     1       6.340   3.893  13.511  0.00  0.00    +0.000 C 
ATOM     35  O   UNL     1       6.918   4.608  14.610  0.00  0.00    +0.000 OA
ENDBRANCH  24  35
BRANCH  33  36
ATOM     36  O   UNL     1       7.462   6.612  16.732  0.00  0.00    +0.000 OA
ATOM     37  C   UNL     1       7.842   7.177  17.976  0.00  0.00    +0.000 C 
ENDBRANCH  33  36
ENDBRANCH  23  30
ENDBRANCH   1  23
TORSDOF 9
ENDMDL
