MODEL 1
REMARK VINA RESULT:      -7.5      0.000      0.000
REMARK  Name = 
REMARK  7 active torsions:
REMARK  status: ('A' for Active; 'I' for Inactive)
REMARK    1  A    between atoms: C_1  and  C_2
REMARK    2  A    between atoms: C_5  and  C_6
REMARK    3  A    between atoms: C_8  and  N_9
REMARK    4  A    between atoms: N_9  and  C_10
REMARK    5  A    between atoms: N_9  and  C_19
REMARK    6  A    between atoms: C_10  and  C_11
REMARK    7  A    between atoms: C_22  and  N_23
REMARK                            x       y       z     vdW  Elec       q    Type
REMARK                         _______ _______ _______ _____ _____    ______ ____
ROOT
ATOM      1  N   UNL     1      -1.138  11.043  22.013  0.00  0.00    +0.000 NA
ENDROOT
BRANCH   1   2
ATOM      2  C   UNL     1      -1.695  12.012  23.035  0.00  0.00    +0.000 C 
ATOM      3  C   UNL     1      -1.057  13.446  22.998  0.00  0.00    +0.000 C 
ATOM      4  C   UNL     1      -1.588  14.373  24.115  0.00  0.00    +0.000 C 
ATOM      5  C   UNL     1      -3.114  14.473  24.159  0.00  0.00    +0.000 C 
ATOM      6  C   UNL     1      -3.732  13.088  24.128  0.00  0.00    +0.000 C 
ATOM      7  C   UNL     1      -3.220  12.306  22.922  0.00  0.00    +0.000 C 
BRANCH   5   8
ATOM      8  N   UNL     1      -3.563  15.179  25.359  0.00  0.00    +0.000 NA
ATOM      9  H   UNL     1      -4.462  15.627  25.181  0.00  0.00    +0.000 HD
ATOM     10  H   UNL     1      -2.918  15.944  25.561  0.00  0.00    +0.000 HD
ENDBRANCH   5   8
ENDBRANCH   1   2
BRANCH   1  13
ATOM     11  C   UNL     1       0.605   8.915  20.716  0.00  0.00    +0.000 C 
ATOM     12  C   UNL     1      -0.295   8.596  21.938  0.00  0.00    +0.000 C 
ATOM     13  C   UNL     1      -0.074  10.058  22.423  0.00  0.00    +0.000 C 
ATOM     14  C   UNL     1       1.236  10.026  21.626  0.00  0.00    +0.000 C 
BRANCH  11  19
ATOM     15  C   UNL     1       4.161   5.035  18.032  0.00  0.00    +0.000 C 
ATOM     16  C   UNL     1       3.242   5.995  18.724  0.00  0.00    +0.000 A 
ATOM     17  C   UNL     1       2.682   5.693  19.969  0.00  0.00    +0.000 A 
ATOM     18  C   UNL     1       1.849   6.612  20.612  0.00  0.00    +0.000 A 
ATOM     19  C   UNL     1       1.556   7.862  20.047  0.00  0.00    +0.000 A 
ATOM     20  C   UNL     1       2.102   8.124  18.775  0.00  0.00    +0.000 A 
ATOM     21  C   UNL     1       2.933   7.214  18.121  0.00  0.00    +0.000 A 
ENDBRANCH  11  19
ENDBRANCH   1  13
BRANCH   1  22
ATOM     22  C   UNL     1      -0.591  11.788  20.834  0.00  0.00    +0.000 C 
BRANCH  22  23
ATOM     23  C   UNL     1      -1.231  11.561  19.469  0.00  0.00    +0.000 A 
ATOM     24  C   UNL     1      -0.579  10.809  18.482  0.00  0.00    +0.000 A 
ATOM     25  C   UNL     1      -1.254  10.400  17.322  0.00  0.00    +0.000 A 
ATOM     26  C   UNL     1      -2.588  10.754  17.125  0.00  0.00    +0.000 A 
ATOM     27 BR   UNL     1      -3.456  10.070  15.583  0.00  0.00    +0.000 Br
ATOM     28  C   UNL     1      -3.241  11.543  18.077  0.00  0.00    +0.000 A 
ATOM     29 CL   UNL     1      -4.901  12.006  17.919  0.00  0.00    +0.000 Cl
ATOM     30  C   UNL     1      -2.562  11.951  19.235  0.00  0.00    +0.000 A 
ENDBRANCH  22  23
ENDBRANCH   1  22
TORSDOF 6
ENDMDL
MODEL 2
REMARK VINA RESULT:      -7.3      4.648      8.436
REMARK  Name = 
REMARK  7 active torsions:
REMARK  status: ('A' for Active; 'I' for Inactive)
REMARK    1  A    between atoms: C_1  and  C_2
REMARK    2  A    between atoms: C_5  and  C_6
REMARK    3  A    between atoms: C_8  and  N_9
REMARK    4  A    between atoms: N_9  and  C_10
REMARK    5  A    between atoms: N_9  and  C_19
REMARK    6  A    between atoms: C_10  and  C_11
REMARK    7  A    between atoms: C_22  and  N_23
REMARK                            x       y       z     vdW  Elec       q    Type
REMARK                         _______ _______ _______ _____ _____    ______ ____
ROOT
ATOM      1  N   UNL     1       3.287   6.089  17.638  0.00  0.00    +0.000 NA
ENDROOT
BRANCH   1   2
ATOM      2  C   UNL     1       2.618   5.377  18.796  0.00  0.00    +0.000 C 
ATOM      3  C   UNL     1       1.626   4.233  18.381  0.00  0.00    +0.000 C 
ATOM      4  C   UNL     1       0.898   3.597  19.586  0.00  0.00    +0.000 C 
ATOM      5  C   UNL     1       1.843   3.107  20.686  0.00  0.00    +0.000 C 
ATOM      6  C   UNL     1       2.843   4.189  21.041  0.00  0.00    +0.000 C 
ATOM      7  C   UNL     1       3.579   4.661  19.790  0.00  0.00    +0.000 C 
BRANCH   5   8
ATOM      8  N   UNL     1       1.100   2.719  21.886  0.00  0.00    +0.000 NA
ATOM      9  H   UNL     1       1.712   2.762  22.701  0.00  0.00    +0.000 HD
ATOM     10  H   UNL     1       0.825   1.739  21.810  0.00  0.00    +0.000 HD
ENDBRANCH   5   8
ENDBRANCH   1   2
BRANCH   1  13
ATOM     11  C   UNL     1       4.780   4.856  15.293  0.00  0.00    +0.000 C 
ATOM     12  C   UNL     1       4.917   4.294  16.732  0.00  0.00    +0.000 C 
ATOM     13  C   UNL     1       4.705   5.738  17.267  0.00  0.00    +0.000 C 
ATOM     14  C   UNL     1       5.245   6.220  15.914  0.00  0.00    +0.000 C 
BRANCH  11  19
ATOM     15  C   UNL     1       7.611   2.575  10.636  0.00  0.00    +0.000 C 
ATOM     16  C   UNL     1       6.919   3.149  11.835  0.00  0.00    +0.000 A 
ATOM     17  C   UNL     1       7.609   3.930  12.766  0.00  0.00    +0.000 A 
ATOM     18  C   UNL     1       6.942   4.481  13.863  0.00  0.00    +0.000 A 
ATOM     19  C   UNL     1       5.567   4.283  14.063  0.00  0.00    +0.000 A 
ATOM     20  C   UNL     1       4.904   3.461  13.131  0.00  0.00    +0.000 A 
ATOM     21  C   UNL     1       5.560   2.904  12.034  0.00  0.00    +0.000 A 
ENDBRANCH  11  19
ENDBRANCH   1  13
BRANCH   1  22
ATOM     22  C   UNL     1       3.262   7.571  17.856  0.00  0.00    +0.000 C 
BRANCH  22  23
ATOM     23  C   UNL     1       2.167   8.158  18.739  0.00  0.00    +0.000 A 
ATOM     24  C   UNL     1       2.046   7.785  20.085  0.00  0.00    +0.000 A 
ATOM     25  C   UNL     1       1.202   8.490  20.956  0.00  0.00    +0.000 A 
ATOM     26  C   UNL     1       0.451   9.566  20.488  0.00  0.00    +0.000 A 
ATOM     27 BR   UNL     1      -0.583  10.529  21.754  0.00  0.00    +0.000 Br
ATOM     28  C   UNL     1       0.523   9.923  19.137  0.00  0.00    +0.000 A 
ATOM     29 CL   UNL     1      -0.359  11.260  18.482  0.00  0.00    +0.000 Cl
ATOM     30  C   UNL     1       1.367   9.216  18.269  0.00  0.00    +0.000 A 
ENDBRANCH  22  23
ENDBRANCH   1  22
TORSDOF 6
ENDMDL
MODEL 3
REMARK VINA RESULT:      -7.3      3.155      4.873
REMARK  Name = 
REMARK  7 active torsions:
REMARK  status: ('A' for Active; 'I' for Inactive)
REMARK    1  A    between atoms: C_1  and  C_2
REMARK    2  A    between atoms: C_5  and  C_6
REMARK    3  A    between atoms: C_8  and  N_9
REMARK    4  A    between atoms: N_9  and  C_10
REMARK    5  A    between atoms: N_9  and  C_19
REMARK    6  A    between atoms: C_10  and  C_11
REMARK    7  A    between atoms: C_22  and  N_23
REMARK                            x       y       z     vdW  Elec       q    Type
REMARK                         _______ _______ _______ _____ _____    ______ ____
ROOT
ATOM      1  N   UNL     1       0.255  11.364  21.737  0.00  0.00    +0.000 NA
ENDROOT
BRANCH   1   2
ATOM      2  C   UNL     1       1.281  11.929  20.776  0.00  0.00    +0.000 C 
ATOM      3  C   UNL     1       0.870  11.866  19.262  0.00  0.00    +0.000 C 
ATOM      4  C   UNL     1       1.981  12.367  18.313  0.00  0.00    +0.000 C 
ATOM      5  C   UNL     1       2.507  13.761  18.662  0.00  0.00    +0.000 C 
ATOM      6  C   UNL     1       2.842  13.842  20.138  0.00  0.00    +0.000 C 
ATOM      7  C   UNL     1       1.636  13.432  20.978  0.00  0.00    +0.000 C 
BRANCH   5   8
ATOM      8  N   UNL     1       3.696  14.090  17.876  0.00  0.00    +0.000 NA
ATOM      9  H   UNL     1       3.583  15.007  17.444  0.00  0.00    +0.000 HD
ATOM     10  H   UNL     1       3.775  13.436  17.096  0.00  0.00    +0.000 HD
ENDBRANCH   5   8
ENDBRANCH   1   2
BRANCH   1  13
ATOM     11  C   UNL     1       1.230   8.714  20.608  0.00  0.00    +0.000 C 
ATOM     12  C   UNL     1      -0.207   8.881  21.168  0.00  0.00    +0.000 C 
ATOM     13  C   UNL     1       0.356   9.925  22.173  0.00  0.00    +0.000 C 
ATOM     14  C   UNL     1       1.704   9.210  22.019  0.00  0.00    +0.000 C 
BRANCH  11  19
ATOM     15  C   UNL     1       3.347   3.668  18.382  0.00  0.00    +0.000 C 
ATOM     16  C   UNL     1       2.785   4.931  18.958  0.00  0.00    +0.000 A 
ATOM     17  C   UNL     1       2.145   4.939  20.201  0.00  0.00    +0.000 A 
ATOM     18  C   UNL     1       1.652   6.131  20.737  0.00  0.00    +0.000 A 
ATOM     19  C   UNL     1       1.790   7.354  20.062  0.00  0.00    +0.000 A 
ATOM     20  C   UNL     1       2.405   7.312  18.795  0.00  0.00    +0.000 A 
ATOM     21  C   UNL     1       2.899   6.127  18.249  0.00  0.00    +0.000 A 
ENDBRANCH  11  19
ENDBRANCH   1  13
BRANCH   1  22
ATOM     22  C   UNL     1      -1.126  11.541  21.185  0.00  0.00    +0.000 C 
BRANCH  22  23
ATOM     23  C   UNL     1      -2.072  12.509  21.888  0.00  0.00    +0.000 A 
ATOM     24  C   UNL     1      -2.410  13.739  21.307  0.00  0.00    +0.000 A 
ATOM     25  C   UNL     1      -3.452  14.521  21.827  0.00  0.00    +0.000 A 
ATOM     26  C   UNL     1      -4.157  14.093  22.950  0.00  0.00    +0.000 A 
ATOM     27 BR   UNL     1      -5.618  15.158  23.525  0.00  0.00    +0.000 Br
ATOM     28  C   UNL     1      -3.803  12.891  23.571  0.00  0.00    +0.000 A 
ATOM     29 CL   UNL     1      -4.643  12.277  24.954  0.00  0.00    +0.000 Cl
ATOM     30  C   UNL     1      -2.761  12.112  23.048  0.00  0.00    +0.000 A 
ENDBRANCH  22  23
ENDBRANCH   1  22
TORSDOF 6
ENDMDL
MODEL 4
REMARK VINA RESULT:      -7.1      3.091      5.011
REMARK  Name = 
REMARK  7 active torsions:
REMARK  status: ('A' for Active; 'I' for Inactive)
REMARK    1  A    between atoms: C_1  and  C_2
REMARK    2  A    between atoms: C_5  and  C_6
REMARK    3  A    between atoms: C_8  and  N_9
REMARK    4  A    between atoms: N_9  and  C_10
REMARK    5  A    between atoms: N_9  and  C_19
REMARK    6  A    between atoms: C_10  and  C_11
REMARK    7  A    between atoms: C_22  and  N_23
REMARK                            x       y       z     vdW  Elec       q    Type
REMARK                         _______ _______ _______ _____ _____    ______ ____
ROOT
ATOM      1  N   UNL     1       0.169  11.244  22.095  0.00  0.00    +0.000 NA
ENDROOT
BRANCH   1   2
ATOM      2  C   UNL     1       0.944  11.818  20.926  0.00  0.00    +0.000 C 
ATOM      3  C   UNL     1       0.076  12.146  19.659  0.00  0.00    +0.000 C 
ATOM      4  C   UNL     1       0.918  12.642  18.462  0.00  0.00    +0.000 C 
ATOM      5  C   UNL     1       1.832  13.822  18.799  0.00  0.00    +0.000 C 
ATOM      6  C   UNL     1       2.622  13.532  20.060  0.00  0.00    +0.000 C 
ATOM      7  C   UNL     1       1.679  13.162  21.202  0.00  0.00    +0.000 C 
BRANCH   5   8
ATOM      8  N   UNL     1       2.756  14.105  17.701  0.00  0.00    +0.000 NA
ATOM      9  H   UNL     1       2.233  14.361  16.864  0.00  0.00    +0.000 HD
ATOM     10  H   UNL     1       3.255  13.250  17.453  0.00  0.00    +0.000 HD
ENDBRANCH   5   8
ENDBRANCH   1   2
BRANCH   1  13
ATOM     11  C   UNL     1       1.175   8.699  20.767  0.00  0.00    +0.000 C 
ATOM     12  C   UNL     1      -0.260   8.803  21.346  0.00  0.00    +0.000 C 
ATOM     13  C   UNL     1       0.295   9.778  22.423  0.00  0.00    +0.000 C 
ATOM     14  C   UNL     1       1.652   9.096  22.208  0.00  0.00    +0.000 C 
BRANCH  11  19
ATOM     15  C   UNL     1       3.352   3.864  18.162  0.00  0.00    +0.000 C 
ATOM     16  C   UNL     1       2.775   5.073  18.834  0.00  0.00    +0.000 A 
ATOM     17  C   UNL     1       2.135   4.978  20.073  0.00  0.00    +0.000 A 
ATOM     18  C   UNL     1       1.629   6.120  20.698  0.00  0.00    +0.000 A 
ATOM     19  C   UNL     1       1.752   7.392  20.119  0.00  0.00    +0.000 A 
ATOM     20  C   UNL     1       2.366   7.454  18.853  0.00  0.00    +0.000 A 
ATOM     21  C   UNL     1       2.873   6.321  18.218  0.00  0.00    +0.000 A 
ENDBRANCH  11  19
ENDBRANCH   1  13
BRANCH   1  22
ATOM     22  C   UNL     1      -1.294  11.516  21.932  0.00  0.00    +0.000 C 
BRANCH  22  23
ATOM     23  C   UNL     1      -1.944  12.564  22.830  0.00  0.00    +0.000 A 
ATOM     24  C   UNL     1      -1.200  13.634  23.346  0.00  0.00    +0.000 A 
ATOM     25  C   UNL     1      -1.834  14.718  23.970  0.00  0.00    +0.000 A 
ATOM     26  C   UNL     1      -3.221  14.738  24.104  0.00  0.00    +0.000 A 
ATOM     27 BR   UNL     1      -4.005  16.290  24.864  0.00  0.00    +0.000 Br
ATOM     28  C   UNL     1      -3.976  13.658  23.636  0.00  0.00    +0.000 A 
ATOM     29 CL   UNL     1      -5.703  13.615  23.742  0.00  0.00    +0.000 Cl
ATOM     30  C   UNL     1      -3.339  12.575  23.014  0.00  0.00    +0.000 A 
ENDBRANCH  22  23
ENDBRANCH   1  22
TORSDOF 6
ENDMDL
MODEL 5
REMARK VINA RESULT:      -6.9      3.274      8.039
REMARK  Name = 
REMARK  7 active torsions:
REMARK  status: ('A' for Active; 'I' for Inactive)
REMARK    1  A    between atoms: C_1  and  C_2
REMARK    2  A    between atoms: C_5  and  C_6
REMARK    3  A    between atoms: C_8  and  N_9
REMARK    4  A    between atoms: N_9  and  C_10
REMARK    5  A    between atoms: N_9  and  C_19
REMARK    6  A    between atoms: C_10  and  C_11
REMARK    7  A    between atoms: C_22  and  N_23
REMARK                            x       y       z     vdW  Elec       q    Type
REMARK                         _______ _______ _______ _____ _____    ______ ____
ROOT
ATOM      1  N   UNL     1       0.428  10.469  19.480  0.00  0.00    +0.000 NA
ENDROOT
BRANCH   1   2
ATOM      2  C   UNL     1       1.466   9.374  19.342  0.00  0.00    +0.000 C 
ATOM      3  C   UNL     1       1.187   8.090  20.202  0.00  0.00    +0.000 C 
ATOM      4  C   UNL     1       2.315   7.038  20.102  0.00  0.00    +0.000 C 
ATOM      5  C   UNL     1       2.668   6.648  18.665  0.00  0.00    +0.000 C 
ATOM      6  C   UNL     1       2.874   7.890  17.819  0.00  0.00    +0.000 C 
ATOM      7  C   UNL     1       1.651   8.799  17.907  0.00  0.00    +0.000 C 
BRANCH   5   8
ATOM      8  N   UNL     1       3.877   5.826  18.622  0.00  0.00    +0.000 NA
ATOM      9  H   UNL     1       4.036   5.395  19.533  0.00  0.00    +0.000 HD
ATOM     10  H   UNL     1       4.687   6.427  18.466  0.00  0.00    +0.000 HD
ENDBRANCH   5   8
ENDBRANCH   1   2
BRANCH   1  13
ATOM     11  C   UNL     1      -2.414  11.387  18.909  0.00  0.00    +0.000 C 
ATOM     12  C   UNL     1      -1.798  10.155  18.196  0.00  0.00    +0.000 C 
ATOM     13  C   UNL     1      -0.411  10.853  18.289  0.00  0.00    +0.000 C 
ATOM     14  C   UNL     1      -1.184  12.177  18.339  0.00  0.00    +0.000 C 
BRANCH  11  19
ATOM     15  C   UNL     1      -7.878  13.424  17.964  0.00  0.00    +0.000 C 
ATOM     16  C   UNL     1      -6.499  12.882  18.185  0.00  0.00    +0.000 A 
ATOM     17  C   UNL     1      -5.808  12.219  17.167  0.00  0.00    +0.000 A 
ATOM     18  C   UNL     1      -4.512  11.745  17.381  0.00  0.00    +0.000 A 
ATOM     19  C   UNL     1      -3.857  11.925  18.609  0.00  0.00    +0.000 A 
ATOM     20  C   UNL     1      -4.590  12.562  19.630  0.00  0.00    +0.000 A 
ATOM     21  C   UNL     1      -5.885  13.037  19.428  0.00  0.00    +0.000 A 
ENDBRANCH  11  19
ENDBRANCH   1  13
BRANCH   1  22
ATOM     22  C   UNL     1       1.067  11.731  19.971  0.00  0.00    +0.000 C 
BRANCH  22  23
ATOM     23  C   UNL     1       0.439  12.450  21.160  0.00  0.00    +0.000 A 
ATOM     24  C   UNL     1       0.751  13.786  21.443  0.00  0.00    +0.000 A 
ATOM     25  C   UNL     1       0.007  14.518  22.381  0.00  0.00    +0.000 A 
ATOM     26  C   UNL     1      -1.049  13.916  23.063  0.00  0.00    +0.000 A 
ATOM     27 BR   UNL     1      -2.069  15.006  24.234  0.00  0.00    +0.000 Br
ATOM     28  C   UNL     1      -1.345  12.570  22.827  0.00  0.00    +0.000 A 
ATOM     29 CL   UNL     1      -2.653  11.755  23.615  0.00  0.00    +0.000 Cl
ATOM     30  C   UNL     1      -0.599  11.841  21.890  0.00  0.00    +0.000 A 
ENDBRANCH  22  23
ENDBRANCH   1  22
TORSDOF 6
ENDMDL
MODEL 6
REMARK VINA RESULT:      -6.9      8.172     11.225
REMARK  Name = 
REMARK  7 active torsions:
REMARK  status: ('A' for Active; 'I' for Inactive)
REMARK    1  A    between atoms: C_1  and  C_2
REMARK    2  A    between atoms: C_5  and  C_6
REMARK    3  A    between atoms: C_8  and  N_9
REMARK    4  A    between atoms: N_9  and  C_10
REMARK    5  A    between atoms: N_9  and  C_19
REMARK    6  A    between atoms: C_10  and  C_11
REMARK    7  A    between atoms: C_22  and  N_23
REMARK                            x       y       z     vdW  Elec       q    Type
REMARK                         _______ _______ _______ _____ _____    ______ ____
ROOT
ATOM      1  N   UNL     1       6.522   6.390  17.886  0.00  0.00    +0.000 NA
ENDROOT
BRANCH   1   2
ATOM      2  C   UNL     1       6.020   5.568  16.716  0.00  0.00    +0.000 C 
ATOM      3  C   UNL     1       5.633   6.402  15.443  0.00  0.00    +0.000 C 
ATOM      4  C   UNL     1       5.041   5.536  14.309  0.00  0.00    +0.000 C 
ATOM      5  C   UNL     1       5.923   4.348  13.917  0.00  0.00    +0.000 C 
ATOM      6  C   UNL     1       6.350   3.580  15.153  0.00  0.00    +0.000 C 
ATOM      7  C   UNL     1       7.022   4.518  16.153  0.00  0.00    +0.000 C 
BRANCH   5   8
ATOM      8  N   UNL     1       5.221   3.447  13.004  0.00  0.00    +0.000 NA
ATOM      9  H   UNL     1       5.805   3.252  12.192  0.00  0.00    +0.000 HD
ATOM     10  H   UNL     1       4.396   3.920  12.632  0.00  0.00    +0.000 HD
ENDBRANCH   5   8
ENDBRANCH   1   2
BRANCH   1  13
ATOM     11  C   UNL     1       8.123   8.904  18.488  0.00  0.00    +0.000 C 
ATOM     12  C   UNL     1       8.295   8.129  17.156  0.00  0.00    +0.000 C 
ATOM     13  C   UNL     1       7.965   6.820  17.928  0.00  0.00    +0.000 C 
ATOM     14  C   UNL     1       8.474   7.542  19.183  0.00  0.00    +0.000 C 
BRANCH  11  19
ATOM     15  C   UNL     1      11.328  13.713  19.714  0.00  0.00    +0.000 C 
ATOM     16  C   UNL     1      10.532  12.477  19.425  0.00  0.00    +0.000 A 
ATOM     17  C   UNL     1      10.184  11.584  20.443  0.00  0.00    +0.000 A 
ATOM     18  C   UNL     1       9.418  10.451  20.160  0.00  0.00    +0.000 A 
ATOM     19  C   UNL     1       8.962  10.176  18.861  0.00  0.00    +0.000 A 
ATOM     20  C   UNL     1       9.358  11.072  17.849  0.00  0.00    +0.000 A 
ATOM     21  C   UNL     1      10.125  12.205  18.119  0.00  0.00    +0.000 A 
ENDBRANCH  11  19
ENDBRANCH   1  13
BRANCH   1  22
ATOM     22  C   UNL     1       6.256   5.674  19.174  0.00  0.00    +0.000 C 
BRANCH  22  23
ATOM     23  C   UNL     1       4.947   4.908  19.325  0.00  0.00    +0.000 A 
ATOM     24  C   UNL     1       3.739   5.579  19.558  0.00  0.00    +0.000 A 
ATOM     25  C   UNL     1       2.511   4.909  19.461  0.00  0.00    +0.000 A 
ATOM     26  C   UNL     1       2.474   3.551  19.149  0.00  0.00    +0.000 A 
ATOM     27 BR   UNL     1       0.769   2.748  18.934  0.00  0.00    +0.000 Br
ATOM     28  C   UNL     1       3.672   2.854  18.959  0.00  0.00    +0.000 A 
ATOM     29 CL   UNL     1       3.713   1.174  18.547  0.00  0.00    +0.000 Cl
ATOM     30  C   UNL     1       4.898   3.527  19.057  0.00  0.00    +0.000 A 
ENDBRANCH  22  23
ENDBRANCH   1  22
TORSDOF 6
ENDMDL
MODEL 7
REMARK VINA RESULT:      -6.9      5.314     10.875
REMARK  Name = 
REMARK  7 active torsions:
REMARK  status: ('A' for Active; 'I' for Inactive)
REMARK    1  A    between atoms: C_1  and  C_2
REMARK    2  A    between atoms: C_5  and  C_6
REMARK    3  A    between atoms: C_8  and  N_9
REMARK    4  A    between atoms: N_9  and  C_10
REMARK    5  A    between atoms: N_9  and  C_19
REMARK    6  A    between atoms: C_10  and  C_11
REMARK    7  A    between atoms: C_22  and  N_23
REMARK                            x       y       z     vdW  Elec       q    Type
REMARK                         _______ _______ _______ _____ _____    ______ ____
ROOT
ATOM      1  N   UNL     1       4.702   4.868  16.459  0.00  0.00    +0.000 NA
ENDROOT
BRANCH   1   2
ATOM      2  C   UNL     1       5.330   4.886  15.081  0.00  0.00    +0.000 C 
ATOM      3  C   UNL     1       6.896   5.007  15.073  0.00  0.00    +0.000 C 
ATOM      4  C   UNL     1       7.487   5.113  13.649  0.00  0.00    +0.000 C 
ATOM      5  C   UNL     1       7.036   3.992  12.710  0.00  0.00    +0.000 C 
ATOM      6  C   UNL     1       5.530   3.832  12.767  0.00  0.00    +0.000 C 
ATOM      7  C   UNL     1       5.074   3.622  14.208  0.00  0.00    +0.000 C 
BRANCH   5   8
ATOM      8  N   UNL     1       7.444   4.262  11.331  0.00  0.00    +0.000 NA
ATOM      9  H   UNL     1       7.906   5.169  11.277  0.00  0.00    +0.000 HD
ATOM     10  H   UNL     1       6.612   4.350  10.745  0.00  0.00    +0.000 HD
ENDBRANCH   5   8
ENDBRANCH   1   2
BRANCH   1  13
ATOM     11  C   UNL     1       3.070   7.069  17.779  0.00  0.00    +0.000 C 
ATOM     12  C   UNL     1       4.329   7.386  16.931  0.00  0.00    +0.000 C 
ATOM     13  C   UNL     1       4.927   6.028  17.395  0.00  0.00    +0.000 C 
ATOM     14  C   UNL     1       4.022   6.156  18.628  0.00  0.00    +0.000 C 
BRANCH  11  19
ATOM     15  C   UNL     1      -0.144  11.080  20.692  0.00  0.00    +0.000 C 
ATOM     16  C   UNL     1       0.654  10.069  19.927  0.00  0.00    +0.000 A 
ATOM     17  C   UNL     1       0.976  10.266  18.582  0.00  0.00    +0.000 A 
ATOM     18  C   UNL     1       1.745   9.327  17.891  0.00  0.00    +0.000 A 
ATOM     19  C   UNL     1       2.228   8.167  18.518  0.00  0.00    +0.000 A 
ATOM     20  C   UNL     1       1.856   7.974  19.863  0.00  0.00    +0.000 A 
ATOM     21  C   UNL     1       1.087   8.904  20.562  0.00  0.00    +0.000 A 
ENDBRANCH  11  19
ENDBRANCH   1  13
BRANCH   1  22
ATOM     22  C   UNL     1       5.117   3.637  17.204  0.00  0.00    +0.000 C 
BRANCH  22  23
ATOM     23  C   UNL     1       4.209   3.115  18.311  0.00  0.00    +0.000 A 
ATOM     24  C   UNL     1       4.682   2.959  19.621  0.00  0.00    +0.000 A 
ATOM     25  C   UNL     1       3.800   2.709  20.682  0.00  0.00    +0.000 A 
ATOM     26  C   UNL     1       2.432   2.592  20.445  0.00  0.00    +0.000 A 
ATOM     27 BR   UNL     1       1.299   2.360  21.949  0.00  0.00    +0.000 Br
ATOM     28  C   UNL     1       1.946   2.699  19.138  0.00  0.00    +0.000 A 
ATOM     29 CL   UNL     1       0.260   2.589  18.762  0.00  0.00    +0.000 Cl
ATOM     30  C   UNL     1       2.831   2.948  18.079  0.00  0.00    +0.000 A 
ENDBRANCH  22  23
ENDBRANCH   1  22
TORSDOF 6
ENDMDL
MODEL 8
REMARK VINA RESULT:      -6.8      3.040      4.277
REMARK  Name = 
REMARK  7 active torsions:
REMARK  status: ('A' for Active; 'I' for Inactive)
REMARK    1  A    between atoms: C_1  and  C_2
REMARK    2  A    between atoms: C_5  and  C_6
REMARK    3  A    between atoms: C_8  and  N_9
REMARK    4  A    between atoms: N_9  and  C_10
REMARK    5  A    between atoms: N_9  and  C_19
REMARK    6  A    between atoms: C_10  and  C_11
REMARK    7  A    between atoms: C_22  and  N_23
REMARK                            x       y       z     vdW  Elec       q    Type
REMARK                         _______ _______ _______ _____ _____    ______ ____
ROOT
ATOM      1  N   UNL     1       0.016  11.490  19.476  0.00  0.00    +0.000 NA
ENDROOT
BRANCH   1   2
ATOM      2  C   UNL     1       1.360  12.184  19.556  0.00  0.00    +0.000 C 
ATOM      3  C   UNL     1       1.744  13.022  18.285  0.00  0.00    +0.000 C 
ATOM      4  C   UNL     1       3.159  13.637  18.371  0.00  0.00    +0.000 C 
ATOM      5  C   UNL     1       3.397  14.458  19.640  0.00  0.00    +0.000 C 
ATOM      6  C   UNL     1       2.964  13.674  20.863  0.00  0.00    +0.000 C 
ATOM      7  C   UNL     1       1.517  13.215  20.713  0.00  0.00    +0.000 C 
BRANCH   5   8
ATOM      8  N   UNL     1       4.806  14.828  19.774  0.00  0.00    +0.000 NA
ATOM      9  H   UNL     1       4.973  15.232  20.695  0.00  0.00    +0.000 HD
ATOM     10  H   UNL     1       5.022  15.575  19.112  0.00  0.00    +0.000 HD
ENDBRANCH   5   8
ENDBRANCH   1   2
BRANCH   1  13
ATOM     11  C   UNL     1       1.639   9.111  18.498  0.00  0.00    +0.000 C 
ATOM     12  C   UNL     1       0.131   9.260  18.167  0.00  0.00    +0.000 C 
ATOM     13  C   UNL     1      -0.050   9.985  19.531  0.00  0.00    +0.000 C 
ATOM     14  C   UNL     1       1.194   9.218  19.999  0.00  0.00    +0.000 C 
BRANCH  11  19
ATOM     15  C   UNL     1       4.793   4.362  16.951  0.00  0.00    +0.000 C 
ATOM     16  C   UNL     1       4.021   5.582  17.351  0.00  0.00    +0.000 A 
ATOM     17  C   UNL     1       4.507   6.866  17.090  0.00  0.00    +0.000 A 
ATOM     18  C   UNL     1       3.760   7.992  17.444  0.00  0.00    +0.000 A 
ATOM     19  C   UNL     1       2.502   7.879  18.056  0.00  0.00    +0.000 A 
ATOM     20  C   UNL     1       2.054   6.574  18.342  0.00  0.00    +0.000 A 
ATOM     21  C   UNL     1       2.792   5.443  17.996  0.00  0.00    +0.000 A 
ENDBRANCH  11  19
ENDBRANCH   1  13
BRANCH   1  22
ATOM     22  C   UNL     1      -0.707  11.899  18.230  0.00  0.00    +0.000 C 
BRANCH  22  23
ATOM     23  C   UNL     1      -2.232  11.927  18.249  0.00  0.00    +0.000 A 
ATOM     24  C   UNL     1      -2.978  11.391  17.191  0.00  0.00    +0.000 A 
ATOM     25  C   UNL     1      -4.362  11.201  17.307  0.00  0.00    +0.000 A 
ATOM     26  C   UNL     1      -5.024  11.563  18.479  0.00  0.00    +0.000 A 
ATOM     27 BR   UNL     1      -6.878  11.174  18.593  0.00  0.00    +0.000 Br
ATOM     28  C   UNL     1      -4.304  12.142  19.529  0.00  0.00    +0.000 A 
ATOM     29 CL   UNL     1      -5.046  12.598  21.024  0.00  0.00    +0.000 Cl
ATOM     30  C   UNL     1      -2.920  12.332  19.408  0.00  0.00    +0.000 A 
ENDBRANCH  22  23
ENDBRANCH   1  22
TORSDOF 6
ENDMDL
MODEL 9
REMARK VINA RESULT:      -6.8      3.473      4.822
REMARK  Name = 
REMARK  7 active torsions:
REMARK  status: ('A' for Active; 'I' for Inactive)
REMARK    1  A    between atoms: C_1  and  C_2
REMARK    2  A    between atoms: C_5  and  C_6
REMARK    3  A    between atoms: C_8  and  N_9
REMARK    4  A    between atoms: N_9  and  C_10
REMARK    5  A    between atoms: N_9  and  C_19
REMARK    6  A    between atoms: C_10  and  C_11
REMARK    7  A    between atoms: C_22  and  N_23
REMARK                            x       y       z     vdW  Elec       q    Type
REMARK                         _______ _______ _______ _____ _____    ______ ____
ROOT
ATOM      1  N   UNL     1       0.178  12.526  19.278  0.00  0.00    +0.000 NA
ENDROOT
BRANCH   1   2
ATOM      2  C   UNL     1       1.053  13.750  19.097  0.00  0.00    +0.000 C 
ATOM      3  C   UNL     1       0.274  15.110  19.013  0.00  0.00    +0.000 C 
ATOM      4  C   UNL     1       1.196  16.319  18.736  0.00  0.00    +0.000 C 
ATOM      5  C   UNL     1       2.366  16.437  19.715  0.00  0.00    +0.000 C 
ATOM      6  C   UNL     1       3.079  15.106  19.845  0.00  0.00    +0.000 C 
ATOM      7  C   UNL     1       2.088  14.010  20.230  0.00  0.00    +0.000 C 
BRANCH   5   8
ATOM      8  N   UNL     1       3.319  17.457  19.278  0.00  0.00    +0.000 NA
ATOM      9  H   UNL     1       3.567  18.059  20.063  0.00  0.00    +0.000 HD
ATOM     10  H   UNL     1       2.866  18.074  18.601  0.00  0.00    +0.000 HD
ENDBRANCH   5   8
ENDBRANCH   1   2
BRANCH   1  13
ATOM     11  C   UNL     1       1.273   9.689  19.273  0.00  0.00    +0.000 C 
ATOM     12  C   UNL     1       1.720  10.737  18.219  0.00  0.00    +0.000 C 
ATOM     13  C   UNL     1       0.304  11.372  18.319  0.00  0.00    +0.000 C 
ATOM     14  C   UNL     1      -0.183   9.990  18.773  0.00  0.00    +0.000 C 
BRANCH  11  19
ATOM     15  C   UNL     1       3.143   4.089  19.477  0.00  0.00    +0.000 C 
ATOM     16  C   UNL     1       2.696   5.517  19.410  0.00  0.00    +0.000 A 
ATOM     17  C   UNL     1       2.943   6.302  18.279  0.00  0.00    +0.000 A 
ATOM     18  C   UNL     1       2.493   7.623  18.221  0.00  0.00    +0.000 A 
ATOM     19  C   UNL     1       1.774   8.203  19.278  0.00  0.00    +0.000 A 
ATOM     20  C   UNL     1       1.573   7.403  20.420  0.00  0.00    +0.000 A 
ATOM     21  C   UNL     1       2.019   6.083  20.490  0.00  0.00    +0.000 A 
ENDBRANCH  11  19
ENDBRANCH   1  13
BRANCH   1  22
ATOM     22  C   UNL     1      -1.268  12.918  19.281  0.00  0.00    +0.000 C 
BRANCH  22  23
ATOM     23  C   UNL     1      -2.099  12.625  20.525  0.00  0.00    +0.000 A 
ATOM     24  C   UNL     1      -1.504  12.119  21.689  0.00  0.00    +0.000 A 
ATOM     25  C   UNL     1      -2.212  12.071  22.899  0.00  0.00    +0.000 A 
ATOM     26  C   UNL     1      -3.533  12.511  22.957  0.00  0.00    +0.000 A 
ATOM     27 BR   UNL     1      -4.381  12.512  24.654  0.00  0.00    +0.000 Br
ATOM     28  C   UNL     1      -4.158  12.976  21.796  0.00  0.00    +0.000 A 
ATOM     29 CL   UNL     1      -5.786  13.562  21.788  0.00  0.00    +0.000 Cl
ATOM     30  C   UNL     1      -3.447  13.022  20.588  0.00  0.00    +0.000 A 
ENDBRANCH  22  23
ENDBRANCH   1  22
TORSDOF 6
ENDMDL
