MODEL 1
REMARK VINA RESULT:      -7.6      0.000      0.000
REMARK  Name = 
REMARK  11 active torsions:
REMARK  status: ('A' for Active; 'I' for Inactive)
REMARK    1  A    between atoms: C_1  and  C_2
REMARK    2  A    between atoms: C_2  and  O_3
REMARK    3  A    between atoms: O_3  and  C_4
REMARK    4  A    between atoms: C_6  and  C_7
REMARK    5  A    between atoms: C_21  and  C_22
REMARK    6  A    between atoms: C_29  and  O_30
REMARK    7  A    between atoms: O_30  and  C_31
REMARK    8  A    between atoms: C_31  and  C_32
REMARK    9  A    between atoms: C_33  and  O_34
REMARK   10  A    between atoms: O_34  and  C_35
REMARK   11  A    between atoms: C_35  and  C_36
REMARK                            x       y       z     vdW  Elec       q    Type
REMARK                         _______ _______ _______ _____ _____    ______ ____
ROOT
ATOM      1  C   UNL     1       1.616  10.264  18.289  0.00  0.00    +0.000 C 
ATOM      2  O   UNL     1       2.460  11.131  18.107  0.00  0.00    +0.000 OA
ATOM      3  N   UNL     1       0.223  10.579  18.404  0.00  0.00    +0.000 N 
ATOM      4  C   UNL     1      -0.805   9.616  17.882  0.00  0.00    +0.000 C 
ATOM      5  C   UNL     1      -1.935  10.187  16.937  0.00  0.00    +0.000 C 
ATOM      6  C   UNL     1      -2.531  11.380  17.586  0.00  0.00    +0.000 A 
ATOM      7  C   UNL     1      -1.778  11.990  18.573  0.00  0.00    +0.000 A 
ATOM      8  N   UNL     1      -2.665  11.978  19.644  0.00  0.00    +0.000 N 
ATOM      9  C   UNL     1      -3.973  11.820  19.156  0.00  0.00    +0.000 A 
ATOM     10  C   UNL     1      -5.224  11.653  19.790  0.00  0.00    +0.000 A 
ATOM     11  C   UNL     1      -6.373  11.658  18.970  0.00  0.00    +0.000 A 
ATOM     12  C   UNL     1      -6.273  11.826  17.596  0.00  0.00    +0.000 A 
ATOM     13  C   UNL     1      -5.030  11.823  16.975  0.00  0.00    +0.000 A 
ATOM     14  C   UNL     1      -3.873  11.766  17.771  0.00  0.00    +0.000 A 
ATOM     15  C   UNL     1      -0.249  12.007  18.469  0.00  0.00    +0.000 C 
ATOM     16  H   UNL     1      -2.410  11.983  20.623  0.00  0.00    +0.000 HD
ENDROOT
BRANCH   1  19
ATOM     17  C   UNL     1       2.227   6.690  19.676  0.00  0.00    +0.000 A 
ATOM     18  C   UNL     1       1.821   8.041  19.544  0.00  0.00    +0.000 A 
ATOM     19  C   UNL     1       2.120   8.814  18.436  0.00  0.00    +0.000 A 
ATOM     20  C   UNL     1       3.026   8.253  17.512  0.00  0.00    +0.000 A 
ATOM     21  C   UNL     1       3.583   6.949  17.696  0.00  0.00    +0.000 A 
ATOM     22  C   UNL     1       3.138   6.131  18.760  0.00  0.00    +0.000 A 
BRANCH  17  23
ATOM     23  O   UNL     1       1.805   5.947  20.759  0.00  0.00    +0.000 OA
BRANCH  23  25
ATOM     24  C   UNL     1       1.434   3.594  21.166  0.00  0.00    +0.000 C 
ATOM     25  C   UNL     1       0.971   4.830  20.421  0.00  0.00    +0.000 C 
ENDBRANCH  23  25
ENDBRANCH  17  23
BRANCH  21  26
ATOM     26  O   UNL     1       4.527   6.622  16.746  0.00  0.00    +0.000 OA
BRANCH  26  27
ATOM     27  C   UNL     1       5.902   6.916  17.027  0.00  0.00    +0.000 C 
ATOM     28  C   UNL     1       6.712   5.627  16.996  0.00  0.00    +0.000 C 
ENDBRANCH  26  27
ENDBRANCH  21  26
BRANCH  22  29
ATOM     29  O   UNL     1       3.703   4.883  18.902  0.00  0.00    +0.000 OA
BRANCH  29  30
ATOM     30  C   UNL     1       3.382   3.869  17.944  0.00  0.00    +0.000 C 
ATOM     31  C   UNL     1       3.783   2.501  18.500  0.00  0.00    +0.000 C 
ENDBRANCH  29  30
ENDBRANCH  22  29
ENDBRANCH   1  19
BRANCH  15  32
ATOM     32  C   UNL     1       0.446  13.082  19.307  0.00  0.00    +0.000 A 
ATOM     33  C   UNL     1       0.719  12.973  20.661  0.00  0.00    +0.000 A 
ATOM     34  C   UNL     1       1.411  13.975  21.352  0.00  0.00    +0.000 A 
ATOM     35  C   UNL     1       1.863  15.105  20.685  0.00  0.00    +0.000 A 
ATOM     36  C   UNL     1       1.611  15.257  19.325  0.00  0.00    +0.000 A 
ATOM     37  C   UNL     1       0.909  14.260  18.643  0.00  0.00    +0.000 A 
ENDBRANCH  15  32
TORSDOF 8
ENDMDL
MODEL 2
REMARK VINA RESULT:      -7.6      1.326      1.825
REMARK  Name = 
REMARK  11 active torsions:
REMARK  status: ('A' for Active; 'I' for Inactive)
REMARK    1  A    between atoms: C_1  and  C_2
REMARK    2  A    between atoms: C_2  and  O_3
REMARK    3  A    between atoms: O_3  and  C_4
REMARK    4  A    between atoms: C_6  and  C_7
REMARK    5  A    between atoms: C_21  and  C_22
REMARK    6  A    between atoms: C_29  and  O_30
REMARK    7  A    between atoms: O_30  and  C_31
REMARK    8  A    between atoms: C_31  and  C_32
REMARK    9  A    between atoms: C_33  and  O_34
REMARK   10  A    between atoms: O_34  and  C_35
REMARK   11  A    between atoms: C_35  and  C_36
REMARK                            x       y       z     vdW  Elec       q    Type
REMARK                         _______ _______ _______ _____ _____    ______ ____
ROOT
ATOM      1  C   UNL     1       2.060   9.945  18.171  0.00  0.00    +0.000 C 
ATOM      2  O   UNL     1       2.812  10.636  17.497  0.00  0.00    +0.000 OA
ATOM      3  N   UNL     1       0.913  10.498  18.828  0.00  0.00    +0.000 N 
ATOM      4  C   UNL     1      -0.332   9.671  18.978  0.00  0.00    +0.000 C 
ATOM      5  C   UNL     1      -1.704  10.321  18.539  0.00  0.00    +0.000 C 
ATOM      6  C   UNL     1      -1.813  11.657  19.173  0.00  0.00    +0.000 A 
ATOM      7  C   UNL     1      -0.635  12.232  19.614  0.00  0.00    +0.000 A 
ATOM      8  N   UNL     1      -0.932  12.481  20.950  0.00  0.00    +0.000 N 
ATOM      9  C   UNL     1      -2.327  12.492  21.116  0.00  0.00    +0.000 A 
ATOM     10  C   UNL     1      -3.160  12.604  22.250  0.00  0.00    +0.000 A 
ATOM     11  C   UNL     1      -4.550  12.715  22.026  0.00  0.00    +0.000 A 
ATOM     12  C   UNL     1      -5.071  12.719  20.740  0.00  0.00    +0.000 A 
ATOM     13  C   UNL     1      -4.256  12.445  19.649  0.00  0.00    +0.000 A 
ATOM     14  C   UNL     1      -2.876  12.278  19.857  0.00  0.00    +0.000 A 
ATOM     15  C   UNL     1       0.671  11.983  18.852  0.00  0.00    +0.000 C 
ATOM     16  H   UNL     1      -0.260  12.545  21.703  0.00  0.00    +0.000 HD
ENDROOT
BRANCH   1  19
ATOM     17  C   UNL     1       2.366   6.346  19.594  0.00  0.00    +0.000 A 
ATOM     18  C   UNL     1       2.090   7.729  19.454  0.00  0.00    +0.000 A 
ATOM     19  C   UNL     1       2.426   8.455  18.324  0.00  0.00    +0.000 A 
ATOM     20  C   UNL     1       3.239   7.796  17.380  0.00  0.00    +0.000 A 
ATOM     21  C   UNL     1       3.672   6.445  17.567  0.00  0.00    +0.000 A 
ATOM     22  C   UNL     1       3.187   5.688  18.658  0.00  0.00    +0.000 A 
BRANCH  17  23
ATOM     23  O   UNL     1       1.912   5.662  20.702  0.00  0.00    +0.000 OA
BRANCH  23  25
ATOM     24  C   UNL     1       1.337   3.363  21.179  0.00  0.00    +0.000 C 
ATOM     25  C   UNL     1       0.974   4.616  20.408  0.00  0.00    +0.000 C 
ENDBRANCH  23  25
ENDBRANCH  17  23
BRANCH  21  26
ATOM     26  O   UNL     1       4.547   6.016  16.591  0.00  0.00    +0.000 OA
BRANCH  26  27
ATOM     27  C   UNL     1       5.950   6.226  16.798  0.00  0.00    +0.000 C 
ATOM     28  C   UNL     1       6.704   4.936  16.502  0.00  0.00    +0.000 C 
ENDBRANCH  26  27
ENDBRANCH  21  26
BRANCH  22  29
ATOM     29  O   UNL     1       3.631   4.393  18.801  0.00  0.00    +0.000 OA
BRANCH  29  30
ATOM     30  C   UNL     1       3.238   3.419  17.829  0.00  0.00    +0.000 C 
ATOM     31  C   UNL     1       3.502   2.017  18.381  0.00  0.00    +0.000 C 
ENDBRANCH  29  30
ENDBRANCH  22  29
ENDBRANCH   1  19
BRANCH  15  32
ATOM     32  C   UNL     1       1.778  13.009  19.108  0.00  0.00    +0.000 A 
ATOM     33  C   UNL     1       2.250  13.911  18.167  0.00  0.00    +0.000 A 
ATOM     34  C   UNL     1       3.227  14.861  18.489  0.00  0.00    +0.000 A 
ATOM     35  C   UNL     1       3.735  14.937  19.778  0.00  0.00    +0.000 A 
ATOM     36  C   UNL     1       3.290  14.051  20.755  0.00  0.00    +0.000 A 
ATOM     37  C   UNL     1       2.324  13.097  20.424  0.00  0.00    +0.000 A 
ENDBRANCH  15  32
TORSDOF 8
ENDMDL
MODEL 3
REMARK VINA RESULT:      -7.2      0.456      2.696
REMARK  Name = 
REMARK  11 active torsions:
REMARK  status: ('A' for Active; 'I' for Inactive)
REMARK    1  A    between atoms: C_1  and  C_2
REMARK    2  A    between atoms: C_2  and  O_3
REMARK    3  A    between atoms: O_3  and  C_4
REMARK    4  A    between atoms: C_6  and  C_7
REMARK    5  A    between atoms: C_21  and  C_22
REMARK    6  A    between atoms: C_29  and  O_30
REMARK    7  A    between atoms: O_30  and  C_31
REMARK    8  A    between atoms: C_31  and  C_32
REMARK    9  A    between atoms: C_33  and  O_34
REMARK   10  A    between atoms: O_34  and  C_35
REMARK   11  A    between atoms: C_35  and  C_36
REMARK                            x       y       z     vdW  Elec       q    Type
REMARK                         _______ _______ _______ _____ _____    ______ ____
ROOT
ATOM      1  C   UNL     1       1.670  10.311  18.311  0.00  0.00    +0.000 C 
ATOM      2  O   UNL     1       2.506  11.187  18.137  0.00  0.00    +0.000 OA
ATOM      3  N   UNL     1       0.274  10.610  18.422  0.00  0.00    +0.000 N 
ATOM      4  C   UNL     1      -0.742   9.639  17.892  0.00  0.00    +0.000 C 
ATOM      5  C   UNL     1      -1.874  10.202  16.944  0.00  0.00    +0.000 C 
ATOM      6  C   UNL     1      -2.486  11.385  17.597  0.00  0.00    +0.000 A 
ATOM      7  C   UNL     1      -1.742  11.999  18.589  0.00  0.00    +0.000 A 
ATOM      8  N   UNL     1      -2.634  11.973  19.658  0.00  0.00    +0.000 N 
ATOM      9  C   UNL     1      -3.938  11.803  19.164  0.00  0.00    +0.000 A 
ATOM     10  C   UNL     1      -5.189  11.621  19.791  0.00  0.00    +0.000 A 
ATOM     11  C   UNL     1      -6.335  11.618  18.967  0.00  0.00    +0.000 A 
ATOM     12  C   UNL     1      -6.232  11.792  17.594  0.00  0.00    +0.000 A 
ATOM     13  C   UNL     1      -4.987  11.806  16.978  0.00  0.00    +0.000 A 
ATOM     14  C   UNL     1      -3.832  11.757  17.778  0.00  0.00    +0.000 A 
ATOM     15  C   UNL     1      -0.214  12.033  18.492  0.00  0.00    +0.000 C 
ATOM     16  H   UNL     1      -2.383  11.976  20.637  0.00  0.00    +0.000 HD
ENDROOT
BRANCH   1  19
ATOM     17  C   UNL     1       3.503   6.961  17.612  0.00  0.00    +0.000 A 
ATOM     18  C   UNL     1       2.969   8.266  17.479  0.00  0.00    +0.000 A 
ATOM     19  C   UNL     1       2.190   8.866  18.453  0.00  0.00    +0.000 A 
ATOM     20  C   UNL     1       1.781   8.038  19.519  0.00  0.00    +0.000 A 
ATOM     21  C   UNL     1       2.170   6.664  19.602  0.00  0.00    +0.000 A 
ATOM     22  C   UNL     1       3.089   6.129  18.669  0.00  0.00    +0.000 A 
BRANCH  17  23
ATOM     23  O   UNL     1       4.357   6.465  16.649  0.00  0.00    +0.000 OA
BRANCH  23  25
ATOM     24  C   UNL     1       6.638   5.699  16.424  0.00  0.00    +0.000 C 
ATOM     25  C   UNL     1       5.730   6.844  16.824  0.00  0.00    +0.000 C 
ENDBRANCH  23  25
ENDBRANCH  17  23
BRANCH  21  26
ATOM     26  O   UNL     1       1.583   5.996  20.656  0.00  0.00    +0.000 OA
BRANCH  26  27
ATOM     27  C   UNL     1       0.918   4.755  20.385  0.00  0.00    +0.000 C 
ATOM     28  C   UNL     1       1.499   3.665  21.276  0.00  0.00    +0.000 C 
ENDBRANCH  26  27
ENDBRANCH  21  26
BRANCH  22  29
ATOM     29  O   UNL     1       3.435   4.801  18.785  0.00  0.00    +0.000 OA
BRANCH  29  30
ATOM     30  C   UNL     1       4.657   4.463  19.449  0.00  0.00    +0.000 C 
ATOM     31  C   UNL     1       4.705   2.953  19.685  0.00  0.00    +0.000 C 
ENDBRANCH  29  30
ENDBRANCH  22  29
ENDBRANCH   1  19
BRANCH  15  32
ATOM     32  C   UNL     1       0.467  13.112  19.337  0.00  0.00    +0.000 A 
ATOM     33  C   UNL     1       0.735  12.999  20.693  0.00  0.00    +0.000 A 
ATOM     34  C   UNL     1       1.414  14.005  21.391  0.00  0.00    +0.000 A 
ATOM     35  C   UNL     1       1.857  15.142  20.731  0.00  0.00    +0.000 A 
ATOM     36  C   UNL     1       1.610  15.298  19.369  0.00  0.00    +0.000 A 
ATOM     37  C   UNL     1       0.921  14.296  18.681  0.00  0.00    +0.000 A 
ENDBRANCH  15  32
TORSDOF 8
ENDMDL
MODEL 4
REMARK VINA RESULT:      -7.0      1.434      3.154
REMARK  Name = 
REMARK  11 active torsions:
REMARK  status: ('A' for Active; 'I' for Inactive)
REMARK    1  A    between atoms: C_1  and  C_2
REMARK    2  A    between atoms: C_2  and  O_3
REMARK    3  A    between atoms: O_3  and  C_4
REMARK    4  A    between atoms: C_6  and  C_7
REMARK    5  A    between atoms: C_21  and  C_22
REMARK    6  A    between atoms: C_29  and  O_30
REMARK    7  A    between atoms: O_30  and  C_31
REMARK    8  A    between atoms: C_31  and  C_32
REMARK    9  A    between atoms: C_33  and  O_34
REMARK   10  A    between atoms: O_34  and  C_35
REMARK   11  A    between atoms: C_35  and  C_36
REMARK                            x       y       z     vdW  Elec       q    Type
REMARK                         _______ _______ _______ _____ _____    ______ ____
ROOT
ATOM      1  C   UNL     1       2.140  10.068  18.174  0.00  0.00    +0.000 C 
ATOM      2  O   UNL     1       2.878  10.783  17.509  0.00  0.00    +0.000 OA
ATOM      3  N   UNL     1       0.994  10.592  18.855  0.00  0.00    +0.000 N 
ATOM      4  C   UNL     1      -0.240   9.749  18.996  0.00  0.00    +0.000 C 
ATOM      5  C   UNL     1      -1.623  10.394  18.587  0.00  0.00    +0.000 C 
ATOM      6  C   UNL     1      -1.740  11.713  19.256  0.00  0.00    +0.000 A 
ATOM      7  C   UNL     1      -0.564  12.290  19.699  0.00  0.00    +0.000 A 
ATOM      8  N   UNL     1      -0.850  12.502  21.044  0.00  0.00    +0.000 N 
ATOM      9  C   UNL     1      -2.243  12.495  21.224  0.00  0.00    +0.000 A 
ATOM     10  C   UNL     1      -3.066  12.569  22.368  0.00  0.00    +0.000 A 
ATOM     11  C   UNL     1      -4.459  12.671  22.161  0.00  0.00    +0.000 A 
ATOM     12  C   UNL     1      -4.993  12.702  20.880  0.00  0.00    +0.000 A 
ATOM     13  C   UNL     1      -4.186  12.463  19.775  0.00  0.00    +0.000 A 
ATOM     14  C   UNL     1      -2.802  12.306  19.966  0.00  0.00    +0.000 A 
ATOM     15  C   UNL     1       0.737  12.074  18.918  0.00  0.00    +0.000 C 
ATOM     16  H   UNL     1      -0.171  12.554  21.792  0.00  0.00    +0.000 HD
ENDROOT
BRANCH   1  19
ATOM     17  C   UNL     1       3.713   6.595  17.444  0.00  0.00    +0.000 A 
ATOM     18  C   UNL     1       3.305   7.947  17.334  0.00  0.00    +0.000 A 
ATOM     19  C   UNL     1       2.523   8.578  18.286  0.00  0.00    +0.000 A 
ATOM     20  C   UNL     1       1.980   7.753  19.292  0.00  0.00    +0.000 A 
ATOM     21  C   UNL     1       2.243   6.348  19.341  0.00  0.00    +0.000 A 
ATOM     22  C   UNL     1       3.165   5.766  18.441  0.00  0.00    +0.000 A 
BRANCH  17  23
ATOM     23  O   UNL     1       4.578   6.060  16.512  0.00  0.00    +0.000 OA
BRANCH  23  25
ATOM     24  C   UNL     1       6.723   4.985  16.222  0.00  0.00    +0.000 C 
ATOM     25  C   UNL     1       5.961   6.112  16.889  0.00  0.00    +0.000 C 
ENDBRANCH  23  25
ENDBRANCH  17  23
BRANCH  21  26
ATOM     26  O   UNL     1       1.537   5.698  20.331  0.00  0.00    +0.000 OA
BRANCH  26  27
ATOM     27  C   UNL     1       2.238   4.759  21.159  0.00  0.00    +0.000 C 
ATOM     28  C   UNL     1       1.472   3.443  21.191  0.00  0.00    +0.000 C 
ENDBRANCH  26  27
ENDBRANCH  21  26
BRANCH  22  29
ATOM     29  O   UNL     1       3.387   4.410  18.522  0.00  0.00    +0.000 OA
BRANCH  29  30
ATOM     30  C   UNL     1       2.693   3.544  17.618  0.00  0.00    +0.000 C 
ATOM     31  C   UNL     1       2.955   2.088  18.008  0.00  0.00    +0.000 C 
ENDBRANCH  29  30
ENDBRANCH  22  29
ENDBRANCH   1  19
BRANCH  15  32
ATOM     32  C   UNL     1       1.835  13.105  19.189  0.00  0.00    +0.000 A 
ATOM     33  C   UNL     1       2.479  13.271  20.406  0.00  0.00    +0.000 A 
ATOM     34  C   UNL     1       3.516  14.197  20.565  0.00  0.00    +0.000 A 
ATOM     35  C   UNL     1       3.943  14.965  19.492  0.00  0.00    +0.000 A 
ATOM     36  C   UNL     1       3.326  14.833  18.251  0.00  0.00    +0.000 A 
ATOM     37  C   UNL     1       2.283  13.915  18.101  0.00  0.00    +0.000 A 
ENDBRANCH  15  32
TORSDOF 8
ENDMDL
MODEL 5
REMARK VINA RESULT:      -6.7      3.597      9.158
REMARK  Name = 
REMARK  11 active torsions:
REMARK  status: ('A' for Active; 'I' for Inactive)
REMARK    1  A    between atoms: C_1  and  C_2
REMARK    2  A    between atoms: C_2  and  O_3
REMARK    3  A    between atoms: O_3  and  C_4
REMARK    4  A    between atoms: C_6  and  C_7
REMARK    5  A    between atoms: C_21  and  C_22
REMARK    6  A    between atoms: C_29  and  O_30
REMARK    7  A    between atoms: O_30  and  C_31
REMARK    8  A    between atoms: C_31  and  C_32
REMARK    9  A    between atoms: C_33  and  O_34
REMARK   10  A    between atoms: O_34  and  C_35
REMARK   11  A    between atoms: C_35  and  C_36
REMARK                            x       y       z     vdW  Elec       q    Type
REMARK                         _______ _______ _______ _____ _____    ______ ____
ROOT
ATOM      1  C   UNL     1      -1.783  11.852  19.162  0.00  0.00    +0.000 C 
ATOM      2  O   UNL     1      -1.759  10.872  18.430  0.00  0.00    +0.000 OA
ATOM      3  N   UNL     1      -0.603  12.616  19.440  0.00  0.00    +0.000 N 
ATOM      4  C   UNL     1      -0.706  14.100  19.645  0.00  0.00    +0.000 C 
ATOM      5  C   UNL     1       0.281  15.026  18.830  0.00  0.00    +0.000 C 
ATOM      6  C   UNL     1       1.660  14.509  19.004  0.00  0.00    +0.000 A 
ATOM      7  C   UNL     1       1.782  13.195  19.420  0.00  0.00    +0.000 A 
ATOM      8  N   UNL     1       2.570  13.338  20.557  0.00  0.00    +0.000 N 
ATOM      9  C   UNL     1       3.239  14.573  20.501  0.00  0.00    +0.000 A 
ATOM     10  C   UNL     1       4.076  15.257  21.408  0.00  0.00    +0.000 A 
ATOM     11  C   UNL     1       4.693  16.443  20.956  0.00  0.00    +0.000 A 
ATOM     12  C   UNL     1       4.486  16.912  19.666  0.00  0.00    +0.000 A 
ATOM     13  C   UNL     1       3.535  16.319  18.846  0.00  0.00    +0.000 A 
ATOM     14  C   UNL     1       2.870  15.166  19.299  0.00  0.00    +0.000 A 
ATOM     15  C   UNL     1       0.751  12.152  18.975  0.00  0.00    +0.000 C 
ATOM     16  H   UNL     1       2.589  12.707  21.347  0.00  0.00    +0.000 HD
ENDROOT
BRANCH   1  19
ATOM     17  C   UNL     1      -5.594  12.298  19.751  0.00  0.00    +0.000 A 
ATOM     18  C   UNL     1      -4.338  12.030  19.153  0.00  0.00    +0.000 A 
ATOM     19  C   UNL     1      -3.134  12.207  19.814  0.00  0.00    +0.000 A 
ATOM     20  C   UNL     1      -3.201  12.859  21.063  0.00  0.00    +0.000 A 
ATOM     21  C   UNL     1      -4.443  13.289  21.626  0.00  0.00    +0.000 A 
ATOM     22  C   UNL     1      -5.663  12.957  20.993  0.00  0.00    +0.000 A 
BRANCH  17  23
ATOM     23  O   UNL     1      -6.757  12.001  19.071  0.00  0.00    +0.000 OA
BRANCH  23  25
ATOM     24  C   UNL     1      -7.160   9.726  19.780  0.00  0.00    +0.000 C 
ATOM     25  C   UNL     1      -6.846  10.643  18.616  0.00  0.00    +0.000 C 
ENDBRANCH  23  25
ENDBRANCH  17  23
BRANCH  21  26
ATOM     26  O   UNL     1      -4.291  14.000  22.798  0.00  0.00    +0.000 OA
BRANCH  26  27
ATOM     27  C   UNL     1      -3.525  13.407  23.856  0.00  0.00    +0.000 C 
ATOM     28  C   UNL     1      -2.792  14.500  24.623  0.00  0.00    +0.000 C 
ENDBRANCH  26  27
ENDBRANCH  21  26
BRANCH  22  29
ATOM     29  O   UNL     1      -6.835  13.393  21.568  0.00  0.00    +0.000 OA
BRANCH  29  30
ATOM     30  C   UNL     1      -7.589  12.480  22.373  0.00  0.00    +0.000 C 
ATOM     31  C   UNL     1      -7.361  12.801  23.851  0.00  0.00    +0.000 C 
ENDBRANCH  29  30
ENDBRANCH  22  29
ENDBRANCH   1  19
BRANCH  15  32
ATOM     32  C   UNL     1       1.218  10.698  19.070  0.00  0.00    +0.000 A 
ATOM     33  C   UNL     1       1.020   9.876  20.169  0.00  0.00    +0.000 A 
ATOM     34  C   UNL     1       1.425   8.536  20.163  0.00  0.00    +0.000 A 
ATOM     35  C   UNL     1       2.021   7.986  19.038  0.00  0.00    +0.000 A 
ATOM     36  C   UNL     1       2.240   8.774  17.911  0.00  0.00    +0.000 A 
ATOM     37  C   UNL     1       1.845  10.114  17.927  0.00  0.00    +0.000 A 
ENDBRANCH  15  32
TORSDOF 8
ENDMDL
MODEL 6
REMARK VINA RESULT:      -6.7      3.666      9.427
REMARK  Name = 
REMARK  11 active torsions:
REMARK  status: ('A' for Active; 'I' for Inactive)
REMARK    1  A    between atoms: C_1  and  C_2
REMARK    2  A    between atoms: C_2  and  O_3
REMARK    3  A    between atoms: O_3  and  C_4
REMARK    4  A    between atoms: C_6  and  C_7
REMARK    5  A    between atoms: C_21  and  C_22
REMARK    6  A    between atoms: C_29  and  O_30
REMARK    7  A    between atoms: O_30  and  C_31
REMARK    8  A    between atoms: C_31  and  C_32
REMARK    9  A    between atoms: C_33  and  O_34
REMARK   10  A    between atoms: O_34  and  C_35
REMARK   11  A    between atoms: C_35  and  C_36
REMARK                            x       y       z     vdW  Elec       q    Type
REMARK                         _______ _______ _______ _____ _____    ______ ____
ROOT
ATOM      1  C   UNL     1      -2.047  11.812  19.173  0.00  0.00    +0.000 C 
ATOM      2  O   UNL     1      -2.059  10.808  18.473  0.00  0.00    +0.000 OA
ATOM      3  N   UNL     1      -0.849  12.567  19.390  0.00  0.00    +0.000 N 
ATOM      4  C   UNL     1      -0.926  14.059  19.549  0.00  0.00    +0.000 C 
ATOM      5  C   UNL     1       0.048  14.943  18.674  0.00  0.00    +0.000 C 
ATOM      6  C   UNL     1       1.425  14.412  18.823  0.00  0.00    +0.000 A 
ATOM      7  C   UNL     1       1.541  13.111  19.279  0.00  0.00    +0.000 A 
ATOM      8  N   UNL     1       2.366  13.279  20.387  0.00  0.00    +0.000 N 
ATOM      9  C   UNL     1       3.049  14.502  20.270  0.00  0.00    +0.000 A 
ATOM     10  C   UNL     1       3.922  15.202  21.129  0.00  0.00    +0.000 A 
ATOM     11  C   UNL     1       4.541  16.365  20.619  0.00  0.00    +0.000 A 
ATOM     12  C   UNL     1       4.301  16.794  19.321  0.00  0.00    +0.000 A 
ATOM     13  C   UNL     1       3.318  16.188  18.550  0.00  0.00    +0.000 A 
ATOM     14  C   UNL     1       2.652  15.061  19.060  0.00  0.00    +0.000 A 
ATOM     15  C   UNL     1       0.484  12.069  18.899  0.00  0.00    +0.000 C 
ATOM     16  H   UNL     1       2.400  12.674  21.196  0.00  0.00    +0.000 HD
ENDROOT
BRANCH   1  19
ATOM     17  C   UNL     1      -5.833  12.306  19.873  0.00  0.00    +0.000 A 
ATOM     18  C   UNL     1      -4.600  12.001  19.246  0.00  0.00    +0.000 A 
ATOM     19  C   UNL     1      -3.374  12.208  19.853  0.00  0.00    +0.000 A 
ATOM     20  C   UNL     1      -3.393  12.925  21.066  0.00  0.00    +0.000 A 
ATOM     21  C   UNL     1      -4.613  13.391  21.650  0.00  0.00    +0.000 A 
ATOM     22  C   UNL     1      -5.856  13.031  21.080  0.00  0.00    +0.000 A 
BRANCH  17  23
ATOM     23  O   UNL     1      -7.021  11.978  19.253  0.00  0.00    +0.000 OA
BRANCH  23  25
ATOM     24  C   UNL     1      -7.815  13.730  17.790  0.00  0.00    +0.000 C 
ATOM     25  C   UNL     1      -7.108  12.392  17.883  0.00  0.00    +0.000 C 
ENDBRANCH  23  25
ENDBRANCH  17  23
BRANCH  21  26
ATOM     26  O   UNL     1      -4.417  14.163  22.776  0.00  0.00    +0.000 OA
BRANCH  26  27
ATOM     27  C   UNL     1      -3.960  13.515  23.971  0.00  0.00    +0.000 C 
ATOM     28  C   UNL     1      -2.929  14.398  24.662  0.00  0.00    +0.000 C 
ENDBRANCH  26  27
ENDBRANCH  21  26
BRANCH  22  29
ATOM     29  O   UNL     1      -7.005  13.503  21.673  0.00  0.00    +0.000 OA
BRANCH  29  30
ATOM     30  C   UNL     1      -7.636  12.707  22.681  0.00  0.00    +0.000 C 
ATOM     31  C   UNL     1      -7.714  13.507  23.983  0.00  0.00    +0.000 C 
ENDBRANCH  29  30
ENDBRANCH  22  29
ENDBRANCH   1  19
BRANCH  15  32
ATOM     32  C   UNL     1       0.933  10.612  19.028  0.00  0.00    +0.000 A 
ATOM     33  C   UNL     1       1.527   9.877  18.014  0.00  0.00    +0.000 A 
ATOM     34  C   UNL     1       1.966   8.564  18.221  0.00  0.00    +0.000 A 
ATOM     35  C   UNL     1       1.834   7.967  19.467  0.00  0.00    +0.000 A 
ATOM     36  C   UNL     1       1.243   8.667  20.515  0.00  0.00    +0.000 A 
ATOM     37  C   UNL     1       0.796   9.973  20.298  0.00  0.00    +0.000 A 
ENDBRANCH  15  32
TORSDOF 8
ENDMDL
MODEL 7
REMARK VINA RESULT:      -6.6      3.743      9.417
REMARK  Name = 
REMARK  11 active torsions:
REMARK  status: ('A' for Active; 'I' for Inactive)
REMARK    1  A    between atoms: C_1  and  C_2
REMARK    2  A    between atoms: C_2  and  O_3
REMARK    3  A    between atoms: O_3  and  C_4
REMARK    4  A    between atoms: C_6  and  C_7
REMARK    5  A    between atoms: C_21  and  C_22
REMARK    6  A    between atoms: C_29  and  O_30
REMARK    7  A    between atoms: O_30  and  C_31
REMARK    8  A    between atoms: C_31  and  C_32
REMARK    9  A    between atoms: C_33  and  O_34
REMARK   10  A    between atoms: O_34  and  C_35
REMARK   11  A    between atoms: C_35  and  C_36
REMARK                            x       y       z     vdW  Elec       q    Type
REMARK                         _______ _______ _______ _____ _____    ______ ____
ROOT
ATOM      1  C   UNL     1      -1.937  11.836  19.383  0.00  0.00    +0.000 C 
ATOM      2  O   UNL     1      -2.009  10.820  18.705  0.00  0.00    +0.000 OA
ATOM      3  N   UNL     1      -0.718  12.579  19.505  0.00  0.00    +0.000 N 
ATOM      4  C   UNL     1      -0.766  14.074  19.640  0.00  0.00    +0.000 C 
ATOM      5  C   UNL     1       0.158  14.929  18.685  0.00  0.00    +0.000 C 
ATOM      6  C   UNL     1       1.535  14.382  18.752  0.00  0.00    +0.000 A 
ATOM      7  C   UNL     1       1.666  13.088  19.224  0.00  0.00    +0.000 A 
ATOM      8  N   UNL     1       2.565  13.265  20.270  0.00  0.00    +0.000 N 
ATOM      9  C   UNL     1       3.254  14.476  20.084  0.00  0.00    +0.000 A 
ATOM     10  C   UNL     1       4.192  15.180  20.869  0.00  0.00    +0.000 A 
ATOM     11  C   UNL     1       4.790  16.324  20.297  0.00  0.00    +0.000 A 
ATOM     12  C   UNL     1       4.468  16.733  19.010  0.00  0.00    +0.000 A 
ATOM     13  C   UNL     1       3.427  16.127  18.318  0.00  0.00    +0.000 A 
ATOM     14  C   UNL     1       2.783  15.018  18.894  0.00  0.00    +0.000 A 
ATOM     15  C   UNL     1       0.572  12.053  18.936  0.00  0.00    +0.000 C 
ATOM     16  H   UNL     1       2.646  12.674  21.087  0.00  0.00    +0.000 HD
ENDROOT
BRANCH   1  19
ATOM     17  C   UNL     1      -4.357  12.906  22.224  0.00  0.00    +0.000 A 
ATOM     18  C   UNL     1      -3.215  12.462  21.513  0.00  0.00    +0.000 A 
ATOM     19  C   UNL     1      -3.210  12.262  20.143  0.00  0.00    +0.000 A 
ATOM     20  C   UNL     1      -4.462  12.336  19.499  0.00  0.00    +0.000 A 
ATOM     21  C   UNL     1      -5.665  12.626  20.215  0.00  0.00    +0.000 A 
ATOM     22  C   UNL     1      -5.610  12.971  21.585  0.00  0.00    +0.000 A 
BRANCH  17  23
ATOM     23  O   UNL     1      -4.264  13.184  23.572  0.00  0.00    +0.000 OA
BRANCH  23  25
ATOM     24  C   UNL     1      -3.419  15.345  24.248  0.00  0.00    +0.000 C 
ATOM     25  C   UNL     1      -3.079  13.898  23.948  0.00  0.00    +0.000 C 
ENDBRANCH  23  25
ENDBRANCH  17  23
BRANCH  21  26
ATOM     26  O   UNL     1      -6.797  12.547  19.431  0.00  0.00    +0.000 OA
BRANCH  26  27
ATOM     27  C   UNL     1      -6.640  12.197  18.049  0.00  0.00    +0.000 C 
ATOM     28  C   UNL     1      -7.091  13.362  17.178  0.00  0.00    +0.000 C 
ENDBRANCH  26  27
ENDBRANCH  21  26
BRANCH  22  29
ATOM     29  O   UNL     1      -6.793  13.240  22.237  0.00  0.00    +0.000 OA
BRANCH  29  30
ATOM     30  C   UNL     1      -7.253  14.594  22.298  0.00  0.00    +0.000 C 
ATOM     31  C   UNL     1      -7.154  15.098  23.739  0.00  0.00    +0.000 C 
ENDBRANCH  29  30
ENDBRANCH  22  29
ENDBRANCH   1  19
BRANCH  15  32
ATOM     32  C   UNL     1       1.012  10.593  19.062  0.00  0.00    +0.000 A 
ATOM     33  C   UNL     1       1.602   9.856  18.047  0.00  0.00    +0.000 A 
ATOM     34  C   UNL     1       2.031   8.539  18.252  0.00  0.00    +0.000 A 
ATOM     35  C   UNL     1       1.893   7.941  19.496  0.00  0.00    +0.000 A 
ATOM     36  C   UNL     1       1.306   8.643  20.545  0.00  0.00    +0.000 A 
ATOM     37  C   UNL     1       0.868   9.953  20.331  0.00  0.00    +0.000 A 
ENDBRANCH  15  32
TORSDOF 8
ENDMDL
MODEL 8
REMARK VINA RESULT:      -6.6      3.765      9.388
REMARK  Name = 
REMARK  11 active torsions:
REMARK  status: ('A' for Active; 'I' for Inactive)
REMARK    1  A    between atoms: C_1  and  C_2
REMARK    2  A    between atoms: C_2  and  O_3
REMARK    3  A    between atoms: O_3  and  C_4
REMARK    4  A    between atoms: C_6  and  C_7
REMARK    5  A    between atoms: C_21  and  C_22
REMARK    6  A    between atoms: C_29  and  O_30
REMARK    7  A    between atoms: O_30  and  C_31
REMARK    8  A    between atoms: C_31  and  C_32
REMARK    9  A    between atoms: C_33  and  O_34
REMARK   10  A    between atoms: O_34  and  C_35
REMARK   11  A    between atoms: C_35  and  C_36
REMARK                            x       y       z     vdW  Elec       q    Type
REMARK                         _______ _______ _______ _____ _____    ______ ____
ROOT
ATOM      1  C   UNL     1      -1.701  11.881  19.605  0.00  0.00    +0.000 C 
ATOM      2  O   UNL     1      -1.821  10.846  18.963  0.00  0.00    +0.000 OA
ATOM      3  N   UNL     1      -0.479  12.630  19.610  0.00  0.00    +0.000 N 
ATOM      4  C   UNL     1      -0.522  14.128  19.706  0.00  0.00    +0.000 C 
ATOM      5  C   UNL     1       0.320  14.958  18.658  0.00  0.00    +0.000 C 
ATOM      6  C   UNL     1       1.701  14.415  18.632  0.00  0.00    +0.000 A 
ATOM      7  C   UNL     1       1.873  13.136  19.127  0.00  0.00    +0.000 A 
ATOM      8  N   UNL     1       2.852  13.344  20.095  0.00  0.00    +0.000 N 
ATOM      9  C   UNL     1       3.519  14.550  19.821  0.00  0.00    +0.000 A 
ATOM     10  C   UNL     1       4.512  15.278  20.510  0.00  0.00    +0.000 A 
ATOM     11  C   UNL     1       5.058  16.407  19.861  0.00  0.00    +0.000 A 
ATOM     12  C   UNL     1       4.635  16.779  18.593  0.00  0.00    +0.000 A 
ATOM     13  C   UNL     1       3.546  16.151  18.002  0.00  0.00    +0.000 A 
ATOM     14  C   UNL     1       2.954  15.058  18.657  0.00  0.00    +0.000 A 
ATOM     15  C   UNL     1       0.765  12.091  18.956  0.00  0.00    +0.000 C 
ATOM     16  H   UNL     1       2.999  12.776  20.919  0.00  0.00    +0.000 HD
ENDROOT
BRANCH   1  19
ATOM     17  C   UNL     1      -5.300  12.886  20.656  0.00  0.00    +0.000 A 
ATOM     18  C   UNL     1      -4.161  12.530  19.892  0.00  0.00    +0.000 A 
ATOM     19  C   UNL     1      -2.911  12.326  20.450  0.00  0.00    +0.000 A 
ATOM     20  C   UNL     1      -2.771  12.680  21.808  0.00  0.00    +0.000 A 
ATOM     21  C   UNL     1      -3.865  13.196  22.571  0.00  0.00    +0.000 A 
ATOM     22  C   UNL     1      -5.161  13.249  22.009  0.00  0.00    +0.000 A 
BRANCH  17  23
ATOM     23  O   UNL     1      -6.537  12.971  20.051  0.00  0.00    +0.000 OA
BRANCH  23  25
ATOM     24  C   UNL     1      -7.216  12.755  17.742  0.00  0.00    +0.000 C 
ATOM     25  C   UNL     1      -6.527  13.624  18.774  0.00  0.00    +0.000 C 
ENDBRANCH  23  25
ENDBRANCH  17  23
BRANCH  21  26
ATOM     26  O   UNL     1      -3.503  13.584  23.844  0.00  0.00    +0.000 OA
BRANCH  26  27
ATOM     27  C   UNL     1      -3.159  14.959  24.063  0.00  0.00    +0.000 C 
ATOM     28  C   UNL     1      -2.648  15.132  25.487  0.00  0.00    +0.000 C 
ENDBRANCH  26  27
ENDBRANCH  21  26
BRANCH  22  29
ATOM     29  O   UNL     1      -6.185  13.755  22.779  0.00  0.00    +0.000 OA
BRANCH  29  30
ATOM     30  C   UNL     1      -6.770  12.919  23.782  0.00  0.00    +0.000 C 
ATOM     31  C   UNL     1      -7.914  12.112  23.165  0.00  0.00    +0.000 C 
ENDBRANCH  29  30
ENDBRANCH  22  29
ENDBRANCH   1  19
BRANCH  15  32
ATOM     32  C   UNL     1       1.219  10.636  19.088  0.00  0.00    +0.000 A 
ATOM     33  C   UNL     1       1.083   9.868  20.234  0.00  0.00    +0.000 A 
ATOM     34  C   UNL     1       1.470   8.523  20.264  0.00  0.00    +0.000 A 
ATOM     35  C   UNL     1       1.985   7.914  19.130  0.00  0.00    +0.000 A 
ATOM     36  C   UNL     1       2.140   8.646  17.956  0.00  0.00    +0.000 A 
ATOM     37  C   UNL     1       1.764   9.992  17.935  0.00  0.00    +0.000 A 
ENDBRANCH  15  32
TORSDOF 8
ENDMDL
MODEL 9
REMARK VINA RESULT:      -6.5      3.687      9.339
REMARK  Name = 
REMARK  11 active torsions:
REMARK  status: ('A' for Active; 'I' for Inactive)
REMARK    1  A    between atoms: C_1  and  C_2
REMARK    2  A    between atoms: C_2  and  O_3
REMARK    3  A    between atoms: O_3  and  C_4
REMARK    4  A    between atoms: C_6  and  C_7
REMARK    5  A    between atoms: C_21  and  C_22
REMARK    6  A    between atoms: C_29  and  O_30
REMARK    7  A    between atoms: O_30  and  C_31
REMARK    8  A    between atoms: C_31  and  C_32
REMARK    9  A    between atoms: C_33  and  O_34
REMARK   10  A    between atoms: O_34  and  C_35
REMARK   11  A    between atoms: C_35  and  C_36
REMARK                            x       y       z     vdW  Elec       q    Type
REMARK                         _______ _______ _______ _____ _____    ______ ____
ROOT
ATOM      1  C   UNL     1      -1.842  11.884  19.352  0.00  0.00    +0.000 C 
ATOM      2  O   UNL     1      -1.890  10.824  18.743  0.00  0.00    +0.000 OA
ATOM      3  N   UNL     1      -0.624  12.629  19.477  0.00  0.00    +0.000 N 
ATOM      4  C   UNL     1      -0.667  14.130  19.507  0.00  0.00    +0.000 C 
ATOM      5  C   UNL     1       0.306  14.913  18.539  0.00  0.00    +0.000 C 
ATOM      6  C   UNL     1       1.674  14.366  18.706  0.00  0.00    +0.000 A 
ATOM      7  C   UNL     1       1.774  13.107  19.271  0.00  0.00    +0.000 A 
ATOM      8  N   UNL     1       2.626  13.353  20.343  0.00  0.00    +0.000 N 
ATOM      9  C   UNL     1       3.332  14.545  20.106  0.00  0.00    +0.000 A 
ATOM     10  C   UNL     1       4.238  15.298  20.883  0.00  0.00    +0.000 A 
ATOM     11  C   UNL     1       4.869  16.397  20.261  0.00  0.00    +0.000 A 
ATOM     12  C   UNL     1       4.609  16.718  18.936  0.00  0.00    +0.000 A 
ATOM     13  C   UNL     1       3.597  16.069  18.240  0.00  0.00    +0.000 A 
ATOM     14  C   UNL     1       2.919  15.005  18.861  0.00  0.00    +0.000 A 
ATOM     15  C   UNL     1       0.687  12.060  19.005  0.00  0.00    +0.000 C 
ATOM     16  H   UNL     1       2.666  12.819  21.201  0.00  0.00    +0.000 HD
ENDROOT
BRANCH   1  19
ATOM     17  C   UNL     1      -4.411  13.043  22.021  0.00  0.00    +0.000 A 
ATOM     18  C   UNL     1      -3.243  12.549  21.390  0.00  0.00    +0.000 A 
ATOM     19  C   UNL     1      -3.144  12.368  20.021  0.00  0.00    +0.000 A 
ATOM     20  C   UNL     1      -4.338  12.516  19.286  0.00  0.00    +0.000 A 
ATOM     21  C   UNL     1      -5.576  12.859  19.916  0.00  0.00    +0.000 A 
ATOM     22  C   UNL     1      -5.607  13.183  21.292  0.00  0.00    +0.000 A 
BRANCH  17  23
ATOM     23  O   UNL     1      -4.406  13.298  23.377  0.00  0.00    +0.000 OA
BRANCH  23  25
ATOM     24  C   UNL     1      -2.757  14.587  24.584  0.00  0.00    +0.000 C 
ATOM     25  C   UNL     1      -4.006  14.630  23.727  0.00  0.00    +0.000 C 
ENDBRANCH  23  25
ENDBRANCH  17  23
BRANCH  21  26
ATOM     26  O   UNL     1      -6.647  12.851  19.048  0.00  0.00    +0.000 OA
BRANCH  26  27
ATOM     27  C   UNL     1      -6.959  14.062  18.344  0.00  0.00    +0.000 C 
ATOM     28  C   UNL     1      -6.846  13.819  16.845  0.00  0.00    +0.000 C 
ENDBRANCH  26  27
ENDBRANCH  21  26
BRANCH  22  29
ATOM     29  O   UNL     1      -6.820  13.506  21.858  0.00  0.00    +0.000 OA
BRANCH  29  30
ATOM     30  C   UNL     1      -7.712  12.448  22.225  0.00  0.00    +0.000 C 
ATOM     31  C   UNL     1      -7.622  12.210  23.734  0.00  0.00    +0.000 C 
ENDBRANCH  29  30
ENDBRANCH  22  29
ENDBRANCH   1  19
BRANCH  15  32
ATOM     32  C   UNL     1       1.110  10.610  19.252  0.00  0.00    +0.000 A 
ATOM     33  C   UNL     1       0.930   9.928  20.446  0.00  0.00    +0.000 A 
ATOM     34  C   UNL     1       1.291   8.582  20.581  0.00  0.00    +0.000 A 
ATOM     35  C   UNL     1       1.822   7.885  19.506  0.00  0.00    +0.000 A 
ATOM     36  C   UNL     1       2.020   8.529  18.288  0.00  0.00    +0.000 A 
ATOM     37  C   UNL     1       1.670   9.876  18.162  0.00  0.00    +0.000 A 
ENDBRANCH  15  32
TORSDOF 8
ENDMDL
