MODEL 1
REMARK VINA RESULT:      -7.4      0.000      0.000
REMARK  Name = 
REMARK  6 active torsions:
REMARK  status: ('A' for Active; 'I' for Inactive)
REMARK    1  A    between atoms: C_1  and  N_2
REMARK    2  A    between atoms: N_2  and  C_3
REMARK    3  A    between atoms: C_4  and  C_6
REMARK    4  A    between atoms: C_6  and  C_7
REMARK    5  A    between atoms: N_12  and  C_13
REMARK    6  A    between atoms: C_13  and  C_14
REMARK                            x       y       z     vdW  Elec       q    Type
REMARK                         _______ _______ _______ _____ _____    ______ ____
ROOT
ATOM      1  C   UNL     1       3.114   6.431  19.474  0.00  0.00    +0.000 C 
ATOM      2  C   UNL     1       4.610   6.461  19.114  0.00  0.00    +0.000 C 
ATOM      3  C   UNL     1       5.108   5.180  18.414  0.00  0.00    +0.000 C 
ATOM      4  C   UNL     1       4.421   4.906  17.061  0.00  0.00    +0.000 C 
ATOM      5  C   UNL     1       5.109   3.785  16.293  0.00  0.00    +0.000 C 
ATOM      6  N   UNL     1       6.509   4.085  15.986  0.00  0.00    +0.000 NA
ATOM      7  C   UNL     1       7.225   4.226  17.270  0.00  0.00    +0.000 C 
ATOM      8  C   UNL     1       6.641   5.298  18.209  0.00  0.00    +0.000 C 
ATOM      9  O   UNL     1       4.885   4.047  19.275  0.00  0.00    +0.000 OA
ATOM     10  C   UNL     1       3.622   3.950  19.798  0.00  0.00    +0.000 A 
ATOM     11  C   UNL     1       3.225   2.661  20.154  0.00  0.00    +0.000 A 
ATOM     12  C   UNL     1       1.951   2.438  20.672  0.00  0.00    +0.000 A 
ATOM     13  C   UNL     1       1.093   3.512  20.884  0.00  0.00    +0.000 A 
ATOM     14  C   UNL     1       1.496   4.805  20.548  0.00  0.00    +0.000 A 
ATOM     15  C   UNL     1       2.752   5.038  19.964  0.00  0.00    +0.000 A 
ENDROOT
BRANCH   1  16
ATOM     16  C   UNL     1       2.153   6.852  18.332  0.00  0.00    +0.000 C 
BRANCH  16  20
ATOM     17  C   UNL     1       1.397  10.551  18.804  0.00  0.00    +0.000 C 
ATOM     18  N   UNL     1       1.380   9.110  18.996  0.00  0.00    +0.000 N 
ATOM     19  C   UNL     1       1.074   8.623  20.331  0.00  0.00    +0.000 C 
ATOM     20  C   UNL     1       2.065   8.340  18.046  0.00  0.00    +0.000 C 
ATOM     21  O   UNL     1       2.578   8.837  17.045  0.00  0.00    +0.000 OA
ENDBRANCH  16  20
ENDBRANCH   1  16
BRANCH   6  22
ATOM     22  C   UNL     1       6.716   5.257  15.120  0.00  0.00    +0.000 C 
BRANCH  22  23
ATOM     23  C   UNL     1       6.304   5.045  13.685  0.00  0.00    +0.000 C 
ATOM     24  C   UNL     1       7.378   4.823  12.645  0.00  0.00    +0.000 C 
ATOM     25  C   UNL     1       6.444   3.704  13.009  0.00  0.00    +0.000 C 
ENDBRANCH  22  23
ENDBRANCH   6  22
TORSDOF 4
ENDMDL
MODEL 2
REMARK VINA RESULT:      -6.5      1.730      2.502
REMARK  Name = 
REMARK  6 active torsions:
REMARK  status: ('A' for Active; 'I' for Inactive)
REMARK    1  A    between atoms: C_1  and  N_2
REMARK    2  A    between atoms: N_2  and  C_3
REMARK    3  A    between atoms: C_4  and  C_6
REMARK    4  A    between atoms: C_6  and  C_7
REMARK    5  A    between atoms: N_12  and  C_13
REMARK    6  A    between atoms: C_13  and  C_14
REMARK                            x       y       z     vdW  Elec       q    Type
REMARK                         _______ _______ _______ _____ _____    ______ ____
ROOT
ATOM      1  C   UNL     1       3.028   5.591  19.861  0.00  0.00    +0.000 C 
ATOM      2  C   UNL     1       4.562   5.575  19.734  0.00  0.00    +0.000 C 
ATOM      3  C   UNL     1       5.076   4.819  18.492  0.00  0.00    +0.000 C 
ATOM      4  C   UNL     1       4.614   5.435  17.157  0.00  0.00    +0.000 C 
ATOM      5  C   UNL     1       5.339   4.818  15.967  0.00  0.00    +0.000 C 
ATOM      6  N   UNL     1       6.789   5.010  16.025  0.00  0.00    +0.000 NA
ATOM      7  C   UNL     1       7.281   4.317  17.233  0.00  0.00    +0.000 C 
ATOM      8  C   UNL     1       6.626   4.785  18.545  0.00  0.00    +0.000 C 
ATOM      9  O   UNL     1       4.624   3.453  18.543  0.00  0.00    +0.000 OA
ATOM     10  C   UNL     1       3.285   3.289  18.790  0.00  0.00    +0.000 A 
ATOM     11  C   UNL     1       2.737   2.095  18.320  0.00  0.00    +0.000 A 
ATOM     12  C   UNL     1       1.380   1.831  18.492  0.00  0.00    +0.000 A 
ATOM     13  C   UNL     1       0.581   2.738  19.180  0.00  0.00    +0.000 A 
ATOM     14  C   UNL     1       1.132   3.923  19.669  0.00  0.00    +0.000 A 
ATOM     15  C   UNL     1       2.484   4.234  19.446  0.00  0.00    +0.000 A 
ENDROOT
BRANCH   1  16
ATOM     16  C   UNL     1       2.313   6.710  19.060  0.00  0.00    +0.000 C 
BRANCH  16  20
ATOM     17  C   UNL     1       0.828  10.098  19.952  0.00  0.00    +0.000 C 
ATOM     18  N   UNL     1       1.541   9.058  19.227  0.00  0.00    +0.000 N 
ATOM     19  C   UNL     1       1.634   9.201  17.784  0.00  0.00    +0.000 C 
ATOM     20  C   UNL     1       1.689   7.826  19.879  0.00  0.00    +0.000 C 
ATOM     21  O   UNL     1       1.323   7.649  21.039  0.00  0.00    +0.000 OA
ENDBRANCH  16  20
ENDBRANCH   1  16
BRANCH   6  22
ATOM     22  C   UNL     1       7.230   6.414  15.991  0.00  0.00    +0.000 C 
BRANCH  22  23
ATOM     23  C   UNL     1       7.400   7.042  17.351  0.00  0.00    +0.000 C 
ATOM     24  C   UNL     1       8.191   8.324  17.467  0.00  0.00    +0.000 C 
ATOM     25  C   UNL     1       6.711   8.331  17.721  0.00  0.00    +0.000 C 
ENDBRANCH  22  23
ENDBRANCH   6  22
TORSDOF 4
ENDMDL
MODEL 3
REMARK VINA RESULT:      -6.4      2.246      3.111
REMARK  Name = 
REMARK  6 active torsions:
REMARK  status: ('A' for Active; 'I' for Inactive)
REMARK    1  A    between atoms: C_1  and  N_2
REMARK    2  A    between atoms: N_2  and  C_3
REMARK    3  A    between atoms: C_4  and  C_6
REMARK    4  A    between atoms: C_6  and  C_7
REMARK    5  A    between atoms: N_12  and  C_13
REMARK    6  A    between atoms: C_13  and  C_14
REMARK                            x       y       z     vdW  Elec       q    Type
REMARK                         _______ _______ _______ _____ _____    ______ ____
ROOT
ATOM      1  C   UNL     1       2.620   5.433  20.030  0.00  0.00    +0.000 C 
ATOM      2  C   UNL     1       4.117   5.767  20.154  0.00  0.00    +0.000 C 
ATOM      3  C   UNL     1       4.943   5.398  18.905  0.00  0.00    +0.000 C 
ATOM      4  C   UNL     1       4.513   6.154  17.633  0.00  0.00    +0.000 C 
ATOM      5  C   UNL     1       5.502   5.952  16.492  0.00  0.00    +0.000 C 
ATOM      6  N   UNL     1       6.847   6.432  16.816  0.00  0.00    +0.000 NA
ATOM      7  C   UNL     1       7.340   5.633  17.957  0.00  0.00    +0.000 C 
ATOM      8  C   UNL     1       6.438   5.683  19.204  0.00  0.00    +0.000 C 
ATOM      9  O   UNL     1       4.826   3.985  18.656  0.00  0.00    +0.000 OA
ATOM     10  C   UNL     1       3.546   3.495  18.651  0.00  0.00    +0.000 A 
ATOM     11  C   UNL     1       3.359   2.330  17.907  0.00  0.00    +0.000 A 
ATOM     12  C   UNL     1       2.093   1.756  17.809  0.00  0.00    +0.000 A 
ATOM     13  C   UNL     1       1.024   2.319  18.498  0.00  0.00    +0.000 A 
ATOM     14  C   UNL     1       1.213   3.474  19.260  0.00  0.00    +0.000 A 
ATOM     15  C   UNL     1       2.469   4.100  19.314  0.00  0.00    +0.000 A 
ENDROOT
BRANCH   1  16
ATOM     16  C   UNL     1       1.762   6.511  19.320  0.00  0.00    +0.000 C 
BRANCH  16  20
ATOM     17  C   UNL     1       1.135  10.185  20.084  0.00  0.00    +0.000 C 
ATOM     18  N   UNL     1       1.516   8.975  19.373  0.00  0.00    +0.000 N 
ATOM     19  C   UNL     1       1.442   9.009  17.922  0.00  0.00    +0.000 C 
ATOM     20  C   UNL     1       1.494   7.781  20.107  0.00  0.00    +0.000 C 
ATOM     21  O   UNL     1       1.260   7.756  21.314  0.00  0.00    +0.000 OA
ENDBRANCH  16  20
ENDBRANCH   1  16
BRANCH   6  22
ATOM     22  C   UNL     1       6.942   7.875  17.086  0.00  0.00    +0.000 C 
BRANCH  22  23
ATOM     23  C   UNL     1       8.316   8.338  17.501  0.00  0.00    +0.000 C 
ATOM     24  C   UNL     1       8.516   9.791  17.861  0.00  0.00    +0.000 C 
ATOM     25  C   UNL     1       8.624   8.734  18.922  0.00  0.00    +0.000 C 
ENDBRANCH  22  23
ENDBRANCH   6  22
TORSDOF 4
ENDMDL
MODEL 4
REMARK VINA RESULT:      -6.4      1.063      1.224
REMARK  Name = 
REMARK  6 active torsions:
REMARK  status: ('A' for Active; 'I' for Inactive)
REMARK    1  A    between atoms: C_1  and  N_2
REMARK    2  A    between atoms: N_2  and  C_3
REMARK    3  A    between atoms: C_4  and  C_6
REMARK    4  A    between atoms: C_6  and  C_7
REMARK    5  A    between atoms: N_12  and  C_13
REMARK    6  A    between atoms: C_13  and  C_14
REMARK                            x       y       z     vdW  Elec       q    Type
REMARK                         _______ _______ _______ _____ _____    ______ ____
ROOT
ATOM      1  C   UNL     1       3.499   6.007  19.879  0.00  0.00    +0.000 C 
ATOM      2  C   UNL     1       4.925   5.875  19.316  0.00  0.00    +0.000 C 
ATOM      3  C   UNL     1       5.085   4.739  18.285  0.00  0.00    +0.000 C 
ATOM      4  C   UNL     1       4.219   4.923  17.023  0.00  0.00    +0.000 C 
ATOM      5  C   UNL     1       4.588   3.925  15.932  0.00  0.00    +0.000 C 
ATOM      6  N   UNL     1       5.979   4.054  15.494  0.00  0.00    +0.000 NA
ATOM      7  C   UNL     1       6.840   3.755  16.657  0.00  0.00    +0.000 C 
ATOM      8  C   UNL     1       6.580   4.646  17.885  0.00  0.00    +0.000 C 
ATOM      9  O   UNL     1       4.735   3.484  18.898  0.00  0.00    +0.000 OA
ATOM     10  C   UNL     1       3.539   3.474  19.569  0.00  0.00    +0.000 A 
ATOM     11  C   UNL     1       2.936   2.222  19.686  0.00  0.00    +0.000 A 
ATOM     12  C   UNL     1       1.705   2.094  20.326  0.00  0.00    +0.000 A 
ATOM     13  C   UNL     1       1.102   3.211  20.895  0.00  0.00    +0.000 A 
ATOM     14  C   UNL     1       1.715   4.461  20.797  0.00  0.00    +0.000 A 
ATOM     15  C   UNL     1       2.923   4.617  20.098  0.00  0.00    +0.000 A 
ENDROOT
BRANCH   1  16
ATOM     16  C   UNL     1       2.525   6.849  19.015  0.00  0.00    +0.000 C 
BRANCH  16  20
ATOM     17  C   UNL     1       0.790  10.178  19.633  0.00  0.00    +0.000 C 
ATOM     18  N   UNL     1       1.610   9.150  19.012  0.00  0.00    +0.000 N 
ATOM     19  C   UNL     1       1.795   9.232  17.572  0.00  0.00    +0.000 C 
ATOM     20  C   UNL     1       1.782   7.961  19.733  0.00  0.00    +0.000 C 
ATOM     21  O   UNL     1       1.348   7.817  20.874  0.00  0.00    +0.000 OA
ENDBRANCH  16  20
ENDBRANCH   1  16
BRANCH   6  22
ATOM     22  C   UNL     1       6.320   5.350  14.887  0.00  0.00    +0.000 C 
BRANCH  22  23
ATOM     23  C   UNL     1       6.485   5.307  13.389  0.00  0.00    +0.000 C 
ATOM     24  C   UNL     1       7.875   5.166  12.814  0.00  0.00    +0.000 C 
ATOM     25  C   UNL     1       6.887   4.043  12.672  0.00  0.00    +0.000 C 
ENDBRANCH  22  23
ENDBRANCH   6  22
TORSDOF 4
ENDMDL
MODEL 5
REMARK VINA RESULT:      -6.3      3.915      9.037
REMARK  Name = 
REMARK  6 active torsions:
REMARK  status: ('A' for Active; 'I' for Inactive)
REMARK    1  A    between atoms: C_1  and  N_2
REMARK    2  A    between atoms: N_2  and  C_3
REMARK    3  A    between atoms: C_4  and  C_6
REMARK    4  A    between atoms: C_6  and  C_7
REMARK    5  A    between atoms: N_12  and  C_13
REMARK    6  A    between atoms: C_13  and  C_14
REMARK                            x       y       z     vdW  Elec       q    Type
REMARK                         _______ _______ _______ _____ _____    ______ ____
ROOT
ATOM      1  C   UNL     1       0.272  10.019  19.219  0.00  0.00    +0.000 C 
ATOM      2  C   UNL     1      -0.079  11.329  18.491  0.00  0.00    +0.000 C 
ATOM      3  C   UNL     1       0.081  12.589  19.366  0.00  0.00    +0.000 C 
ATOM      4  C   UNL     1       1.525  12.826  19.852  0.00  0.00    +0.000 C 
ATOM      5  C   UNL     1       1.688  14.198  20.494  0.00  0.00    +0.000 C 
ATOM      6  N   UNL     1       1.382  15.295  19.574  0.00  0.00    +0.000 NA
ATOM      7  C   UNL     1      -0.038  15.168  19.189  0.00  0.00    +0.000 C 
ATOM      8  C   UNL     1      -0.406  13.816  18.552  0.00  0.00    +0.000 C 
ATOM      9  O   UNL     1      -0.775  12.482  20.518  0.00  0.00    +0.000 OA
ATOM     10  C   UNL     1      -0.684  11.301  21.208  0.00  0.00    +0.000 A 
ATOM     11  C   UNL     1      -1.048  11.369  22.553  0.00  0.00    +0.000 A 
ATOM     12  C   UNL     1      -0.970  10.235  23.359  0.00  0.00    +0.000 A 
ATOM     13  C   UNL     1      -0.578   9.020  22.806  0.00  0.00    +0.000 A 
ATOM     14  C   UNL     1      -0.233   8.946  21.456  0.00  0.00    +0.000 A 
ATOM     15  C   UNL     1      -0.244  10.094  20.647  0.00  0.00    +0.000 A 
ENDROOT
BRANCH   1  16
ATOM     16  C   UNL     1       1.778   9.651  19.223  0.00  0.00    +0.000 C 
BRANCH  16  20
ATOM     17  C   UNL     1       2.814   6.228  17.923  0.00  0.00    +0.000 C 
ATOM     18  N   UNL     1       2.530   7.322  18.838  0.00  0.00    +0.000 N 
ATOM     19  C   UNL     1       2.165   6.969  20.200  0.00  0.00    +0.000 C 
ATOM     20  C   UNL     1       2.203   8.556  18.260  0.00  0.00    +0.000 C 
ATOM     21  O   UNL     1       2.243   8.744  17.046  0.00  0.00    +0.000 OA
ENDBRANCH  16  20
ENDBRANCH   1  16
BRANCH   6  22
ATOM     22  C   UNL     1       2.257  15.375  18.394  0.00  0.00    +0.000 C 
BRANCH  22  23
ATOM     23  C   UNL     1       2.656  16.779  18.014  0.00  0.00    +0.000 C 
ATOM     24  C   UNL     1       2.870  17.105  16.555  0.00  0.00    +0.000 C 
ATOM     25  C   UNL     1       1.709  17.705  17.295  0.00  0.00    +0.000 C 
ENDBRANCH  22  23
ENDBRANCH   6  22
TORSDOF 4
ENDMDL
MODEL 6
REMARK VINA RESULT:      -6.2      3.669      8.455
REMARK  Name = 
REMARK  6 active torsions:
REMARK  status: ('A' for Active; 'I' for Inactive)
REMARK    1  A    between atoms: C_1  and  N_2
REMARK    2  A    between atoms: N_2  and  C_3
REMARK    3  A    between atoms: C_4  and  C_6
REMARK    4  A    between atoms: C_6  and  C_7
REMARK    5  A    between atoms: N_12  and  C_13
REMARK    6  A    between atoms: C_13  and  C_14
REMARK                            x       y       z     vdW  Elec       q    Type
REMARK                         _______ _______ _______ _____ _____    ______ ____
ROOT
ATOM      1  C   UNL     1       0.400   9.721  19.266  0.00  0.00    +0.000 C 
ATOM      2  C   UNL     1       0.152  10.996  18.439  0.00  0.00    +0.000 C 
ATOM      3  C   UNL     1       0.354  12.302  19.233  0.00  0.00    +0.000 C 
ATOM      4  C   UNL     1       1.791  12.492  19.759  0.00  0.00    +0.000 C 
ATOM      5  C   UNL     1       2.011  13.893  20.314  0.00  0.00    +0.000 C 
ATOM      6  N   UNL     1       1.804  14.939  19.312  0.00  0.00    +0.000 NA
ATOM      7  C   UNL     1       0.393  14.866  18.880  0.00  0.00    +0.000 C 
ATOM      8  C   UNL     1      -0.031  13.496  18.321  0.00  0.00    +0.000 C 
ATOM      9  O   UNL     1      -0.547  12.324  20.356  0.00  0.00    +0.000 OA
ATOM     10  C   UNL     1      -0.549  11.189  21.126  0.00  0.00    +0.000 A 
ATOM     11  C   UNL     1      -0.957  11.370  22.448  0.00  0.00    +0.000 A 
ATOM     12  C   UNL     1      -0.974  10.292  23.330  0.00  0.00    +0.000 A 
ATOM     13  C   UNL     1      -0.634   9.022  22.876  0.00  0.00    +0.000 A 
ATOM     14  C   UNL     1      -0.247   8.835  21.548  0.00  0.00    +0.000 A 
ATOM     15  C   UNL     1      -0.161   9.923  20.664  0.00  0.00    +0.000 A 
ENDROOT
BRANCH   1  16
ATOM     16  C   UNL     1       1.880   9.271  19.354  0.00  0.00    +0.000 C 
BRANCH  16  20
ATOM     17  C   UNL     1       2.924   5.938  17.843  0.00  0.00    +0.000 C 
ATOM     18  N   UNL     1       2.617   6.965  18.825  0.00  0.00    +0.000 N 
ATOM     19  C   UNL     1       2.190   6.517  20.141  0.00  0.00    +0.000 C 
ATOM     20  C   UNL     1       2.331   8.245  18.330  0.00  0.00    +0.000 C 
ATOM     21  O   UNL     1       2.425   8.522  17.136  0.00  0.00    +0.000 OA
ENDBRANCH  16  20
ENDBRANCH   1  16
BRANCH   6  22
ATOM     22  C   UNL     1       2.723  14.888  18.164  0.00  0.00    +0.000 C 
BRANCH  22  23
ATOM     23  C   UNL     1       4.133  14.486  18.519  0.00  0.00    +0.000 C 
ATOM     24  C   UNL     1       5.277  15.073  17.727  0.00  0.00    +0.000 C 
ATOM     25  C   UNL     1       5.092  15.451  19.169  0.00  0.00    +0.000 C 
ENDBRANCH  22  23
ENDBRANCH   6  22
TORSDOF 4
ENDMDL
MODEL 7
REMARK VINA RESULT:      -6.1      7.448     10.467
REMARK  Name = 
REMARK  6 active torsions:
REMARK  status: ('A' for Active; 'I' for Inactive)
REMARK    1  A    between atoms: C_1  and  N_2
REMARK    2  A    between atoms: N_2  and  C_3
REMARK    3  A    between atoms: C_4  and  C_6
REMARK    4  A    between atoms: C_6  and  C_7
REMARK    5  A    between atoms: N_12  and  C_13
REMARK    6  A    between atoms: C_13  and  C_14
REMARK                            x       y       z     vdW  Elec       q    Type
REMARK                         _______ _______ _______ _____ _____    ______ ____
ROOT
ATOM      1  C   UNL     1      -1.347  12.514  22.910  0.00  0.00    +0.000 C 
ATOM      2  C   UNL     1      -0.495  13.740  22.534  0.00  0.00    +0.000 C 
ATOM      3  C   UNL     1       0.239  13.597  21.185  0.00  0.00    +0.000 C 
ATOM      4  C   UNL     1      -0.707  13.436  19.978  0.00  0.00    +0.000 C 
ATOM      5  C   UNL     1       0.038  13.550  18.655  0.00  0.00    +0.000 C 
ATOM      6  N   UNL     1       0.697  14.846  18.485  0.00  0.00    +0.000 NA
ATOM      7  C   UNL     1       1.706  14.974  19.556  0.00  0.00    +0.000 C 
ATOM      8  C   UNL     1       1.139  14.844  20.982  0.00  0.00    +0.000 C 
ATOM      9  O   UNL     1       1.112  12.453  21.234  0.00  0.00    +0.000 OA
ATOM     10  C   UNL     1       0.533  11.295  21.688  0.00  0.00    +0.000 A 
ATOM     11  C   UNL     1       1.140  10.118  21.249  0.00  0.00    +0.000 A 
ATOM     12  C   UNL     1       0.623   8.880  21.626  0.00  0.00    +0.000 A 
ATOM     13  C   UNL     1      -0.471   8.821  22.484  0.00  0.00    +0.000 A 
ATOM     14  C   UNL     1      -1.066   9.998  22.940  0.00  0.00    +0.000 A 
ATOM     15  C   UNL     1      -0.596  11.252  22.517  0.00  0.00    +0.000 A 
ENDROOT
BRANCH   1  16
ATOM     16  C   UNL     1      -2.771  12.490  22.300  0.00  0.00    +0.000 C 
BRANCH  16  20
ATOM     17  C   UNL     1      -6.255  13.002  23.742  0.00  0.00    +0.000 C 
ATOM     18  N   UNL     1      -5.103  13.111  22.862  0.00  0.00    +0.000 N 
ATOM     19  C   UNL     1      -5.361  13.437  21.469  0.00  0.00    +0.000 C 
ATOM     20  C   UNL     1      -3.924  12.484  23.288  0.00  0.00    +0.000 C 
ATOM     21  O   UNL     1      -3.827  11.947  24.390  0.00  0.00    +0.000 OA
ENDBRANCH  16  20
ENDBRANCH   1  16
BRANCH   6  22
ATOM     22  C   UNL     1      -0.211  16.003  18.456  0.00  0.00    +0.000 C 
BRANCH  22  23
ATOM     23  C   UNL     1       0.454  17.300  18.064  0.00  0.00    +0.000 C 
ATOM     24  C   UNL     1      -0.273  18.234  17.126  0.00  0.00    +0.000 C 
ATOM     25  C   UNL     1      -0.054  18.631  18.558  0.00  0.00    +0.000 C 
ENDBRANCH  22  23
ENDBRANCH   6  22
TORSDOF 4
ENDMDL
MODEL 8
REMARK VINA RESULT:      -6.0      9.391     11.733
REMARK  Name = 
REMARK  6 active torsions:
REMARK  status: ('A' for Active; 'I' for Inactive)
REMARK    1  A    between atoms: C_1  and  N_2
REMARK    2  A    between atoms: N_2  and  C_3
REMARK    3  A    between atoms: C_4  and  C_6
REMARK    4  A    between atoms: C_6  and  C_7
REMARK    5  A    between atoms: N_12  and  C_13
REMARK    6  A    between atoms: C_13  and  C_14
REMARK                            x       y       z     vdW  Elec       q    Type
REMARK                         _______ _______ _______ _____ _____    ______ ____
ROOT
ATOM      1  C   UNL     1       9.605  13.418  21.792  0.00  0.00    +0.000 C 
ATOM      2  C   UNL     1       9.282  14.922  21.853  0.00  0.00    +0.000 C 
ATOM      3  C   UNL     1       9.040  15.564  20.472  0.00  0.00    +0.000 C 
ATOM      4  C   UNL     1       7.835  14.971  19.716  0.00  0.00    +0.000 C 
ATOM      5  C   UNL     1       7.480  15.791  18.482  0.00  0.00    +0.000 C 
ATOM      6  N   UNL     1       7.119  17.173  18.805  0.00  0.00    +0.000 NA
ATOM      7  C   UNL     1       8.303  17.810  19.417  0.00  0.00    +0.000 C 
ATOM      8  C   UNL     1       8.836  17.089  20.668  0.00  0.00    +0.000 C 
ATOM      9  O   UNL     1      10.215  15.399  19.656  0.00  0.00    +0.000 OA
ATOM     10  C   UNL     1      10.718  14.125  19.606  0.00  0.00    +0.000 A 
ATOM     11  C   UNL     1      11.462  13.825  18.464  0.00  0.00    +0.000 A 
ATOM     12  C   UNL     1      12.001  12.551  18.293  0.00  0.00    +0.000 A 
ATOM     13  C   UNL     1      11.841  11.593  19.289  0.00  0.00    +0.000 A 
ATOM     14  C   UNL     1      11.114  11.898  20.441  0.00  0.00    +0.000 A 
ATOM     15  C   UNL     1      10.509  13.156  20.598  0.00  0.00    +0.000 A 
ENDROOT
BRANCH   1  16
ATOM     16  C   UNL     1       8.371  12.482  21.731  0.00  0.00    +0.000 C 
BRANCH  16  20
ATOM     17  C   UNL     1       6.026  12.316  24.723  0.00  0.00    +0.000 C 
ATOM     18  N   UNL     1       6.677  12.790  23.512  0.00  0.00    +0.000 N 
ATOM     19  C   UNL     1       5.903  13.657  22.639  0.00  0.00    +0.000 C 
ATOM     20  C   UNL     1       7.786  12.057  23.066  0.00  0.00    +0.000 C 
ATOM     21  O   UNL     1       8.251  11.117  23.706  0.00  0.00    +0.000 OA
ENDBRANCH  16  20
ENDBRANCH   1  16
BRANCH   6  22
ATOM     22  C   UNL     1       5.927  17.319  19.655  0.00  0.00    +0.000 C 
BRANCH  22  23
ATOM     23  C   UNL     1       4.683  16.679  19.090  0.00  0.00    +0.000 C 
ATOM     24  C   UNL     1       3.998  15.593  19.886  0.00  0.00    +0.000 C 
ATOM     25  C   UNL     1       3.323  16.922  19.693  0.00  0.00    +0.000 C 
ENDBRANCH  22  23
ENDBRANCH   6  22
TORSDOF 4
ENDMDL
MODEL 9
REMARK VINA RESULT:      -6.0      8.614     11.625
REMARK  Name = 
REMARK  6 active torsions:
REMARK  status: ('A' for Active; 'I' for Inactive)
REMARK    1  A    between atoms: C_1  and  N_2
REMARK    2  A    between atoms: N_2  and  C_3
REMARK    3  A    between atoms: C_4  and  C_6
REMARK    4  A    between atoms: C_6  and  C_7
REMARK    5  A    between atoms: N_12  and  C_13
REMARK    6  A    between atoms: C_13  and  C_14
REMARK                            x       y       z     vdW  Elec       q    Type
REMARK                         _______ _______ _______ _____ _____    ______ ____
ROOT
ATOM      1  C   UNL     1       9.348  13.116  21.693  0.00  0.00    +0.000 C 
ATOM      2  C   UNL     1       9.699  14.594  21.439  0.00  0.00    +0.000 C 
ATOM      3  C   UNL     1       9.152  15.143  20.105  0.00  0.00    +0.000 C 
ATOM      4  C   UNL     1       7.614  15.121  20.011  0.00  0.00    +0.000 C 
ATOM      5  C   UNL     1       7.109  15.893  18.799  0.00  0.00    +0.000 C 
ATOM      6  N   UNL     1       7.495  17.305  18.827  0.00  0.00    +0.000 NA
ATOM      7  C   UNL     1       8.971  17.363  18.787  0.00  0.00    +0.000 C 
ATOM      8  C   UNL     1       9.667  16.595  19.925  0.00  0.00    +0.000 C 
ATOM      9  O   UNL     1       9.686  14.369  19.015  0.00  0.00    +0.000 OA
ATOM     10  C   UNL     1       9.576  13.010  19.153  0.00  0.00    +0.000 A 
ATOM     11  C   UNL     1       9.566  12.291  17.957  0.00  0.00    +0.000 A 
ATOM     12  C   UNL     1       9.432  10.904  17.974  0.00  0.00    +0.000 A 
ATOM     13  C   UNL     1       9.362  10.231  19.189  0.00  0.00    +0.000 A 
ATOM     14  C   UNL     1       9.393  10.947  20.387  0.00  0.00    +0.000 A 
ATOM     15  C   UNL     1       9.461  12.350  20.385  0.00  0.00    +0.000 A 
ENDROOT
BRANCH   1  16
ATOM     16  C   UNL     1       7.956  12.870  22.327  0.00  0.00    +0.000 C 
BRANCH  16  20
ATOM     17  C   UNL     1       7.549  12.704  26.107  0.00  0.00    +0.000 C 
ATOM     18  N   UNL     1       7.685  13.240  24.762  0.00  0.00    +0.000 N 
ATOM     19  C   UNL     1       7.106  14.549  24.509  0.00  0.00    +0.000 C 
ATOM     20  C   UNL     1       7.951  12.317  23.741  0.00  0.00    +0.000 C 
ATOM     21  O   UNL     1       8.156  11.126  23.970  0.00  0.00    +0.000 OA
ENDBRANCH  16  20
ENDBRANCH   1  16
BRANCH   6  22
ATOM     22  C   UNL     1       6.954  18.073  19.959  0.00  0.00    +0.000 C 
BRANCH  22  23
ATOM     23  C   UNL     1       5.520  17.750  20.297  0.00  0.00    +0.000 C 
ATOM     24  C   UNL     1       5.188  17.297  21.700  0.00  0.00    +0.000 C 
ATOM     25  C   UNL     1       4.702  18.630  21.207  0.00  0.00    +0.000 C 
ENDBRANCH  22  23
ENDBRANCH   6  22
TORSDOF 4
ENDMDL
