MODEL 1
REMARK VINA RESULT:      -8.2      0.000      0.000
REMARK  Name = 
REMARK  4 active torsions:
REMARK  status: ('A' for Active; 'I' for Inactive)
REMARK    1  A    between atoms: C_1  and  C_2
REMARK    2  A    between atoms: C_4  and  N_5
REMARK    3  A    between atoms: N_5  and  N_6
REMARK    4  A    between atoms: C_7  and  C_8
REMARK                            x       y       z     vdW  Elec       q    Type
REMARK                         _______ _______ _______ _____ _____    ______ ____
ROOT
ATOM      1  C   UNL     1       2.918   7.091  18.217  0.00  0.00    +0.000 C 
ATOM      2  C   UNL     1       3.648   5.829  18.583  0.00  0.00    +0.000 A 
ATOM      3  C   UNL     1       4.986   5.686  18.201  0.00  0.00    +0.000 A 
ATOM      4  C   UNL     1       5.705   4.558  18.583  0.00  0.00    +0.000 A 
ATOM      5  N   UNL     1       5.130   3.567  19.297  0.00  0.00    +0.000 NA
ATOM      6  C   UNL     1       3.837   3.671  19.646  0.00  0.00    +0.000 A 
ATOM      7  C   UNL     1       3.259   2.630  20.364  0.00  0.00    +0.000 A 
ATOM      8  C   UNL     1       1.927   2.666  20.781  0.00  0.00    +0.000 A 
ATOM      9  C   UNL     1       1.143   3.770  20.483  0.00  0.00    +0.000 A 
ATOM     10  C   UNL     1       1.693   4.826  19.758  0.00  0.00    +0.000 A 
ATOM     11  C   UNL     1       3.041   4.793  19.324  0.00  0.00    +0.000 A 
ENDROOT
BRANCH   4  12
ATOM     12  N   UNL     1       7.084   4.529  18.245  0.00  0.00    +0.000 N 
ATOM     13  H   UNL     1       7.639   5.079  18.895  0.00  0.00    +0.000 HD
BRANCH  12  14
ATOM     14  N   UNL     1       7.408   4.515  16.927  0.00  0.00    +0.000 NA
ATOM     15  C   UNL     1       6.446   4.208  16.119  0.00  0.00    +0.000 C 
BRANCH  15  16
ATOM     16  C   UNL     1       6.630   4.296  14.658  0.00  0.00    +0.000 A 
ATOM     17  C   UNL     1       5.893   3.471  13.809  0.00  0.00    +0.000 A 
ATOM     18  C   UNL     1       6.160   3.540  12.456  0.00  0.00    +0.000 A 
ATOM     19  N   UNL     1       7.088   4.362  11.917  0.00  0.00    +0.000 NA
ATOM     20  C   UNL     1       7.780   5.149  12.767  0.00  0.00    +0.000 A 
ATOM     21  C   UNL     1       7.592   5.157  14.139  0.00  0.00    +0.000 A 
ENDBRANCH  15  16
ENDBRANCH  12  14
ENDBRANCH   4  12
TORSDOF 3
ENDMDL
MODEL 2
REMARK VINA RESULT:      -8.1      4.282      5.538
REMARK  Name = 
REMARK  4 active torsions:
REMARK  status: ('A' for Active; 'I' for Inactive)
REMARK    1  A    between atoms: C_1  and  C_2
REMARK    2  A    between atoms: C_4  and  N_5
REMARK    3  A    between atoms: N_5  and  N_6
REMARK    4  A    between atoms: C_7  and  C_8
REMARK                            x       y       z     vdW  Elec       q    Type
REMARK                         _______ _______ _______ _____ _____    ______ ____
ROOT
ATOM      1  C   UNL     1       2.448   7.864  17.928  0.00  0.00    +0.000 C 
ATOM      2  C   UNL     1       3.523   6.857  17.635  0.00  0.00    +0.000 A 
ATOM      3  C   UNL     1       4.814   7.310  17.342  0.00  0.00    +0.000 A 
ATOM      4  C   UNL     1       5.844   6.399  17.132  0.00  0.00    +0.000 A 
ATOM      5  N   UNL     1       5.623   5.068  17.172  0.00  0.00    +0.000 NA
ATOM      6  C   UNL     1       4.384   4.612  17.420  0.00  0.00    +0.000 A 
ATOM      7  C   UNL     1       4.175   3.238  17.439  0.00  0.00    +0.000 A 
ATOM      8  C   UNL     1       2.922   2.682  17.707  0.00  0.00    +0.000 A 
ATOM      9  C   UNL     1       1.843   3.512  17.970  0.00  0.00    +0.000 A 
ATOM     10  C   UNL     1       2.022   4.894  17.952  0.00  0.00    +0.000 A 
ATOM     11  C   UNL     1       3.287   5.466  17.672  0.00  0.00    +0.000 A 
ENDROOT
BRANCH   4  12
ATOM     12  N   UNL     1       7.146   6.932  16.938  0.00  0.00    +0.000 N 
ATOM     13  H   UNL     1       7.865   6.245  17.146  0.00  0.00    +0.000 HD
BRANCH  12  14
ATOM     14  N   UNL     1       7.346   8.235  17.262  0.00  0.00    +0.000 NA
ATOM     15  C   UNL     1       8.279   8.457  18.130  0.00  0.00    +0.000 C 
BRANCH  15  16
ATOM     16  C   UNL     1       8.692   9.835  18.460  0.00  0.00    +0.000 A 
ATOM     17  C   UNL     1       8.419  10.877  17.575  0.00  0.00    +0.000 A 
ATOM     18  C   UNL     1       8.895  12.133  17.896  0.00  0.00    +0.000 A 
ATOM     19  N   UNL     1       9.603  12.401  19.016  0.00  0.00    +0.000 NA
ATOM     20  C   UNL     1       9.846  11.369  19.852  0.00  0.00    +0.000 A 
ATOM     21  C   UNL     1       9.416  10.073  19.624  0.00  0.00    +0.000 A 
ENDBRANCH  15  16
ENDBRANCH  12  14
ENDBRANCH   4  12
TORSDOF 3
ENDMDL
MODEL 3
REMARK VINA RESULT:      -7.7      1.686      2.180
REMARK  Name = 
REMARK  4 active torsions:
REMARK  status: ('A' for Active; 'I' for Inactive)
REMARK    1  A    between atoms: C_1  and  C_2
REMARK    2  A    between atoms: C_4  and  N_5
REMARK    3  A    between atoms: N_5  and  N_6
REMARK    4  A    between atoms: C_7  and  C_8
REMARK                            x       y       z     vdW  Elec       q    Type
REMARK                         _______ _______ _______ _____ _____    ______ ____
ROOT
ATOM      1  C   UNL     1       1.654   6.960  20.620  0.00  0.00    +0.000 C 
ATOM      2  C   UNL     1       2.301   6.200  19.497  0.00  0.00    +0.000 A 
ATOM      3  C   UNL     1       3.250   6.848  18.699  0.00  0.00    +0.000 A 
ATOM      4  C   UNL     1       3.912   6.150  17.694  0.00  0.00    +0.000 A 
ATOM      5  N   UNL     1       3.639   4.852  17.443  0.00  0.00    +0.000 NA
ATOM      6  C   UNL     1       2.708   4.221  18.177  0.00  0.00    +0.000 A 
ATOM      7  C   UNL     1       2.428   2.890  17.889  0.00  0.00    +0.000 A 
ATOM      8  C   UNL     1       1.489   2.155  18.616  0.00  0.00    +0.000 A 
ATOM      9  C   UNL     1       0.808   2.755  19.664  0.00  0.00    +0.000 A 
ATOM     10  C   UNL     1       1.063   4.090  19.971  0.00  0.00    +0.000 A 
ATOM     11  C   UNL     1       2.008   4.845  19.233  0.00  0.00    +0.000 A 
ENDROOT
BRANCH   4  12
ATOM     12  N   UNL     1       4.932   6.846  16.992  0.00  0.00    +0.000 N 
ATOM     13  H   UNL     1       4.921   7.839  17.206  0.00  0.00    +0.000 HD
BRANCH  12  14
ATOM     14  N   UNL     1       5.223   6.431  15.732  0.00  0.00    +0.000 NA
ATOM     15  C   UNL     1       6.113   5.496  15.645  0.00  0.00    +0.000 C 
BRANCH  15  16
ATOM     16  C   UNL     1       6.414   4.859  14.348  0.00  0.00    +0.000 A 
ATOM     17  C   UNL     1       7.493   5.305  13.585  0.00  0.00    +0.000 A 
ATOM     18  C   UNL     1       7.684   4.727  12.346  0.00  0.00    +0.000 A 
ATOM     19  N   UNL     1       6.888   3.758  11.840  0.00  0.00    +0.000 NA
ATOM     20  C   UNL     1       5.855   3.348  12.608  0.00  0.00    +0.000 A 
ATOM     21  C   UNL     1       5.575   3.862  13.863  0.00  0.00    +0.000 A 
ENDBRANCH  15  16
ENDBRANCH  12  14
ENDBRANCH   4  12
TORSDOF 3
ENDMDL
MODEL 4
REMARK VINA RESULT:      -7.6      4.249      5.579
REMARK  Name = 
REMARK  4 active torsions:
REMARK  status: ('A' for Active; 'I' for Inactive)
REMARK    1  A    between atoms: C_1  and  C_2
REMARK    2  A    between atoms: C_4  and  N_5
REMARK    3  A    between atoms: N_5  and  N_6
REMARK    4  A    between atoms: C_7  and  C_8
REMARK                            x       y       z     vdW  Elec       q    Type
REMARK                         _______ _______ _______ _____ _____    ______ ____
ROOT
ATOM      1  C   UNL     1       2.458   7.982  17.642  0.00  0.00    +0.000 C 
ATOM      2  C   UNL     1       3.567   6.974  17.535  0.00  0.00    +0.000 A 
ATOM      3  C   UNL     1       4.845   7.409  17.168  0.00  0.00    +0.000 A 
ATOM      4  C   UNL     1       5.904   6.509  17.126  0.00  0.00    +0.000 A 
ATOM      5  N   UNL     1       5.724   5.199  17.403  0.00  0.00    +0.000 NA
ATOM      6  C   UNL     1       4.498   4.756  17.725  0.00  0.00    +0.000 A 
ATOM      7  C   UNL     1       4.332   3.401  17.987  0.00  0.00    +0.000 A 
ATOM      8  C   UNL     1       3.095   2.861  18.348  0.00  0.00    +0.000 A 
ATOM      9  C   UNL     1       1.989   3.690  18.457  0.00  0.00    +0.000 A 
ATOM     10  C   UNL     1       2.124   5.052  18.194  0.00  0.00    +0.000 A 
ATOM     11  C   UNL     1       3.373   5.605  17.819  0.00  0.00    +0.000 A 
ENDROOT
BRANCH   4  12
ATOM     12  N   UNL     1       7.190   7.040  16.843  0.00  0.00    +0.000 N 
ATOM     13  H   UNL     1       7.916   6.339  16.955  0.00  0.00    +0.000 HD
BRANCH  12  14
ATOM     14  N   UNL     1       7.434   8.325  17.208  0.00  0.00    +0.000 NA
ATOM     15  C   UNL     1       8.303   8.481  18.153  0.00  0.00    +0.000 C 
BRANCH  15  16
ATOM     16  C   UNL     1       8.761   9.829  18.543  0.00  0.00    +0.000 A 
ATOM     17  C   UNL     1       9.220  10.064  19.838  0.00  0.00    +0.000 A 
ATOM     18  C   UNL     1       9.564  11.359  20.171  0.00  0.00    +0.000 A 
ATOM     19  N   UNL     1       9.484  12.400  19.312  0.00  0.00    +0.000 NA
ATOM     20  C   UNL     1       9.039  12.135  18.065  0.00  0.00    +0.000 A 
ATOM     21  C   UNL     1       8.668  10.875  17.630  0.00  0.00    +0.000 A 
ENDBRANCH  15  16
ENDBRANCH  12  14
ENDBRANCH   4  12
TORSDOF 3
ENDMDL
MODEL 5
REMARK VINA RESULT:      -7.6      4.691      7.570
REMARK  Name = 
REMARK  4 active torsions:
REMARK  status: ('A' for Active; 'I' for Inactive)
REMARK    1  A    between atoms: C_1  and  C_2
REMARK    2  A    between atoms: C_4  and  N_5
REMARK    3  A    between atoms: N_5  and  N_6
REMARK    4  A    between atoms: C_7  and  C_8
REMARK                            x       y       z     vdW  Elec       q    Type
REMARK                         _______ _______ _______ _____ _____    ______ ____
ROOT
ATOM      1  C   UNL     1       5.735   5.145  16.293  0.00  0.00    +0.000 C 
ATOM      2  C   UNL     1       4.476   5.497  17.034  0.00  0.00    +0.000 A 
ATOM      3  C   UNL     1       4.174   6.845  17.253  0.00  0.00    +0.000 A 
ATOM      4  C   UNL     1       2.983   7.202  17.878  0.00  0.00    +0.000 A 
ATOM      5  N   UNL     1       2.111   6.267  18.313  0.00  0.00    +0.000 NA
ATOM      6  C   UNL     1       2.398   4.966  18.140  0.00  0.00    +0.000 A 
ATOM      7  C   UNL     1       1.496   4.021  18.613  0.00  0.00    +0.000 A 
ATOM      8  C   UNL     1       1.709   2.649  18.458  0.00  0.00    +0.000 A 
ATOM      9  C   UNL     1       2.849   2.199  17.811  0.00  0.00    +0.000 A 
ATOM     10  C   UNL     1       3.775   3.124  17.332  0.00  0.00    +0.000 A 
ATOM     11  C   UNL     1       3.571   4.517  17.493  0.00  0.00    +0.000 A 
ENDROOT
BRANCH   4  12
ATOM     12  N   UNL     1       2.698   8.589  17.976  0.00  0.00    +0.000 N 
ATOM     13  H   UNL     1       3.317   9.051  18.637  0.00  0.00    +0.000 HD
BRANCH  12  14
ATOM     14  N   UNL     1       1.398   8.972  17.890  0.00  0.00    +0.000 NA
ATOM     15  C   UNL     1       1.013   9.839  18.770  0.00  0.00    +0.000 C 
BRANCH  15  16
ATOM     16  C   UNL     1      -0.331  10.443  18.697  0.00  0.00    +0.000 A 
ATOM     17  C   UNL     1      -1.197  10.097  17.660  0.00  0.00    +0.000 A 
ATOM     18  C   UNL     1      -2.413  10.748  17.596  0.00  0.00    +0.000 A 
ATOM     19  N   UNL     1      -2.804  11.693  18.480  0.00  0.00    +0.000 NA
ATOM     20  C   UNL     1      -1.943  12.000  19.473  0.00  0.00    +0.000 A 
ATOM     21  C   UNL     1      -0.701  11.408  19.627  0.00  0.00    +0.000 A 
ENDBRANCH  15  16
ENDBRANCH  12  14
ENDBRANCH   4  12
TORSDOF 3
ENDMDL
MODEL 6
REMARK VINA RESULT:      -7.6      4.519      8.381
REMARK  Name = 
REMARK  4 active torsions:
REMARK  status: ('A' for Active; 'I' for Inactive)
REMARK    1  A    between atoms: C_1  and  C_2
REMARK    2  A    between atoms: C_4  and  N_5
REMARK    3  A    between atoms: N_5  and  N_6
REMARK    4  A    between atoms: C_7  and  C_8
REMARK                            x       y       z     vdW  Elec       q    Type
REMARK                         _______ _______ _______ _____ _____    ______ ____
ROOT
ATOM      1  C   UNL     1       2.364   2.500  18.041  0.00  0.00    +0.000 C 
ATOM      2  C   UNL     1       2.700   3.942  18.297  0.00  0.00    +0.000 A 
ATOM      3  C   UNL     1       2.071   4.606  19.355  0.00  0.00    +0.000 A 
ATOM      4  C   UNL     1       2.412   5.921  19.656  0.00  0.00    +0.000 A 
ATOM      5  N   UNL     1       3.324   6.595  18.925  0.00  0.00    +0.000 NA
ATOM      6  C   UNL     1       3.916   5.985  17.884  0.00  0.00    +0.000 A 
ATOM      7  C   UNL     1       4.838   6.704  17.133  0.00  0.00    +0.000 A 
ATOM      8  C   UNL     1       5.512   6.139  16.047  0.00  0.00    +0.000 A 
ATOM      9  C   UNL     1       5.268   4.820  15.697  0.00  0.00    +0.000 A 
ATOM     10  C   UNL     1       4.344   4.077  16.429  0.00  0.00    +0.000 A 
ATOM     11  C   UNL     1       3.650   4.645  17.526  0.00  0.00    +0.000 A 
ENDROOT
BRANCH   4  12
ATOM     12  N   UNL     1       1.805   6.496  20.804  0.00  0.00    +0.000 N 
ATOM     13  H   UNL     1       1.229   5.821  21.300  0.00  0.00    +0.000 HD
BRANCH  12  14
ATOM     14  N   UNL     1       1.406   7.791  20.722  0.00  0.00    +0.000 NA
ATOM     15  C   UNL     1       0.706   8.223  21.721  0.00  0.00    +0.000 C 
BRANCH  15  16
ATOM     16  C   UNL     1       0.332   9.647  21.822  0.00  0.00    +0.000 A 
ATOM     17  C   UNL     1      -0.558  10.068  22.808  0.00  0.00    +0.000 A 
ATOM     18  C   UNL     1      -0.933  11.397  22.810  0.00  0.00    +0.000 A 
ATOM     19  N   UNL     1      -0.482  12.303  21.914  0.00  0.00    +0.000 NA
ATOM     20  C   UNL     1       0.382  11.861  20.975  0.00  0.00    +0.000 A 
ATOM     21  C   UNL     1       0.820  10.551  20.884  0.00  0.00    +0.000 A 
ENDBRANCH  15  16
ENDBRANCH  12  14
ENDBRANCH   4  12
TORSDOF 3
ENDMDL
MODEL 7
REMARK VINA RESULT:      -7.6      3.414      5.203
REMARK  Name = 
REMARK  4 active torsions:
REMARK  status: ('A' for Active; 'I' for Inactive)
REMARK    1  A    between atoms: C_1  and  C_2
REMARK    2  A    between atoms: C_4  and  N_5
REMARK    3  A    between atoms: N_5  and  N_6
REMARK    4  A    between atoms: C_7  and  C_8
REMARK                            x       y       z     vdW  Elec       q    Type
REMARK                         _______ _______ _______ _____ _____    ______ ____
ROOT
ATOM      1  C   UNL     1       1.893   9.778  17.704  0.00  0.00    +0.000 C 
ATOM      2  C   UNL     1       1.649   8.959  18.940  0.00  0.00    +0.000 A 
ATOM      3  C   UNL     1       2.171   7.663  19.007  0.00  0.00    +0.000 A 
ATOM      4  C   UNL     1       2.017   6.907  20.164  0.00  0.00    +0.000 A 
ATOM      5  N   UNL     1       1.339   7.384  21.230  0.00  0.00    +0.000 NA
ATOM      6  C   UNL     1       0.802   8.615  21.173  0.00  0.00    +0.000 A 
ATOM      7  C   UNL     1       0.092   9.078  22.274  0.00  0.00    +0.000 A 
ATOM      8  C   UNL     1      -0.482  10.352  22.304  0.00  0.00    +0.000 A 
ATOM      9  C   UNL     1      -0.344  11.194  21.211  0.00  0.00    +0.000 A 
ATOM     10  C   UNL     1       0.357  10.753  20.090  0.00  0.00    +0.000 A 
ATOM     11  C   UNL     1       0.934   9.460  20.049  0.00  0.00    +0.000 A 
ENDROOT
BRANCH   4  12
ATOM     12  N   UNL     1       2.659   5.641  20.197  0.00  0.00    +0.000 N 
ATOM     13  H   UNL     1       2.454   5.141  21.057  0.00  0.00    +0.000 HD
BRANCH  12  14
ATOM     14  N   UNL     1       3.894   5.547  19.641  0.00  0.00    +0.000 NA
ATOM     15  C   UNL     1       4.019   4.661  18.706  0.00  0.00    +0.000 C 
BRANCH  15  16
ATOM     16  C   UNL     1       5.267   4.558  17.926  0.00  0.00    +0.000 A 
ATOM     17  C   UNL     1       6.490   4.864  18.520  0.00  0.00    +0.000 A 
ATOM     18  C   UNL     1       7.618   4.825  17.724  0.00  0.00    +0.000 A 
ATOM     19  N   UNL     1       7.597   4.506  16.411  0.00  0.00    +0.000 NA
ATOM     20  C   UNL     1       6.395   4.212  15.869  0.00  0.00    +0.000 A 
ATOM     21  C   UNL     1       5.206   4.222  16.577  0.00  0.00    +0.000 A 
ENDBRANCH  15  16
ENDBRANCH  12  14
ENDBRANCH   4  12
TORSDOF 3
ENDMDL
MODEL 8
REMARK VINA RESULT:      -7.6      4.682      7.568
REMARK  Name = 
REMARK  4 active torsions:
REMARK  status: ('A' for Active; 'I' for Inactive)
REMARK    1  A    between atoms: C_1  and  C_2
REMARK    2  A    between atoms: C_4  and  N_5
REMARK    3  A    between atoms: N_5  and  N_6
REMARK    4  A    between atoms: C_7  and  C_8
REMARK                            x       y       z     vdW  Elec       q    Type
REMARK                         _______ _______ _______ _____ _____    ______ ____
ROOT
ATOM      1  C   UNL     1       6.103   5.264  16.887  0.00  0.00    +0.000 C 
ATOM      2  C   UNL     1       4.712   5.594  17.348  0.00  0.00    +0.000 A 
ATOM      3  C   UNL     1       4.354   6.937  17.513  0.00  0.00    +0.000 A 
ATOM      4  C   UNL     1       3.054   7.274  17.876  0.00  0.00    +0.000 A 
ATOM      5  N   UNL     1       2.122   6.325  18.108  0.00  0.00    +0.000 NA
ATOM      6  C   UNL     1       2.455   5.030  17.987  0.00  0.00    +0.000 A 
ATOM      7  C   UNL     1       1.484   4.070  18.249  0.00  0.00    +0.000 A 
ATOM      8  C   UNL     1       1.742   2.702  18.129  0.00  0.00    +0.000 A 
ATOM      9  C   UNL     1       2.998   2.272  17.731  0.00  0.00    +0.000 A 
ATOM     10  C   UNL     1       3.993   3.212  17.468  0.00  0.00    +0.000 A 
ATOM     11  C   UNL     1       3.742   4.600  17.597  0.00  0.00    +0.000 A 
ENDROOT
BRANCH   4  12
ATOM     12  N   UNL     1       2.738   8.657  17.927  0.00  0.00    +0.000 N 
ATOM     13  H   UNL     1       3.289   9.140  18.630  0.00  0.00    +0.000 HD
BRANCH  12  14
ATOM     14  N   UNL     1       1.444   9.015  17.723  0.00  0.00    +0.000 NA
ATOM     15  C   UNL     1       0.923   9.768  18.637  0.00  0.00    +0.000 C 
BRANCH  15  16
ATOM     16  C   UNL     1      -0.425  10.342  18.464  0.00  0.00    +0.000 A 
ATOM     17  C   UNL     1      -0.870  11.350  19.317  0.00  0.00    +0.000 A 
ATOM     18  C   UNL     1      -2.167  11.798  19.160  0.00  0.00    +0.000 A 
ATOM     19  N   UNL     1      -3.018  11.315  18.227  0.00  0.00    +0.000 NA
ATOM     20  C   UNL     1      -2.552  10.342  17.415  0.00  0.00    +0.000 A 
ATOM     21  C   UNL     1      -1.271   9.823  17.489  0.00  0.00    +0.000 A 
ENDBRANCH  15  16
ENDBRANCH  12  14
ENDBRANCH   4  12
TORSDOF 3
ENDMDL
MODEL 9
REMARK VINA RESULT:      -7.5      4.658      7.692
REMARK  Name = 
REMARK  4 active torsions:
REMARK  status: ('A' for Active; 'I' for Inactive)
REMARK    1  A    between atoms: C_1  and  C_2
REMARK    2  A    between atoms: C_4  and  N_5
REMARK    3  A    between atoms: N_5  and  N_6
REMARK    4  A    between atoms: C_7  and  C_8
REMARK                            x       y       z     vdW  Elec       q    Type
REMARK                         _______ _______ _______ _____ _____    ______ ____
ROOT
ATOM      1  C   UNL     1       4.150   6.031  17.141  0.00  0.00    +0.000 C 
ATOM      2  C   UNL     1       3.223   5.820  18.304  0.00  0.00    +0.000 A 
ATOM      3  C   UNL     1       2.980   6.885  19.178  0.00  0.00    +0.000 A 
ATOM      4  C   UNL     1       2.076   6.737  20.226  0.00  0.00    +0.000 A 
ATOM      5  N   UNL     1       1.440   5.566  20.445  0.00  0.00    +0.000 NA
ATOM      6  C   UNL     1       1.685   4.521  19.636  0.00  0.00    +0.000 A 
ATOM      7  C   UNL     1       1.035   3.320  19.892  0.00  0.00    +0.000 A 
ATOM      8  C   UNL     1       1.218   2.192  19.089  0.00  0.00    +0.000 A 
ATOM      9  C   UNL     1       2.070   2.256  17.996  0.00  0.00    +0.000 A 
ATOM     10  C   UNL     1       2.740   3.446  17.720  0.00  0.00    +0.000 A 
ATOM     11  C   UNL     1       2.566   4.592  18.534  0.00  0.00    +0.000 A 
ENDROOT
BRANCH   4  12
ATOM     12  N   UNL     1       1.804   7.889  21.009  0.00  0.00    +0.000 N 
ATOM     13  H   UNL     1       2.064   7.749  21.982  0.00  0.00    +0.000 HD
BRANCH  12  14
ATOM     14  N   UNL     1       0.694   8.609  20.706  0.00  0.00    +0.000 NA
ATOM     15  C   UNL     1       0.892   9.659  19.977  0.00  0.00    +0.000 C 
BRANCH  15  16
ATOM     16  C   UNL     1      -0.245  10.445  19.460  0.00  0.00    +0.000 A 
ATOM     17  C   UNL     1      -0.864  11.395  20.271  0.00  0.00    +0.000 A 
ATOM     18  C   UNL     1      -1.971  12.047  19.765  0.00  0.00    +0.000 A 
ATOM     19  N   UNL     1      -2.479  11.816  18.534  0.00  0.00    +0.000 NA
ATOM     20  C   UNL     1      -1.852  10.892  17.774  0.00  0.00    +0.000 A 
ATOM     21  C   UNL     1      -0.737  10.182  18.185  0.00  0.00    +0.000 A 
ENDBRANCH  15  16
ENDBRANCH  12  14
ENDBRANCH   4  12
TORSDOF 3
ENDMDL
