MODEL 1
REMARK VINA RESULT:      -8.5      0.000      0.000
REMARK  Name = 
REMARK  8 active torsions:
REMARK  status: ('A' for Active; 'I' for Inactive)
REMARK    1  A    between atoms: C_1  and  O_2
REMARK    2  A    between atoms: O_2  and  C_3
REMARK    3  A    between atoms: C_6  and  N_7
REMARK    4  A    between atoms: C_8  and  C_10
REMARK    5  A    between atoms: C_15  and  N_16
REMARK    6  A    between atoms: C_17  and  C_19
REMARK    7  A    between atoms: C_24  and  C_25
REMARK    8  A    between atoms: C_25  and  O_27
REMARK                            x       y       z     vdW  Elec       q    Type
REMARK                         _______ _______ _______ _____ _____    ______ ____
ROOT
ATOM      1  C   UNL     1       5.286   5.630  16.196  0.00  0.00    +0.000 A 
ATOM      2  C   UNL     1       5.935   5.978  14.996  0.00  0.00    +0.000 A 
ATOM      3  C   UNL     1       6.443   4.986  14.153  0.00  0.00    +0.000 A 
ATOM      4  C   UNL     1       6.296   3.645  14.490  0.00  0.00    +0.000 A 
ATOM      5  C   UNL     1       5.648   3.291  15.674  0.00  0.00    +0.000 A 
ATOM      6  C   UNL     1       5.138   4.269  16.543  0.00  0.00    +0.000 A 
ENDROOT
BRANCH   1   8
ATOM      7  N   UNL     1       3.384   6.786  17.228  0.00  0.00    +0.000 N 
ATOM      8  C   UNL     1       4.765   6.703  17.099  0.00  0.00    +0.000 C 
ATOM      9  O   UNL     1       5.590   7.444  17.624  0.00  0.00    +0.000 OA
ATOM     10  H   UNL     1       2.816   6.238  16.596  0.00  0.00    +0.000 HD
BRANCH   7  14
ATOM     11  C   UNL     1       1.145   9.206  19.890  0.00  0.00    +0.000 A 
ATOM     12  C   UNL     1       1.679   7.999  20.329  0.00  0.00    +0.000 A 
ATOM     13  C   UNL     1       2.441   7.197  19.475  0.00  0.00    +0.000 A 
ATOM     14  C   UNL     1       2.671   7.582  18.155  0.00  0.00    +0.000 A 
ATOM     15  C   UNL     1       2.129   8.798  17.711  0.00  0.00    +0.000 A 
ATOM     16  C   UNL     1       1.366   9.607  18.572  0.00  0.00    +0.000 A 
BRANCH  11  18
ATOM     17  C   UNL     1      -0.630  10.712  20.317  0.00  0.00    +0.000 C 
ATOM     18  O   UNL     1       0.398   9.870  20.820  0.00  0.00    +0.000 OA
ENDBRANCH  11  18
ENDBRANCH   7  14
ENDBRANCH   1   8
BRANCH   6  19
ATOM     19  N   UNL     1       4.464   3.876  17.736  0.00  0.00    +0.000 N 
ATOM     20  C   UNL     1       3.112   3.598  17.776  0.00  0.00    +0.000 C 
ATOM     21  O   UNL     1       2.362   3.600  16.803  0.00  0.00    +0.000 OA
ATOM     22  H   UNL     1       5.068   3.529  18.488  0.00  0.00    +0.000 HD
BRANCH  20  23
ATOM     23  C   UNL     1       2.504   3.253  19.077  0.00  0.00    +0.000 A 
ATOM     24  C   UNL     1       1.353   3.990  19.426  0.00  0.00    +0.000 A 
ATOM     25  C   UNL     1       0.745   3.827  20.672  0.00  0.00    +0.000 A 
ATOM     26  C   UNL     1       1.277   2.921  21.582  0.00  0.00    +0.000 A 
ATOM     27  C   UNL     1       2.425   2.202  21.254  0.00  0.00    +0.000 A 
ATOM     28  C   UNL     1       3.066   2.374  20.011  0.00  0.00    +0.000 A 
BRANCH  28  29
ATOM     29  C   UNL     1       4.324   1.609  19.831  0.00  0.00    +0.000 C 
ATOM     30  O   UNL     1       5.269   1.754  20.588  0.00  0.00    +0.000 OA
BRANCH  29  31
ATOM     31  O   UNL     1       4.397   0.847  18.723  0.00  0.00    +0.000 OA
ATOM     32  H   UNL     1       4.888   0.008  18.782  0.00  0.00    +0.000 HD
ENDBRANCH  29  31
ENDBRANCH  28  29
ENDBRANCH  20  23
ENDBRANCH   6  19
TORSDOF 7
ENDMDL
MODEL 2
REMARK VINA RESULT:      -7.9      1.049      1.057
REMARK  Name = 
REMARK  8 active torsions:
REMARK  status: ('A' for Active; 'I' for Inactive)
REMARK    1  A    between atoms: C_1  and  O_2
REMARK    2  A    between atoms: O_2  and  C_3
REMARK    3  A    between atoms: C_6  and  N_7
REMARK    4  A    between atoms: C_8  and  C_10
REMARK    5  A    between atoms: C_15  and  N_16
REMARK    6  A    between atoms: C_17  and  C_19
REMARK    7  A    between atoms: C_24  and  C_25
REMARK    8  A    between atoms: C_25  and  O_27
REMARK                            x       y       z     vdW  Elec       q    Type
REMARK                         _______ _______ _______ _____ _____    ______ ____
ROOT
ATOM      1  C   UNL     1       5.252   5.756  16.229  0.00  0.00    +0.000 A 
ATOM      2  C   UNL     1       6.119   6.100  15.175  0.00  0.00    +0.000 A 
ATOM      3  C   UNL     1       6.629   5.112  14.328  0.00  0.00    +0.000 A 
ATOM      4  C   UNL     1       6.269   3.783  14.515  0.00  0.00    +0.000 A 
ATOM      5  C   UNL     1       5.405   3.434  15.553  0.00  0.00    +0.000 A 
ATOM      6  C   UNL     1       4.887   4.406  16.424  0.00  0.00    +0.000 A 
ENDROOT
BRANCH   1   8
ATOM      7  N   UNL     1       3.348   6.948  17.217  0.00  0.00    +0.000 N 
ATOM      8  C   UNL     1       4.729   6.822  17.141  0.00  0.00    +0.000 C 
ATOM      9  O   UNL     1       5.556   7.521  17.719  0.00  0.00    +0.000 OA
ATOM     10  H   UNL     1       2.789   6.436  16.547  0.00  0.00    +0.000 HD
BRANCH   7  14
ATOM     11  C   UNL     1       1.075   9.359  19.857  0.00  0.00    +0.000 A 
ATOM     12  C   UNL     1       1.628   8.165  20.308  0.00  0.00    +0.000 A 
ATOM     13  C   UNL     1       2.401   7.366  19.461  0.00  0.00    +0.000 A 
ATOM     14  C   UNL     1       2.624   7.742  18.137  0.00  0.00    +0.000 A 
ATOM     15  C   UNL     1       2.062   8.944  17.682  0.00  0.00    +0.000 A 
ATOM     16  C   UNL     1       1.288   9.750  18.536  0.00  0.00    +0.000 A 
BRANCH  11  18
ATOM     17  C   UNL     1       0.183   9.394  22.049  0.00  0.00    +0.000 C 
ATOM     18  O   UNL     1       0.319  10.021  20.781  0.00  0.00    +0.000 OA
ENDBRANCH  11  18
ENDBRANCH   7  14
ENDBRANCH   1   8
BRANCH   6  19
ATOM     19  N   UNL     1       3.990   4.022  17.464  0.00  0.00    +0.000 N 
ATOM     20  C   UNL     1       4.396   3.822  18.768  0.00  0.00    +0.000 C 
ATOM     21  O   UNL     1       5.535   4.002  19.188  0.00  0.00    +0.000 OA
ATOM     22  H   UNL     1       2.997   4.184  17.268  0.00  0.00    +0.000 HD
BRANCH  20  23
ATOM     23  C   UNL     1       3.392   3.371  19.755  0.00  0.00    +0.000 A 
ATOM     24  C   UNL     1       2.235   4.171  19.855  0.00  0.00    +0.000 A 
ATOM     25  C   UNL     1       1.260   3.907  20.819  0.00  0.00    +0.000 A 
ATOM     26  C   UNL     1       1.429   2.838  21.690  0.00  0.00    +0.000 A 
ATOM     27  C   UNL     1       2.578   2.054  21.612  0.00  0.00    +0.000 A 
ATOM     28  C   UNL     1       3.584   2.322  20.662  0.00  0.00    +0.000 A 
BRANCH  28  29
ATOM     29  C   UNL     1       4.788   1.461  20.749  0.00  0.00    +0.000 C 
ATOM     30  O   UNL     1       5.471   1.424  21.759  0.00  0.00    +0.000 OA
BRANCH  29  31
ATOM     31  O   UNL     1       5.143   0.828  19.614  0.00  0.00    +0.000 OA
ATOM     32  H   UNL     1       5.877   1.205  19.096  0.00  0.00    +0.000 HD
ENDBRANCH  29  31
ENDBRANCH  28  29
ENDBRANCH  20  23
ENDBRANCH   6  19
TORSDOF 7
ENDMDL
MODEL 3
REMARK VINA RESULT:      -7.9      1.797      5.392
REMARK  Name = 
REMARK  8 active torsions:
REMARK  status: ('A' for Active; 'I' for Inactive)
REMARK    1  A    between atoms: C_1  and  O_2
REMARK    2  A    between atoms: O_2  and  C_3
REMARK    3  A    between atoms: C_6  and  N_7
REMARK    4  A    between atoms: C_8  and  C_10
REMARK    5  A    between atoms: C_15  and  N_16
REMARK    6  A    between atoms: C_17  and  C_19
REMARK    7  A    between atoms: C_24  and  C_25
REMARK    8  A    between atoms: C_25  and  O_27
REMARK                            x       y       z     vdW  Elec       q    Type
REMARK                         _______ _______ _______ _____ _____    ______ ____
ROOT
ATOM      1  C   UNL     1       2.463   4.733  19.920  0.00  0.00    +0.000 A 
ATOM      2  C   UNL     1       1.864   4.468  21.166  0.00  0.00    +0.000 A 
ATOM      3  C   UNL     1       2.130   3.273  21.839  0.00  0.00    +0.000 A 
ATOM      4  C   UNL     1       3.003   2.344  21.285  0.00  0.00    +0.000 A 
ATOM      5  C   UNL     1       3.607   2.601  20.054  0.00  0.00    +0.000 A 
ATOM      6  C   UNL     1       3.347   3.790  19.353  0.00  0.00    +0.000 A 
ENDROOT
BRANCH   1   8
ATOM      7  N   UNL     1       1.763   7.084  19.989  0.00  0.00    +0.000 N 
ATOM      8  C   UNL     1       2.153   6.009  19.201  0.00  0.00    +0.000 C 
ATOM      9  O   UNL     1       2.231   5.995  17.976  0.00  0.00    +0.000 OA
ATOM     10  H   UNL     1       1.558   6.907  20.963  0.00  0.00    +0.000 HD
BRANCH   7  14
ATOM     11  C   UNL     1       1.314  11.146  18.871  0.00  0.00    +0.000 A 
ATOM     12  C   UNL     1       1.970  10.260  18.023  0.00  0.00    +0.000 A 
ATOM     13  C   UNL     1       2.108   8.911  18.360  0.00  0.00    +0.000 A 
ATOM     14  C   UNL     1       1.604   8.425  19.565  0.00  0.00    +0.000 A 
ATOM     15  C   UNL     1       0.946   9.320  20.423  0.00  0.00    +0.000 A 
ATOM     16  C   UNL     1       0.804  10.677  20.080  0.00  0.00    +0.000 A 
BRANCH  11  18
ATOM     17  C   UNL     1       2.538  13.051  18.179  0.00  0.00    +0.000 C 
ATOM     18  O   UNL     1       1.281  12.438  18.429  0.00  0.00    +0.000 OA
ENDBRANCH  11  18
ENDBRANCH   7  14
ENDBRANCH   1   8
BRANCH   6  19
ATOM     19  N   UNL     1       3.995   4.034  18.106  0.00  0.00    +0.000 N 
ATOM     20  C   UNL     1       5.350   4.274  18.000  0.00  0.00    +0.000 C 
ATOM     21  O   UNL     1       6.146   4.248  18.934  0.00  0.00    +0.000 OA
ATOM     22  H   UNL     1       3.472   3.738  17.275  0.00  0.00    +0.000 HD
BRANCH  20  23
ATOM     23  C   UNL     1       5.908   4.570  16.664  0.00  0.00    +0.000 A 
ATOM     24  C   UNL     1       5.633   3.615  15.664  0.00  0.00    +0.000 A 
ATOM     25  C   UNL     1       6.188   3.730  14.388  0.00  0.00    +0.000 A 
ATOM     26  C   UNL     1       7.019   4.805  14.095  0.00  0.00    +0.000 A 
ATOM     27  C   UNL     1       7.312   5.743  15.083  0.00  0.00    +0.000 A 
ATOM     28  C   UNL     1       6.782   5.628  16.383  0.00  0.00    +0.000 A 
BRANCH  28  29
ATOM     29  C   UNL     1       7.246   6.648  17.354  0.00  0.00    +0.000 C 
ATOM     30  O   UNL     1       7.089   7.841  17.145  0.00  0.00    +0.000 OA
BRANCH  29  31
ATOM     31  O   UNL     1       7.949   6.186  18.405  0.00  0.00    +0.000 OA
ATOM     32  H   UNL     1       8.875   5.924  18.251  0.00  0.00    +0.000 HD
ENDBRANCH  29  31
ENDBRANCH  28  29
ENDBRANCH  20  23
ENDBRANCH   6  19
TORSDOF 7
ENDMDL
MODEL 4
REMARK VINA RESULT:      -7.8      1.915      5.057
REMARK  Name = 
REMARK  8 active torsions:
REMARK  status: ('A' for Active; 'I' for Inactive)
REMARK    1  A    between atoms: C_1  and  O_2
REMARK    2  A    between atoms: O_2  and  C_3
REMARK    3  A    between atoms: C_6  and  N_7
REMARK    4  A    between atoms: C_8  and  C_10
REMARK    5  A    between atoms: C_15  and  N_16
REMARK    6  A    between atoms: C_17  and  C_19
REMARK    7  A    between atoms: C_24  and  C_25
REMARK    8  A    between atoms: C_25  and  O_27
REMARK                            x       y       z     vdW  Elec       q    Type
REMARK                         _______ _______ _______ _____ _____    ______ ____
ROOT
ATOM      1  C   UNL     1       2.594   4.577  20.036  0.00  0.00    +0.000 A 
ATOM      2  C   UNL     1       1.885   4.112  21.159  0.00  0.00    +0.000 A 
ATOM      3  C   UNL     1       2.252   2.918  21.784  0.00  0.00    +0.000 A 
ATOM      4  C   UNL     1       3.335   2.188  21.306  0.00  0.00    +0.000 A 
ATOM      5  C   UNL     1       4.049   2.645  20.198  0.00  0.00    +0.000 A 
ATOM      6  C   UNL     1       3.692   3.837  19.546  0.00  0.00    +0.000 A 
ENDROOT
BRANCH   1   8
ATOM      7  N   UNL     1       1.915   6.929  20.196  0.00  0.00    +0.000 N 
ATOM      8  C   UNL     1       2.177   5.848  19.365  0.00  0.00    +0.000 C 
ATOM      9  O   UNL     1       2.064   5.826  18.143  0.00  0.00    +0.000 OA
ATOM     10  H   UNL     1       1.864   6.759  21.192  0.00  0.00    +0.000 HD
BRANCH   7  14
ATOM     11  C   UNL     1       1.211  10.882  18.842  0.00  0.00    +0.000 A 
ATOM     12  C   UNL     1       0.802  10.500  20.115  0.00  0.00    +0.000 A 
ATOM     13  C   UNL     1       1.045   9.209  20.591  0.00  0.00    +0.000 A 
ATOM     14  C   UNL     1       1.692   8.267  19.793  0.00  0.00    +0.000 A 
ATOM     15  C   UNL     1       2.100   8.652  18.507  0.00  0.00    +0.000 A 
ATOM     16  C   UNL     1       1.859   9.952  18.030  0.00  0.00    +0.000 A 
BRANCH  11  18
ATOM     17  C   UNL     1       1.719  13.188  19.009  0.00  0.00    +0.000 C 
ATOM     18  O   UNL     1       0.881  12.161  18.497  0.00  0.00    +0.000 OA
ENDBRANCH  11  18
ENDBRANCH   7  14
ENDBRANCH   1   8
BRANCH   6  19
ATOM     19  N   UNL     1       4.453   4.289  18.427  0.00  0.00    +0.000 N 
ATOM     20  C   UNL     1       4.614   3.540  17.279  0.00  0.00    +0.000 C 
ATOM     21  O   UNL     1       4.088   2.451  17.067  0.00  0.00    +0.000 OA
ATOM     22  H   UNL     1       4.628   5.299  18.396  0.00  0.00    +0.000 HD
BRANCH  20  23
ATOM     23  C   UNL     1       5.469   4.081  16.202  0.00  0.00    +0.000 A 
ATOM     24  C   UNL     1       4.985   3.898  14.890  0.00  0.00    +0.000 A 
ATOM     25  C   UNL     1       5.747   4.275  13.783  0.00  0.00    +0.000 A 
ATOM     26  C   UNL     1       7.000   4.846  13.975  0.00  0.00    +0.000 A 
ATOM     27  C   UNL     1       7.494   5.014  15.266  0.00  0.00    +0.000 A 
ATOM     28  C   UNL     1       6.750   4.615  16.394  0.00  0.00    +0.000 A 
BRANCH  28  29
ATOM     29  C   UNL     1       7.434   4.774  17.700  0.00  0.00    +0.000 C 
ATOM     30  O   UNL     1       7.126   5.666  18.473  0.00  0.00    +0.000 OA
BRANCH  29  31
ATOM     31  O   UNL     1       8.484   3.960  17.919  0.00  0.00    +0.000 OA
ATOM     32  H   UNL     1       9.113   3.825  17.187  0.00  0.00    +0.000 HD
ENDBRANCH  29  31
ENDBRANCH  28  29
ENDBRANCH  20  23
ENDBRANCH   6  19
TORSDOF 7
ENDMDL
MODEL 5
REMARK VINA RESULT:      -7.8      1.783      5.118
REMARK  Name = 
REMARK  8 active torsions:
REMARK  status: ('A' for Active; 'I' for Inactive)
REMARK    1  A    between atoms: C_1  and  O_2
REMARK    2  A    between atoms: O_2  and  C_3
REMARK    3  A    between atoms: C_6  and  N_7
REMARK    4  A    between atoms: C_8  and  C_10
REMARK    5  A    between atoms: C_15  and  N_16
REMARK    6  A    between atoms: C_17  and  C_19
REMARK    7  A    between atoms: C_24  and  C_25
REMARK    8  A    between atoms: C_25  and  O_27
REMARK                            x       y       z     vdW  Elec       q    Type
REMARK                         _______ _______ _______ _____ _____    ______ ____
ROOT
ATOM      1  C   UNL     1       2.654   4.431  20.011  0.00  0.00    +0.000 A 
ATOM      2  C   UNL     1       1.922   3.959  21.117  0.00  0.00    +0.000 A 
ATOM      3  C   UNL     1       2.310   2.790  21.775  0.00  0.00    +0.000 A 
ATOM      4  C   UNL     1       3.434   2.092  21.348  0.00  0.00    +0.000 A 
ATOM      5  C   UNL     1       4.170   2.557  20.258  0.00  0.00    +0.000 A 
ATOM      6  C   UNL     1       3.795   3.723  19.573  0.00  0.00    +0.000 A 
ENDROOT
BRANCH   1   8
ATOM      7  N   UNL     1       1.985   6.790  20.098  0.00  0.00    +0.000 N 
ATOM      8  C   UNL     1       2.215   5.674  19.303  0.00  0.00    +0.000 C 
ATOM      9  O   UNL     1       2.058   5.602  18.088  0.00  0.00    +0.000 OA
ATOM     10  H   UNL     1       1.970   6.662  21.101  0.00  0.00    +0.000 HD
BRANCH   7  14
ATOM     11  C   UNL     1       1.316  10.798  18.898  0.00  0.00    +0.000 A 
ATOM     12  C   UNL     1       1.974   9.917  18.045  0.00  0.00    +0.000 A 
ATOM     13  C   UNL     1       2.183   8.585  18.410  0.00  0.00    +0.000 A 
ATOM     14  C   UNL     1       1.751   8.111  19.648  0.00  0.00    +0.000 A 
ATOM     15  C   UNL     1       1.092   9.001  20.509  0.00  0.00    +0.000 A 
ATOM     16  C   UNL     1       0.878  10.341  20.139  0.00  0.00    +0.000 A 
BRANCH  11  18
ATOM     17  C   UNL     1       2.417  12.817  18.337  0.00  0.00    +0.000 C 
ATOM     18  O   UNL     1       1.209  12.075  18.425  0.00  0.00    +0.000 OA
ENDBRANCH  11  18
ENDBRANCH   7  14
ENDBRANCH   1   8
BRANCH   6  19
ATOM     19  N   UNL     1       4.578   4.185  18.474  0.00  0.00    +0.000 N 
ATOM     20  C   UNL     1       4.544   3.591  17.228  0.00  0.00    +0.000 C 
ATOM     21  O   UNL     1       3.812   2.657  16.911  0.00  0.00    +0.000 OA
ATOM     22  H   UNL     1       4.940   5.140  18.564  0.00  0.00    +0.000 HD
BRANCH  20  23
ATOM     23  C   UNL     1       5.438   4.115  16.175  0.00  0.00    +0.000 A 
ATOM     24  C   UNL     1       5.097   3.760  14.854  0.00  0.00    +0.000 A 
ATOM     25  C   UNL     1       5.918   4.111  13.781  0.00  0.00    +0.000 A 
ATOM     26  C   UNL     1       7.086   4.825  14.015  0.00  0.00    +0.000 A 
ATOM     27  C   UNL     1       7.442   5.164  15.319  0.00  0.00    +0.000 A 
ATOM     28  C   UNL     1       6.639   4.796  16.416  0.00  0.00    +0.000 A 
BRANCH  28  29
ATOM     29  C   UNL     1       7.181   5.148  17.751  0.00  0.00    +0.000 C 
ATOM     30  O   UNL     1       7.881   4.369  18.377  0.00  0.00    +0.000 OA
BRANCH  29  31
ATOM     31  O   UNL     1       6.755   6.314  18.271  0.00  0.00    +0.000 OA
ATOM     32  H   UNL     1       7.293   7.109  18.102  0.00  0.00    +0.000 HD
ENDBRANCH  29  31
ENDBRANCH  28  29
ENDBRANCH  20  23
ENDBRANCH   6  19
TORSDOF 7
ENDMDL
MODEL 6
REMARK VINA RESULT:      -7.7      1.885      5.142
REMARK  Name = 
REMARK  8 active torsions:
REMARK  status: ('A' for Active; 'I' for Inactive)
REMARK    1  A    between atoms: C_1  and  O_2
REMARK    2  A    between atoms: O_2  and  C_3
REMARK    3  A    between atoms: C_6  and  N_7
REMARK    4  A    between atoms: C_8  and  C_10
REMARK    5  A    between atoms: C_15  and  N_16
REMARK    6  A    between atoms: C_17  and  C_19
REMARK    7  A    between atoms: C_24  and  C_25
REMARK    8  A    between atoms: C_25  and  O_27
REMARK                            x       y       z     vdW  Elec       q    Type
REMARK                         _______ _______ _______ _____ _____    ______ ____
ROOT
ATOM      1  C   UNL     1       2.218   4.835  19.727  0.00  0.00    +0.000 A 
ATOM      2  C   UNL     1       1.429   4.484  20.839  0.00  0.00    +0.000 A 
ATOM      3  C   UNL     1       1.109   3.147  21.086  0.00  0.00    +0.000 A 
ATOM      4  C   UNL     1       1.582   2.151  20.238  0.00  0.00    +0.000 A 
ATOM      5  C   UNL     1       2.370   2.489  19.138  0.00  0.00    +0.000 A 
ATOM      6  C   UNL     1       2.697   3.826  18.862  0.00  0.00    +0.000 A 
ENDROOT
BRANCH   1   8
ATOM      7  N   UNL     1       1.455   7.117  19.250  0.00  0.00    +0.000 N 
ATOM      8  C   UNL     1       2.537   6.273  19.464  0.00  0.00    +0.000 C 
ATOM      9  O   UNL     1       3.723   6.586  19.423  0.00  0.00    +0.000 OA
ATOM     10  H   UNL     1       0.544   6.696  19.125  0.00  0.00    +0.000 HD
BRANCH   7  14
ATOM     11  C   UNL     1       1.527  11.335  18.857  0.00  0.00    +0.000 A 
ATOM     12  C   UNL     1       0.978  10.752  19.994  0.00  0.00    +0.000 A 
ATOM     13  C   UNL     1       0.965   9.364  20.155  0.00  0.00    +0.000 A 
ATOM     14  C   UNL     1       1.491   8.529  19.171  0.00  0.00    +0.000 A 
ATOM     15  C   UNL     1       2.041   9.118  18.022  0.00  0.00    +0.000 A 
ATOM     16  C   UNL     1       2.057  10.515  17.862  0.00  0.00    +0.000 A 
BRANCH  11  18
ATOM     17  C   UNL     1       2.505  13.411  19.438  0.00  0.00    +0.000 C 
ATOM     18  O   UNL     1       1.444  12.697  18.819  0.00  0.00    +0.000 OA
ENDBRANCH  11  18
ENDBRANCH   7  14
ENDBRANCH   1   8
BRANCH   6  19
ATOM     19  N   UNL     1       3.521   4.139  17.741  0.00  0.00    +0.000 N 
ATOM     20  C   UNL     1       4.894   3.999  17.759  0.00  0.00    +0.000 C 
ATOM     21  O   UNL     1       5.546   3.546  18.696  0.00  0.00    +0.000 OA
ATOM     22  H   UNL     1       3.035   4.192  16.841  0.00  0.00    +0.000 HD
BRANCH  20  23
ATOM     23  C   UNL     1       5.657   4.405  16.560  0.00  0.00    +0.000 A 
ATOM     24  C   UNL     1       5.207   3.861  15.339  0.00  0.00    +0.000 A 
ATOM     25  C   UNL     1       5.904   4.089  14.151  0.00  0.00    +0.000 A 
ATOM     26  C   UNL     1       7.054   4.867  14.168  0.00  0.00    +0.000 A 
ATOM     27  C   UNL     1       7.518   5.393  15.372  0.00  0.00    +0.000 A 
ATOM     28  C   UNL     1       6.842   5.152  16.585  0.00  0.00    +0.000 A 
BRANCH  28  29
ATOM     29  C   UNL     1       7.493   5.700  17.799  0.00  0.00    +0.000 C 
ATOM     30  O   UNL     1       7.624   6.903  17.961  0.00  0.00    +0.000 OA
BRANCH  29  31
ATOM     31  O   UNL     1       8.032   4.796  18.639  0.00  0.00    +0.000 OA
ATOM     32  H   UNL     1       7.847   3.855  18.471  0.00  0.00    +0.000 HD
ENDBRANCH  29  31
ENDBRANCH  28  29
ENDBRANCH  20  23
ENDBRANCH   6  19
TORSDOF 7
ENDMDL
MODEL 7
REMARK VINA RESULT:      -7.6      3.075      5.657
REMARK  Name = 
REMARK  8 active torsions:
REMARK  status: ('A' for Active; 'I' for Inactive)
REMARK    1  A    between atoms: C_1  and  O_2
REMARK    2  A    between atoms: O_2  and  C_3
REMARK    3  A    between atoms: C_6  and  N_7
REMARK    4  A    between atoms: C_8  and  C_10
REMARK    5  A    between atoms: C_15  and  N_16
REMARK    6  A    between atoms: C_17  and  C_19
REMARK    7  A    between atoms: C_24  and  C_25
REMARK    8  A    between atoms: C_25  and  O_27
REMARK                            x       y       z     vdW  Elec       q    Type
REMARK                         _______ _______ _______ _____ _____    ______ ____
ROOT
ATOM      1  C   UNL     1       5.959   4.025  14.602  0.00  0.00    +0.000 A 
ATOM      2  C   UNL     1       5.491   3.305  13.488  0.00  0.00    +0.000 A 
ATOM      3  C   UNL     1       6.042   3.522  12.222  0.00  0.00    +0.000 A 
ATOM      4  C   UNL     1       7.070   4.444  12.061  0.00  0.00    +0.000 A 
ATOM      5  C   UNL     1       7.545   5.158  13.162  0.00  0.00    +0.000 A 
ATOM      6  C   UNL     1       7.001   4.965  14.442  0.00  0.00    +0.000 A 
ENDROOT
BRANCH   1   8
ATOM      7  N   UNL     1       4.034   4.225  16.111  0.00  0.00    +0.000 N 
ATOM      8  C   UNL     1       5.346   3.797  15.948  0.00  0.00    +0.000 C 
ATOM      9  O   UNL     1       6.055   3.285  16.809  0.00  0.00    +0.000 OA
ATOM     10  H   UNL     1       3.630   4.798  15.383  0.00  0.00    +0.000 HD
BRANCH   7  14
ATOM     11  C   UNL     1       1.562   3.259  19.413  0.00  0.00    +0.000 A 
ATOM     12  C   UNL     1       2.188   4.500  19.352  0.00  0.00    +0.000 A 
ATOM     13  C   UNL     1       2.987   4.849  18.261  0.00  0.00    +0.000 A 
ATOM     14  C   UNL     1       3.190   3.952  17.213  0.00  0.00    +0.000 A 
ATOM     15  C   UNL     1       2.562   2.699  17.277  0.00  0.00    +0.000 A 
ATOM     16  C   UNL     1       1.754   2.350  18.374  0.00  0.00    +0.000 A 
BRANCH  11  18
ATOM     17  C   UNL     1       1.582   2.841  21.743  0.00  0.00    +0.000 C 
ATOM     18  O   UNL     1       0.837   3.043  20.550  0.00  0.00    +0.000 OA
ENDBRANCH  11  18
ENDBRANCH   7  14
ENDBRANCH   1   8
BRANCH   6  19
ATOM     19  N   UNL     1       7.521   5.695  15.551  0.00  0.00    +0.000 N 
ATOM     20  C   UNL     1       6.793   6.656  16.223  0.00  0.00    +0.000 C 
ATOM     21  O   UNL     1       5.624   6.949  15.988  0.00  0.00    +0.000 OA
ATOM     22  H   UNL     1       8.338   5.276  16.008  0.00  0.00    +0.000 HD
BRANCH  20  23
ATOM     23  C   UNL     1       7.448   7.391  17.325  0.00  0.00    +0.000 A 
ATOM     24  C   UNL     1       7.775   8.735  17.051  0.00  0.00    +0.000 A 
ATOM     25  C   UNL     1       8.485   9.505  17.975  0.00  0.00    +0.000 A 
ATOM     26  C   UNL     1       8.872   8.942  19.184  0.00  0.00    +0.000 A 
ATOM     27  C   UNL     1       8.570   7.609  19.456  0.00  0.00    +0.000 A 
ATOM     28  C   UNL     1       7.878   6.810  18.525  0.00  0.00    +0.000 A 
BRANCH  28  29
ATOM     29  C   UNL     1       7.701   5.389  18.910  0.00  0.00    +0.000 C 
ATOM     30  O   UNL     1       7.073   5.074  19.908  0.00  0.00    +0.000 OA
BRANCH  29  31
ATOM     31  O   UNL     1       8.372   4.488  18.166  0.00  0.00    +0.000 OA
ATOM     32  H   UNL     1       8.202   4.476  17.207  0.00  0.00    +0.000 HD
ENDBRANCH  29  31
ENDBRANCH  28  29
ENDBRANCH  20  23
ENDBRANCH   6  19
TORSDOF 7
ENDMDL
MODEL 8
REMARK VINA RESULT:      -7.4      1.918      7.305
REMARK  Name = 
REMARK  8 active torsions:
REMARK  status: ('A' for Active; 'I' for Inactive)
REMARK    1  A    between atoms: C_1  and  O_2
REMARK    2  A    between atoms: O_2  and  C_3
REMARK    3  A    between atoms: C_6  and  N_7
REMARK    4  A    between atoms: C_8  and  C_10
REMARK    5  A    between atoms: C_15  and  N_16
REMARK    6  A    between atoms: C_17  and  C_19
REMARK    7  A    between atoms: C_24  and  C_25
REMARK    8  A    between atoms: C_25  and  O_27
REMARK                            x       y       z     vdW  Elec       q    Type
REMARK                         _______ _______ _______ _____ _____    ______ ____
ROOT
ATOM      1  C   UNL     1       3.297   3.879  19.848  0.00  0.00    +0.000 A 
ATOM      2  C   UNL     1       3.476   2.585  20.373  0.00  0.00    +0.000 A 
ATOM      3  C   UNL     1       2.513   2.023  21.214  0.00  0.00    +0.000 A 
ATOM      4  C   UNL     1       1.361   2.737  21.526  0.00  0.00    +0.000 A 
ATOM      5  C   UNL     1       1.172   4.017  21.005  0.00  0.00    +0.000 A 
ATOM      6  C   UNL     1       2.130   4.608  20.166  0.00  0.00    +0.000 A 
ENDROOT
BRANCH   1   8
ATOM      7  N   UNL     1       4.770   3.699  17.894  0.00  0.00    +0.000 N 
ATOM      8  C   UNL     1       4.347   4.477  18.965  0.00  0.00    +0.000 C 
ATOM      9  O   UNL     1       4.775   5.585  19.273  0.00  0.00    +0.000 OA
ATOM     10  H   UNL     1       4.473   2.733  17.865  0.00  0.00    +0.000 HD
BRANCH   7  14
ATOM     11  C   UNL     1       7.134   5.030  14.640  0.00  0.00    +0.000 A 
ATOM     12  C   UNL     1       7.690   4.938  15.912  0.00  0.00    +0.000 A 
ATOM     13  C   UNL     1       6.936   4.478  16.994  0.00  0.00    +0.000 A 
ATOM     14  C   UNL     1       5.601   4.115  16.827  0.00  0.00    +0.000 A 
ATOM     15  C   UNL     1       5.039   4.213  15.545  0.00  0.00    +0.000 A 
ATOM     16  C   UNL     1       5.800   4.672  14.455  0.00  0.00    +0.000 A 
BRANCH  11  18
ATOM     17  C   UNL     1       7.684   5.164  12.342  0.00  0.00    +0.000 C 
ATOM     18  O   UNL     1       7.976   5.523  13.685  0.00  0.00    +0.000 OA
ENDBRANCH  11  18
ENDBRANCH   7  14
ENDBRANCH   1   8
BRANCH   6  19
ATOM     19  N   UNL     1       1.900   5.911  19.633  0.00  0.00    +0.000 N 
ATOM     20  C   UNL     1       1.822   7.040  20.422  0.00  0.00    +0.000 C 
ATOM     21  O   UNL     1       1.995   7.066  21.637  0.00  0.00    +0.000 OA
ATOM     22  H   UNL     1       2.084   6.013  18.629  0.00  0.00    +0.000 HD
BRANCH  20  23
ATOM     23  C   UNL     1       1.525   8.333  19.771  0.00  0.00    +0.000 A 
ATOM     24  C   UNL     1       1.986   8.467  18.445  0.00  0.00    +0.000 A 
ATOM     25  C   UNL     1       1.854   9.675  17.757  0.00  0.00    +0.000 A 
ATOM     26  C   UNL     1       1.256  10.761  18.385  0.00  0.00    +0.000 A 
ATOM     27  C   UNL     1       0.815  10.644  19.702  0.00  0.00    +0.000 A 
ATOM     28  C   UNL     1       0.963   9.441  20.419  0.00  0.00    +0.000 A 
BRANCH  28  29
ATOM     29  C   UNL     1       0.528   9.485  21.836  0.00  0.00    +0.000 C 
ATOM     30  O   UNL     1      -0.653   9.434  22.139  0.00  0.00    +0.000 OA
BRANCH  29  31
ATOM     31  O   UNL     1       1.497   9.706  22.744  0.00  0.00    +0.000 OA
ATOM     32  H   UNL     1       2.359  10.022  22.419  0.00  0.00    +0.000 HD
ENDBRANCH  29  31
ENDBRANCH  28  29
ENDBRANCH  20  23
ENDBRANCH   6  19
TORSDOF 7
ENDMDL
MODEL 9
REMARK VINA RESULT:      -7.4      2.227      5.126
REMARK  Name = 
REMARK  8 active torsions:
REMARK  status: ('A' for Active; 'I' for Inactive)
REMARK    1  A    between atoms: C_1  and  O_2
REMARK    2  A    between atoms: O_2  and  C_3
REMARK    3  A    between atoms: C_6  and  N_7
REMARK    4  A    between atoms: C_8  and  C_10
REMARK    5  A    between atoms: C_15  and  N_16
REMARK    6  A    between atoms: C_17  and  C_19
REMARK    7  A    between atoms: C_24  and  C_25
REMARK    8  A    between atoms: C_25  and  O_27
REMARK                            x       y       z     vdW  Elec       q    Type
REMARK                         _______ _______ _______ _____ _____    ______ ____
ROOT
ATOM      1  C   UNL     1       1.945   4.216  19.436  0.00  0.00    +0.000 A 
ATOM      2  C   UNL     1       0.923   3.281  19.688  0.00  0.00    +0.000 A 
ATOM      3  C   UNL     1       0.869   2.082  18.972  0.00  0.00    +0.000 A 
ATOM      4  C   UNL     1       1.837   1.800  18.015  0.00  0.00    +0.000 A 
ATOM      5  C   UNL     1       2.857   2.717  17.764  0.00  0.00    +0.000 A 
ATOM      6  C   UNL     1       2.927   3.934  18.462  0.00  0.00    +0.000 A 
ENDROOT
BRANCH   1   8
ATOM      7  N   UNL     1       1.727   6.659  19.466  0.00  0.00    +0.000 N 
ATOM      8  C   UNL     1       1.979   5.504  20.196  0.00  0.00    +0.000 C 
ATOM      9  O   UNL     1       2.260   5.445  21.389  0.00  0.00    +0.000 OA
ATOM     10  H   UNL     1       1.696   6.585  18.459  0.00  0.00    +0.000 HD
BRANCH   7  14
ATOM     11  C   UNL     1       1.008  10.578  20.909  0.00  0.00    +0.000 A 
ATOM     12  C   UNL     1       1.098   9.514  21.801  0.00  0.00    +0.000 A 
ATOM     13  C   UNL     1       1.358   8.217  21.349  0.00  0.00    +0.000 A 
ATOM     14  C   UNL     1       1.520   7.958  19.989  0.00  0.00    +0.000 A 
ATOM     15  C   UNL     1       1.425   9.030  19.090  0.00  0.00    +0.000 A 
ATOM     16  C   UNL     1       1.167  10.336  19.545  0.00  0.00    +0.000 A 
BRANCH  11  18
ATOM     17  C   UNL     1       0.329  12.825  20.604  0.00  0.00    +0.000 C 
ATOM     18  O   UNL     1       0.719  11.781  21.486  0.00  0.00    +0.000 OA
ENDBRANCH  11  18
ENDBRANCH   7  14
ENDBRANCH   1   8
BRANCH   6  19
ATOM     19  N   UNL     1       3.993   4.843  18.198  0.00  0.00    +0.000 N 
ATOM     20  C   UNL     1       5.268   4.670  18.698  0.00  0.00    +0.000 C 
ATOM     21  O   UNL     1       5.639   3.707  19.365  0.00  0.00    +0.000 OA
ATOM     22  H   UNL     1       3.852   5.463  17.394  0.00  0.00    +0.000 HD
BRANCH  20  23
ATOM     23  C   UNL     1       6.284   5.702  18.408  0.00  0.00    +0.000 A 
ATOM     24  C   UNL     1       7.392   5.728  19.279  0.00  0.00    +0.000 A 
ATOM     25  C   UNL     1       8.369   6.720  19.169  0.00  0.00    +0.000 A 
ATOM     26  C   UNL     1       8.253   7.693  18.184  0.00  0.00    +0.000 A 
ATOM     27  C   UNL     1       7.151   7.686  17.331  0.00  0.00    +0.000 A 
ATOM     28  C   UNL     1       6.143   6.709  17.444  0.00  0.00    +0.000 A 
BRANCH  28  29
ATOM     29  C   UNL     1       4.988   6.874  16.528  0.00  0.00    +0.000 C 
ATOM     30  O   UNL     1       5.088   6.647  15.333  0.00  0.00    +0.000 OA
BRANCH  29  31
ATOM     31  O   UNL     1       3.875   7.402  17.072  0.00  0.00    +0.000 OA
ATOM     32  H   UNL     1       3.854   7.519  18.039  0.00  0.00    +0.000 HD
ENDBRANCH  29  31
ENDBRANCH  28  29
ENDBRANCH  20  23
ENDBRANCH   6  19
TORSDOF 7
ENDMDL
