MODEL 1
REMARK VINA RESULT:      -8.4      0.000      0.000
REMARK  Name = 
REMARK  8 active torsions:
REMARK  status: ('A' for Active; 'I' for Inactive)
REMARK    1  A    between atoms: C_1  and  C_2
REMARK    2  A    between atoms: C_2  and  N_3
REMARK    3  A    between atoms: C_5  and  C_6
REMARK    4  A    between atoms: C_6  and  O_8
REMARK    5  A    between atoms: O_8  and  C_9
REMARK    6  A    between atoms: C_9  and  C_10
REMARK    7  A    between atoms: N_12  and  C_13
REMARK    8  A    between atoms: C_18  and  C_19
REMARK                            x       y       z     vdW  Elec       q    Type
REMARK                         _______ _______ _______ _____ _____    ______ ____
ROOT
ATOM      1  C   UNL     1       2.378   7.401  18.716  0.00  0.00    +0.000 C 
ATOM      2  O   UNL     1       2.269   7.453  19.933  0.00  0.00    +0.000 OA
ENDROOT
BRANCH   1   5
ATOM      3  N   UNL     1       5.271   5.992  16.910  0.00  0.00    +0.000 N 
ATOM      4  N   UNL     1       4.394   6.857  17.517  0.00  0.00    +0.000 NA
ATOM      5  C   UNL     1       3.284   6.393  18.015  0.00  0.00    +0.000 A 
ATOM      6  C   UNL     1       2.907   4.965  17.959  0.00  0.00    +0.000 A 
ATOM      7  C   UNL     1       1.690   4.458  18.436  0.00  0.00    +0.000 A 
ATOM      8  C   UNL     1       1.415   3.089  18.348  0.00  0.00    +0.000 A 
ATOM      9  C   UNL     1       2.349   2.219  17.791  0.00  0.00    +0.000 A 
ATOM     10  C   UNL     1       3.560   2.717  17.318  0.00  0.00    +0.000 A 
ATOM     11  C   UNL     1       3.833   4.091  17.397  0.00  0.00    +0.000 A 
ATOM     12  C   UNL     1       5.104   4.612  16.861  0.00  0.00    +0.000 A 
ATOM     13  O   UNL     1       5.928   3.831  16.395  0.00  0.00    +0.000 OA
BRANCH   3  15
ATOM     14  C   UNL     1       7.386   7.102  17.521  0.00  0.00    +0.000 C 
ATOM     15  C   UNL     1       6.504   6.581  16.398  0.00  0.00    +0.000 C 
ENDBRANCH   3  15
ENDBRANCH   1   5
BRANCH   1  16
ATOM     16  O   UNL     1       1.773   8.228  17.840  0.00  0.00    +0.000 OA
BRANCH  16  17
ATOM     17  C   UNL     1       1.735   9.599  18.237  0.00  0.00    +0.000 C 
BRANCH  17  18
ATOM     18  C   UNL     1       0.417  10.053  18.877  0.00  0.00    +0.000 C 
ATOM     19  O   UNL     1       0.084   9.671  19.996  0.00  0.00    +0.000 OA
ATOM     20  N   UNL     1      -0.341  10.883  18.065  0.00  0.00    +0.000 N 
ATOM     21  H   UNL     1      -0.294  10.660  17.071  0.00  0.00    +0.000 HD
BRANCH  20  22
ATOM     22  C   UNL     1      -1.617  11.303  18.469  0.00  0.00    +0.000 A 
ATOM     23  N   UNL     1      -1.616  12.009  19.620  0.00  0.00    +0.000 NA
ATOM     24  C   UNL     1      -2.802  12.538  20.001  0.00  0.00    +0.000 A 
ATOM     25  C   UNL     1      -4.002  12.355  19.321  0.00  0.00    +0.000 A 
ATOM     26 CL   UNL     1      -5.411  13.125  19.952  0.00  0.00    +0.000 Cl
ATOM     27  C   UNL     1      -4.017  11.548  18.175  0.00  0.00    +0.000 A 
ATOM     28  C   UNL     1      -5.280  11.253  17.410  0.00  0.00    +0.000 C 
ATOM     29  C   UNL     1      -2.789  11.001  17.750  0.00  0.00    +0.000 A 
ATOM     30 CL   UNL     1      -2.759   9.842  16.452  0.00  0.00    +0.000 Cl
ENDBRANCH  20  22
ENDBRANCH  17  18
ENDBRANCH  16  17
ENDBRANCH   1  16
TORSDOF 6
ENDMDL
MODEL 2
REMARK VINA RESULT:      -8.3      2.697      3.788
REMARK  Name = 
REMARK  8 active torsions:
REMARK  status: ('A' for Active; 'I' for Inactive)
REMARK    1  A    between atoms: C_1  and  C_2
REMARK    2  A    between atoms: C_2  and  N_3
REMARK    3  A    between atoms: C_5  and  C_6
REMARK    4  A    between atoms: C_6  and  O_8
REMARK    5  A    between atoms: O_8  and  C_9
REMARK    6  A    between atoms: C_9  and  C_10
REMARK    7  A    between atoms: N_12  and  C_13
REMARK    8  A    between atoms: C_18  and  C_19
REMARK                            x       y       z     vdW  Elec       q    Type
REMARK                         _______ _______ _______ _____ _____    ______ ____
ROOT
ATOM      1  C   UNL     1       2.172   7.266  18.931  0.00  0.00    +0.000 C 
ATOM      2  O   UNL     1       2.244   7.758  20.048  0.00  0.00    +0.000 OA
ENDROOT
BRANCH   1   5
ATOM      3  N   UNL     1       2.231   3.577  19.008  0.00  0.00    +0.000 N 
ATOM      4  N   UNL     1       1.930   4.893  19.261  0.00  0.00    +0.000 NA
ATOM      5  C   UNL     1       2.588   5.828  18.638  0.00  0.00    +0.000 A 
ATOM      6  C   UNL     1       3.659   5.547  17.659  0.00  0.00    +0.000 A 
ATOM      7  C   UNL     1       4.418   6.541  17.023  0.00  0.00    +0.000 A 
ATOM      8  C   UNL     1       5.412   6.187  16.104  0.00  0.00    +0.000 A 
ATOM      9  C   UNL     1       5.653   4.847  15.810  0.00  0.00    +0.000 A 
ATOM     10  C   UNL     1       4.901   3.857  16.437  0.00  0.00    +0.000 A 
ATOM     11  C   UNL     1       3.911   4.210  17.366  0.00  0.00    +0.000 A 
ATOM     12  C   UNL     1       3.145   3.152  18.049  0.00  0.00    +0.000 A 
ATOM     13  O   UNL     1       3.351   1.976  17.762  0.00  0.00    +0.000 OA
BRANCH   3  15
ATOM     14  C   UNL     1       1.408   2.865  21.221  0.00  0.00    +0.000 C 
ATOM     15  C   UNL     1       1.436   2.587  19.726  0.00  0.00    +0.000 C 
ENDBRANCH   3  15
ENDBRANCH   1   5
BRANCH   1  16
ATOM     16  O   UNL     1       1.773   7.911  17.817  0.00  0.00    +0.000 OA
BRANCH  16  17
ATOM     17  C   UNL     1       1.927   9.330  17.855  0.00  0.00    +0.000 C 
BRANCH  17  18
ATOM     18  C   UNL     1       0.760  10.093  18.494  0.00  0.00    +0.000 C 
ATOM     19  O   UNL     1      -0.360  10.091  17.987  0.00  0.00    +0.000 OA
ATOM     20  N   UNL     1       1.108  10.787  19.642  0.00  0.00    +0.000 N 
ATOM     21  H   UNL     1       2.045  11.187  19.627  0.00  0.00    +0.000 HD
BRANCH  20  22
ATOM     22  C   UNL     1       0.175  11.612  20.287  0.00  0.00    +0.000 A 
ATOM     23  N   UNL     1      -0.013  12.800  19.673  0.00  0.00    +0.000 NA
ATOM     24  C   UNL     1      -0.984  13.593  20.183  0.00  0.00    +0.000 A 
ATOM     25  C   UNL     1      -1.743  13.287  21.308  0.00  0.00    +0.000 A 
ATOM     26 CL   UNL     1      -2.949  14.417  21.799  0.00  0.00    +0.000 Cl
ATOM     27  C   UNL     1      -1.485  12.093  21.996  0.00  0.00    +0.000 A 
ATOM     28  C   UNL     1      -2.220  11.708  23.252  0.00  0.00    +0.000 C 
ATOM     29  C   UNL     1      -0.489  11.243  21.471  0.00  0.00    +0.000 A 
ATOM     30 CL   UNL     1       0.016   9.841  22.371  0.00  0.00    +0.000 Cl
ENDBRANCH  20  22
ENDBRANCH  17  18
ENDBRANCH  16  17
ENDBRANCH   1  16
TORSDOF 6
ENDMDL
MODEL 3
REMARK VINA RESULT:      -8.2      2.672      3.983
REMARK  Name = 
REMARK  8 active torsions:
REMARK  status: ('A' for Active; 'I' for Inactive)
REMARK    1  A    between atoms: C_1  and  C_2
REMARK    2  A    between atoms: C_2  and  N_3
REMARK    3  A    between atoms: C_5  and  C_6
REMARK    4  A    between atoms: C_6  and  O_8
REMARK    5  A    between atoms: O_8  and  C_9
REMARK    6  A    between atoms: C_9  and  C_10
REMARK    7  A    between atoms: N_12  and  C_13
REMARK    8  A    between atoms: C_18  and  C_19
REMARK                            x       y       z     vdW  Elec       q    Type
REMARK                         _______ _______ _______ _____ _____    ______ ____
ROOT
ATOM      1  C   UNL     1       2.221   7.454  19.114  0.00  0.00    +0.000 C 
ATOM      2  O   UNL     1       1.936   8.269  18.249  0.00  0.00    +0.000 OA
ENDROOT
BRANCH   1   5
ATOM      3  N   UNL     1       2.196   3.764  19.179  0.00  0.00    +0.000 N 
ATOM      4  N   UNL     1       1.943   5.086  19.453  0.00  0.00    +0.000 NA
ATOM      5  C   UNL     1       2.584   6.007  18.792  0.00  0.00    +0.000 A 
ATOM      6  C   UNL     1       3.585   5.705  17.748  0.00  0.00    +0.000 A 
ATOM      7  C   UNL     1       4.327   6.683  17.070  0.00  0.00    +0.000 A 
ATOM      8  C   UNL     1       5.253   6.309  16.090  0.00  0.00    +0.000 A 
ATOM      9  C   UNL     1       5.443   4.965  15.778  0.00  0.00    +0.000 A 
ATOM     10  C   UNL     1       4.708   3.990  16.448  0.00  0.00    +0.000 A 
ATOM     11  C   UNL     1       3.786   4.363  17.437  0.00  0.00    +0.000 A 
ATOM     12  C   UNL     1       3.038   3.320  18.164  0.00  0.00    +0.000 A 
ATOM     13  O   UNL     1       3.198   2.142  17.862  0.00  0.00    +0.000 OA
BRANCH   3  15
ATOM     14  C   UNL     1       1.692   2.904  21.434  0.00  0.00    +0.000 C 
ATOM     15  C   UNL     1       1.423   2.791  19.942  0.00  0.00    +0.000 C 
ENDBRANCH   3  15
ENDBRANCH   1   5
BRANCH   1  16
ATOM     16  O   UNL     1       2.211   7.686  20.442  0.00  0.00    +0.000 OA
BRANCH  16  17
ATOM     17  C   UNL     1       0.967   8.160  20.960  0.00  0.00    +0.000 C 
BRANCH  17  18
ATOM     18  C   UNL     1       0.821   9.686  21.002  0.00  0.00    +0.000 C 
ATOM     19  O   UNL     1       1.201  10.339  21.972  0.00  0.00    +0.000 OA
ATOM     20  N   UNL     1       0.204  10.219  19.881  0.00  0.00    +0.000 N 
ATOM     21  H   UNL     1      -0.534   9.636  19.487  0.00  0.00    +0.000 HD
BRANCH  20  22
ATOM     22  C   UNL     1      -0.091  11.588  19.813  0.00  0.00    +0.000 A 
ATOM     23  N   UNL     1      -1.305  11.907  20.313  0.00  0.00    +0.000 NA
ATOM     24  C   UNL     1      -1.600  13.226  20.379  0.00  0.00    +0.000 A 
ATOM     25  C   UNL     1      -0.769  14.244  19.923  0.00  0.00    +0.000 A 
ATOM     26 CL   UNL     1      -1.311  15.871  20.108  0.00  0.00    +0.000 Cl
ATOM     27  C   UNL     1       0.452  13.906  19.323  0.00  0.00    +0.000 A 
ATOM     28  C   UNL     1       1.388  14.940  18.754  0.00  0.00    +0.000 C 
ATOM     29  C   UNL     1       0.788  12.538  19.260  0.00  0.00    +0.000 A 
ATOM     30 CL   UNL     1       2.193  12.031  18.366  0.00  0.00    +0.000 Cl
ENDBRANCH  20  22
ENDBRANCH  17  18
ENDBRANCH  16  17
ENDBRANCH   1  16
TORSDOF 6
ENDMDL
MODEL 4
REMARK VINA RESULT:      -8.2      3.237      4.310
REMARK  Name = 
REMARK  8 active torsions:
REMARK  status: ('A' for Active; 'I' for Inactive)
REMARK    1  A    between atoms: C_1  and  C_2
REMARK    2  A    between atoms: C_2  and  N_3
REMARK    3  A    between atoms: C_5  and  C_6
REMARK    4  A    between atoms: C_6  and  O_8
REMARK    5  A    between atoms: O_8  and  C_9
REMARK    6  A    between atoms: C_9  and  C_10
REMARK    7  A    between atoms: N_12  and  C_13
REMARK    8  A    between atoms: C_18  and  C_19
REMARK                            x       y       z     vdW  Elec       q    Type
REMARK                         _______ _______ _______ _____ _____    ______ ____
ROOT
ATOM      1  C   UNL     1       2.282   7.252  18.873  0.00  0.00    +0.000 C 
ATOM      2  O   UNL     1       1.825   7.988  18.011  0.00  0.00    +0.000 OA
ENDROOT
BRANCH   1   5
ATOM      3  N   UNL     1       2.422   3.566  18.996  0.00  0.00    +0.000 N 
ATOM      4  N   UNL     1       2.104   4.879  19.243  0.00  0.00    +0.000 NA
ATOM      5  C   UNL     1       2.717   5.818  18.583  0.00  0.00    +0.000 A 
ATOM      6  C   UNL     1       3.756   5.547  17.567  0.00  0.00    +0.000 A 
ATOM      7  C   UNL     1       4.469   6.547  16.890  0.00  0.00    +0.000 A 
ATOM      8  C   UNL     1       5.434   6.201  15.938  0.00  0.00    +0.000 A 
ATOM      9  C   UNL     1       5.692   4.862  15.653  0.00  0.00    +0.000 A 
ATOM     10  C   UNL     1       4.985   3.866  16.321  0.00  0.00    +0.000 A 
ATOM     11  C   UNL     1       4.024   4.211  17.282  0.00  0.00    +0.000 A 
ATOM     12  C   UNL     1       3.307   3.146  18.008  0.00  0.00    +0.000 A 
ATOM     13  O   UNL     1       3.527   1.972  17.729  0.00  0.00    +0.000 OA
BRANCH   3  15
ATOM     14  C   UNL     1       1.303   3.082  21.139  0.00  0.00    +0.000 C 
ATOM     15  C   UNL     1       1.676   2.570  19.757  0.00  0.00    +0.000 C 
ENDBRANCH   3  15
ENDBRANCH   1   5
BRANCH   1  16
ATOM     16  O   UNL     1       2.421   7.565  20.177  0.00  0.00    +0.000 OA
BRANCH  16  17
ATOM     17  C   UNL     1       1.194   7.747  20.885  0.00  0.00    +0.000 C 
BRANCH  17  18
ATOM     18  C   UNL     1       1.037   9.110  21.570  0.00  0.00    +0.000 C 
ATOM     19  O   UNL     1       1.695   9.407  22.566  0.00  0.00    +0.000 OA
ATOM     20  N   UNL     1       0.079   9.922  20.983  0.00  0.00    +0.000 N 
ATOM     21  H   UNL     1      -0.734   9.424  20.621  0.00  0.00    +0.000 HD
BRANCH  20  22
ATOM     22  C   UNL     1      -0.252  11.160  21.553  0.00  0.00    +0.000 A 
ATOM     23  N   UNL     1      -1.246  11.089  22.464  0.00  0.00    +0.000 NA
ATOM     24  C   UNL     1      -1.533  12.231  23.131  0.00  0.00    +0.000 A 
ATOM     25  C   UNL     1      -0.916  13.457  22.899  0.00  0.00    +0.000 A 
ATOM     26 CL   UNL     1      -1.404  14.800  23.863  0.00  0.00    +0.000 Cl
ATOM     27  C   UNL     1       0.054  13.548  21.891  0.00  0.00    +0.000 A 
ATOM     28  C   UNL     1       0.733  14.844  21.537  0.00  0.00    +0.000 C 
ATOM     29  C   UNL     1       0.381  12.365  21.196  0.00  0.00    +0.000 A 
ATOM     30 CL   UNL     1       1.433  12.437  19.811  0.00  0.00    +0.000 Cl
ENDBRANCH  20  22
ENDBRANCH  17  18
ENDBRANCH  16  17
ENDBRANCH   1  16
TORSDOF 6
ENDMDL
MODEL 5
REMARK VINA RESULT:      -8.1      1.464      2.907
REMARK  Name = 
REMARK  8 active torsions:
REMARK  status: ('A' for Active; 'I' for Inactive)
REMARK    1  A    between atoms: C_1  and  C_2
REMARK    2  A    between atoms: C_2  and  N_3
REMARK    3  A    between atoms: C_5  and  C_6
REMARK    4  A    between atoms: C_6  and  O_8
REMARK    5  A    between atoms: O_8  and  C_9
REMARK    6  A    between atoms: C_9  and  C_10
REMARK    7  A    between atoms: N_12  and  C_13
REMARK    8  A    between atoms: C_18  and  C_19
REMARK                            x       y       z     vdW  Elec       q    Type
REMARK                         _______ _______ _______ _____ _____    ______ ____
ROOT
ATOM      1  C   UNL     1       2.249   7.218  19.073  0.00  0.00    +0.000 C 
ATOM      2  O   UNL     1       2.438   7.668  20.194  0.00  0.00    +0.000 OA
ENDROOT
BRANCH   1   5
ATOM      3  N   UNL     1       2.285   3.530  18.949  0.00  0.00    +0.000 N 
ATOM      4  N   UNL     1       2.008   4.832  19.288  0.00  0.00    +0.000 NA
ATOM      5  C   UNL     1       2.638   5.796  18.681  0.00  0.00    +0.000 A 
ATOM      6  C   UNL     1       3.653   5.564  17.632  0.00  0.00    +0.000 A 
ATOM      7  C   UNL     1       4.385   6.587  17.011  0.00  0.00    +0.000 A 
ATOM      8  C   UNL     1       5.326   6.278  16.023  0.00  0.00    +0.000 A 
ATOM      9  C   UNL     1       5.541   4.955  15.645  0.00  0.00    +0.000 A 
ATOM     10  C   UNL     1       4.816   3.936  16.257  0.00  0.00    +0.000 A 
ATOM     11  C   UNL     1       3.879   4.243  17.255  0.00  0.00    +0.000 A 
ATOM     12  C   UNL     1       3.143   3.153  17.921  0.00  0.00    +0.000 A 
ATOM     13  O   UNL     1       3.324   1.994  17.561  0.00  0.00    +0.000 OA
BRANCH   3  15
ATOM     14  C   UNL     1       1.275   2.889  21.105  0.00  0.00    +0.000 C 
ATOM     15  C   UNL     1       1.521   2.507  19.655  0.00  0.00    +0.000 C 
ENDBRANCH   3  15
ENDBRANCH   1   5
BRANCH   1  16
ATOM     16  O   UNL     1       1.730   7.902  18.033  0.00  0.00    +0.000 OA
BRANCH  16  17
ATOM     17  C   UNL     1       1.715   9.321  18.194  0.00  0.00    +0.000 C 
BRANCH  17  18
ATOM     18  C   UNL     1       0.443   9.888  18.837  0.00  0.00    +0.000 C 
ATOM     19  O   UNL     1       0.168   9.666  20.014  0.00  0.00    +0.000 OA
ATOM     20  N   UNL     1      -0.346  10.619  17.963  0.00  0.00    +0.000 N 
ATOM     21  H   UNL     1      -0.359  10.264  17.008  0.00  0.00    +0.000 HD
BRANCH  20  22
ATOM     22  C   UNL     1      -1.590  11.119  18.375  0.00  0.00    +0.000 A 
ATOM     23  N   UNL     1      -1.540  11.808  19.536  0.00  0.00    +0.000 NA
ATOM     24  C   UNL     1      -2.686  12.412  19.926  0.00  0.00    +0.000 A 
ATOM     25  C   UNL     1      -3.897  12.321  19.246  0.00  0.00    +0.000 A 
ATOM     26 CL   UNL     1      -5.249  13.176  19.890  0.00  0.00    +0.000 Cl
ATOM     27  C   UNL     1      -3.968  11.532  18.089  0.00  0.00    +0.000 A 
ATOM     28  C   UNL     1      -5.248  11.335  17.322  0.00  0.00    +0.000 C 
ATOM     29  C   UNL     1      -2.780  10.909  17.654  0.00  0.00    +0.000 A 
ATOM     30 CL   UNL     1      -2.831   9.768  16.341  0.00  0.00    +0.000 Cl
ENDBRANCH  20  22
ENDBRANCH  17  18
ENDBRANCH  16  17
ENDBRANCH   1  16
TORSDOF 6
ENDMDL
MODEL 6
REMARK VINA RESULT:      -8.1      2.187      2.351
REMARK  Name = 
REMARK  8 active torsions:
REMARK  status: ('A' for Active; 'I' for Inactive)
REMARK    1  A    between atoms: C_1  and  C_2
REMARK    2  A    between atoms: C_2  and  N_3
REMARK    3  A    between atoms: C_5  and  C_6
REMARK    4  A    between atoms: C_6  and  O_8
REMARK    5  A    between atoms: O_8  and  C_9
REMARK    6  A    between atoms: C_9  and  C_10
REMARK    7  A    between atoms: N_12  and  C_13
REMARK    8  A    between atoms: C_18  and  C_19
REMARK                            x       y       z     vdW  Elec       q    Type
REMARK                         _______ _______ _______ _____ _____    ______ ____
ROOT
ATOM      1  C   UNL     1       2.317   7.419  18.729  0.00  0.00    +0.000 C 
ATOM      2  O   UNL     1       2.207   7.503  19.944  0.00  0.00    +0.000 OA
ENDROOT
BRANCH   1   5
ATOM      3  N   UNL     1       5.270   6.045  16.993  0.00  0.00    +0.000 N 
ATOM      4  N   UNL     1       4.366   6.900  17.575  0.00  0.00    +0.000 NA
ATOM      5  C   UNL     1       3.255   6.421  18.056  0.00  0.00    +0.000 A 
ATOM      6  C   UNL     1       2.907   4.986  18.011  0.00  0.00    +0.000 A 
ATOM      7  C   UNL     1       1.690   4.461  18.470  0.00  0.00    +0.000 A 
ATOM      8  C   UNL     1       1.443   3.086  18.393  0.00  0.00    +0.000 A 
ATOM      9  C   UNL     1       2.404   2.227  17.863  0.00  0.00    +0.000 A 
ATOM     10  C   UNL     1       3.614   2.743  17.407  0.00  0.00    +0.000 A 
ATOM     11  C   UNL     1       3.859   4.123  17.475  0.00  0.00    +0.000 A 
ATOM     12  C   UNL     1       5.130   4.662  16.957  0.00  0.00    +0.000 A 
ATOM     13  O   UNL     1       5.977   3.891  16.516  0.00  0.00    +0.000 OA
BRANCH   3  15
ATOM     14  C   UNL     1       7.455   6.994  17.632  0.00  0.00    +0.000 C 
ATOM     15  C   UNL     1       6.501   6.652  16.499  0.00  0.00    +0.000 C 
ENDBRANCH   3  15
ENDBRANCH   1   5
BRANCH   1  16
ATOM     16  O   UNL     1       1.686   8.200  17.831  0.00  0.00    +0.000 OA
BRANCH  16  17
ATOM     17  C   UNL     1       1.851   9.604  18.033  0.00  0.00    +0.000 C 
BRANCH  17  18
ATOM     18  C   UNL     1       0.628  10.324  18.615  0.00  0.00    +0.000 C 
ATOM     19  O   UNL     1      -0.491  10.182  18.127  0.00  0.00    +0.000 OA
ATOM     20  N   UNL     1       0.924  11.149  19.689  0.00  0.00    +0.000 N 
ATOM     21  H   UNL     1       1.825  11.623  19.622  0.00  0.00    +0.000 HD
BRANCH  20  22
ATOM     22  C   UNL     1      -0.070  11.951  20.267  0.00  0.00    +0.000 A 
ATOM     23  N   UNL     1      -0.301  13.099  19.593  0.00  0.00    +0.000 NA
ATOM     24  C   UNL     1      -1.327  13.861  20.038  0.00  0.00    +0.000 A 
ATOM     25  C   UNL     1      -2.104  13.565  21.154  0.00  0.00    +0.000 A 
ATOM     26 CL   UNL     1      -3.382  14.649  21.557  0.00  0.00    +0.000 Cl
ATOM     27  C   UNL     1      -1.805  12.418  21.904  0.00  0.00    +0.000 A 
ATOM     28  C   UNL     1      -2.558  12.051  23.155  0.00  0.00    +0.000 C 
ATOM     29  C   UNL     1      -0.751  11.600  21.448  0.00  0.00    +0.000 A 
ATOM     30 CL   UNL     1      -0.201  10.270  22.426  0.00  0.00    +0.000 Cl
ENDBRANCH  20  22
ENDBRANCH  17  18
ENDBRANCH  16  17
ENDBRANCH   1  16
TORSDOF 6
ENDMDL
MODEL 7
REMARK VINA RESULT:      -8.1      1.852      3.310
REMARK  Name = 
REMARK  8 active torsions:
REMARK  status: ('A' for Active; 'I' for Inactive)
REMARK    1  A    between atoms: C_1  and  C_2
REMARK    2  A    between atoms: C_2  and  N_3
REMARK    3  A    between atoms: C_5  and  C_6
REMARK    4  A    between atoms: C_6  and  O_8
REMARK    5  A    between atoms: O_8  and  C_9
REMARK    6  A    between atoms: C_9  and  C_10
REMARK    7  A    between atoms: N_12  and  C_13
REMARK    8  A    between atoms: C_18  and  C_19
REMARK                            x       y       z     vdW  Elec       q    Type
REMARK                         _______ _______ _______ _____ _____    ______ ____
ROOT
ATOM      1  C   UNL     1       2.204   7.455  19.168  0.00  0.00    +0.000 C 
ATOM      2  O   UNL     1       2.306   7.855  20.319  0.00  0.00    +0.000 OA
ENDROOT
BRANCH   1   5
ATOM      3  N   UNL     1       2.167   3.770  18.974  0.00  0.00    +0.000 N 
ATOM      4  N   UNL     1       1.909   5.071  19.332  0.00  0.00    +0.000 NA
ATOM      5  C   UNL     1       2.573   6.032  18.757  0.00  0.00    +0.000 A 
ATOM      6  C   UNL     1       3.606   5.799  17.727  0.00  0.00    +0.000 A 
ATOM      7  C   UNL     1       4.372   6.817  17.141  0.00  0.00    +0.000 A 
ATOM      8  C   UNL     1       5.328   6.508  16.168  0.00  0.00    +0.000 A 
ATOM      9  C   UNL     1       5.524   5.188  15.769  0.00  0.00    +0.000 A 
ATOM     10  C   UNL     1       4.764   4.173  16.346  0.00  0.00    +0.000 A 
ATOM     11  C   UNL     1       3.812   4.480  17.329  0.00  0.00    +0.000 A 
ATOM     12  C   UNL     1       3.039   3.394  17.958  0.00  0.00    +0.000 A 
ATOM     13  O   UNL     1       3.205   2.238  17.579  0.00  0.00    +0.000 OA
BRANCH   3  15
ATOM     14  C   UNL     1       1.309   2.977  21.145  0.00  0.00    +0.000 C 
ATOM     15  C   UNL     1       1.367   2.750  19.643  0.00  0.00    +0.000 C 
ENDBRANCH   3  15
ENDBRANCH   1   5
BRANCH   1  16
ATOM     16  O   UNL     1       1.812   8.197  18.113  0.00  0.00    +0.000 OA
BRANCH  16  17
ATOM     17  C   UNL     1       1.561   9.572  18.405  0.00  0.00    +0.000 C 
BRANCH  17  18
ATOM     18  C   UNL     1       0.105   9.907  18.753  0.00  0.00    +0.000 C 
ATOM     19  O   UNL     1      -0.388   9.575  19.829  0.00  0.00    +0.000 OA
ATOM     20  N   UNL     1      -0.573  10.567  17.741  0.00  0.00    +0.000 N 
ATOM     21  H   UNL     1      -0.317  10.273  16.798  0.00  0.00    +0.000 HD
BRANCH  20  22
ATOM     22  C   UNL     1      -1.940  10.854  17.868  0.00  0.00    +0.000 A 
ATOM     23  N   UNL     1      -2.720  10.172  17.002  0.00  0.00    +0.000 NA
ATOM     24  C   UNL     1      -4.057  10.321  17.152  0.00  0.00    +0.000 A 
ATOM     25  C   UNL     1      -4.657  11.158  18.087  0.00  0.00    +0.000 A 
ATOM     26 CL   UNL     1      -6.380  11.202  18.139  0.00  0.00    +0.000 Cl
ATOM     27  C   UNL     1      -3.844  11.933  18.925  0.00  0.00    +0.000 A 
ATOM     28  C   UNL     1      -4.409  12.904  19.928  0.00  0.00    +0.000 C 
ATOM     29  C   UNL     1      -2.448  11.780  18.799  0.00  0.00    +0.000 A 
ATOM     30 CL   UNL     1      -1.377  12.841  19.669  0.00  0.00    +0.000 Cl
ENDBRANCH  20  22
ENDBRANCH  17  18
ENDBRANCH  16  17
ENDBRANCH   1  16
TORSDOF 6
ENDMDL
MODEL 8
REMARK VINA RESULT:      -8.1      2.075      3.562
REMARK  Name = 
REMARK  8 active torsions:
REMARK  status: ('A' for Active; 'I' for Inactive)
REMARK    1  A    between atoms: C_1  and  C_2
REMARK    2  A    between atoms: C_2  and  N_3
REMARK    3  A    between atoms: C_5  and  C_6
REMARK    4  A    between atoms: C_6  and  O_8
REMARK    5  A    between atoms: O_8  and  C_9
REMARK    6  A    between atoms: C_9  and  C_10
REMARK    7  A    between atoms: N_12  and  C_13
REMARK    8  A    between atoms: C_18  and  C_19
REMARK                            x       y       z     vdW  Elec       q    Type
REMARK                         _______ _______ _______ _____ _____    ______ ____
ROOT
ATOM      1  C   UNL     1       2.204   7.424  19.429  0.00  0.00    +0.000 C 
ATOM      2  O   UNL     1       2.148   8.348  18.630  0.00  0.00    +0.000 OA
ENDROOT
BRANCH   1   5
ATOM      3  N   UNL     1       1.999   3.744  19.228  0.00  0.00    +0.000 N 
ATOM      4  N   UNL     1       1.809   5.054  19.596  0.00  0.00    +0.000 NA
ATOM      5  C   UNL     1       2.497   5.988  19.005  0.00  0.00    +0.000 A 
ATOM      6  C   UNL     1       3.488   5.713  17.944  0.00  0.00    +0.000 A 
ATOM      7  C   UNL     1       4.281   6.699  17.339  0.00  0.00    +0.000 A 
ATOM      8  C   UNL     1       5.194   6.351  16.337  0.00  0.00    +0.000 A 
ATOM      9  C   UNL     1       5.319   5.025  15.929  0.00  0.00    +0.000 A 
ATOM     10  C   UNL     1       4.534   4.043  16.526  0.00  0.00    +0.000 A 
ATOM     11  C   UNL     1       3.625   4.388  17.537  0.00  0.00    +0.000 A 
ATOM     12  C   UNL     1       2.824   3.334  18.186  0.00  0.00    +0.000 A 
ATOM     13  O   UNL     1       2.927   2.174  17.800  0.00  0.00    +0.000 OA
BRANCH   3  15
ATOM     14  C   UNL     1       1.565   2.623  21.381  0.00  0.00    +0.000 C 
ATOM     15  C   UNL     1       1.175   2.758  19.918  0.00  0.00    +0.000 C 
ENDBRANCH   3  15
ENDBRANCH   1   5
BRANCH   1  16
ATOM     16  O   UNL     1       1.975   7.519  20.754  0.00  0.00    +0.000 OA
BRANCH  16  17
ATOM     17  C   UNL     1       1.644   8.830  21.214  0.00  0.00    +0.000 C 
BRANCH  17  18
ATOM     18  C   UNL     1       0.236   9.312  20.843  0.00  0.00    +0.000 C 
ATOM     19  O   UNL     1      -0.768   8.766  21.296  0.00  0.00    +0.000 OA
ATOM     20  N   UNL     1       0.226  10.368  19.944  0.00  0.00    +0.000 N 
ATOM     21  H   UNL     1       0.967  10.335  19.244  0.00  0.00    +0.000 HD
BRANCH  20  22
ATOM     22  C   UNL     1      -0.984  10.856  19.432  0.00  0.00    +0.000 A 
ATOM     23  N   UNL     1      -1.289  10.374  18.208  0.00  0.00    +0.000 NA
ATOM     24  C   UNL     1      -2.498  10.719  17.709  0.00  0.00    +0.000 A 
ATOM     25  C   UNL     1      -3.401  11.566  18.345  0.00  0.00    +0.000 A 
ATOM     26 CL   UNL     1      -4.904  11.878  17.560  0.00  0.00    +0.000 Cl
ATOM     27  C   UNL     1      -3.045  12.137  19.575  0.00  0.00    +0.000 A 
ATOM     28  C   UNL     1      -3.937  13.105  20.306  0.00  0.00    +0.000 C 
ATOM     29  C   UNL     1      -1.796  11.775  20.122  0.00  0.00    +0.000 A 
ATOM     30 CL   UNL     1      -1.207  12.585  21.546  0.00  0.00    +0.000 Cl
ENDBRANCH  20  22
ENDBRANCH  17  18
ENDBRANCH  16  17
ENDBRANCH   1  16
TORSDOF 6
ENDMDL
MODEL 9
REMARK VINA RESULT:      -8.0      2.965      3.402
REMARK  Name = 
REMARK  8 active torsions:
REMARK  status: ('A' for Active; 'I' for Inactive)
REMARK    1  A    between atoms: C_1  and  C_2
REMARK    2  A    between atoms: C_2  and  N_3
REMARK    3  A    between atoms: C_5  and  C_6
REMARK    4  A    between atoms: C_6  and  O_8
REMARK    5  A    between atoms: O_8  and  C_9
REMARK    6  A    between atoms: C_9  and  C_10
REMARK    7  A    between atoms: N_12  and  C_13
REMARK    8  A    between atoms: C_18  and  C_19
REMARK                            x       y       z     vdW  Elec       q    Type
REMARK                         _______ _______ _______ _____ _____    ______ ____
ROOT
ATOM      1  C   UNL     1       2.278   7.624  18.820  0.00  0.00    +0.000 C 
ATOM      2  O   UNL     1       1.590   8.407  18.182  0.00  0.00    +0.000 OA
ENDROOT
BRANCH   1   5
ATOM      3  N   UNL     1       5.237   6.214  17.123  0.00  0.00    +0.000 N 
ATOM      4  N   UNL     1       4.338   7.079  17.698  0.00  0.00    +0.000 NA
ATOM      5  C   UNL     1       3.209   6.616  18.151  0.00  0.00    +0.000 A 
ATOM      6  C   UNL     1       2.833   5.189  18.078  0.00  0.00    +0.000 A 
ATOM      7  C   UNL     1       1.597   4.683  18.506  0.00  0.00    +0.000 A 
ATOM      8  C   UNL     1       1.323   3.314  18.405  0.00  0.00    +0.000 A 
ATOM      9  C   UNL     1       2.277   2.444  17.883  0.00  0.00    +0.000 A 
ATOM     10  C   UNL     1       3.506   2.941  17.458  0.00  0.00    +0.000 A 
ATOM     11  C   UNL     1       3.778   4.314  17.550  0.00  0.00    +0.000 A 
ATOM     12  C   UNL     1       5.069   4.834  17.065  0.00  0.00    +0.000 A 
ATOM     13  O   UNL     1       5.909   4.052  16.630  0.00  0.00    +0.000 OA
BRANCH   3  15
ATOM     14  C   UNL     1       7.481   6.978  17.799  0.00  0.00    +0.000 C 
ATOM     15  C   UNL     1       6.489   6.802  16.661  0.00  0.00    +0.000 C 
ENDBRANCH   3  15
ENDBRANCH   1   5
BRANCH   1  16
ATOM     16  O   UNL     1       2.284   7.500  20.162  0.00  0.00    +0.000 OA
BRANCH  16  17
ATOM     17  C   UNL     1       1.105   7.973  20.814  0.00  0.00    +0.000 C 
BRANCH  17  18
ATOM     18  C   UNL     1       1.229   9.363  21.451  0.00  0.00    +0.000 C 
ATOM     19  O   UNL     1       1.828   9.530  22.511  0.00  0.00    +0.000 OA
ATOM     20  N   UNL     1       0.581  10.362  20.741  0.00  0.00    +0.000 N 
ATOM     21  H   UNL     1      -0.288  10.069  20.295  0.00  0.00    +0.000 HD
BRANCH  20  22
ATOM     22  C   UNL     1       0.519  11.669  21.245  0.00  0.00    +0.000 A 
ATOM     23  N   UNL     1       1.493  12.478  20.776  0.00  0.00    +0.000 NA
ATOM     24  C   UNL     1       1.419  13.780  21.137  0.00  0.00    +0.000 A 
ATOM     25  C   UNL     1       0.453  14.309  21.988  0.00  0.00    +0.000 A 
ATOM     26 CL   UNL     1       0.511  16.000  22.320  0.00  0.00    +0.000 Cl
ATOM     27  C   UNL     1      -0.504  13.450  22.545  0.00  0.00    +0.000 A 
ATOM     28  C   UNL     1      -1.552  13.927  23.517  0.00  0.00    +0.000 C 
ATOM     29  C   UNL     1      -0.457  12.092  22.167  0.00  0.00    +0.000 A 
ATOM     30 CL   UNL     1      -1.488  10.936  22.960  0.00  0.00    +0.000 Cl
ENDBRANCH  20  22
ENDBRANCH  17  18
ENDBRANCH  16  17
ENDBRANCH   1  16
TORSDOF 6
ENDMDL
