MODEL 1
REMARK VINA RESULT:      -8.1      0.000      0.000
REMARK  Name = 
REMARK  5 active torsions:
REMARK  status: ('A' for Active; 'I' for Inactive)
REMARK    1  A    between atoms: C_2  and  C_4
REMARK    2  A    between atoms: C_8  and  N_9
REMARK    3  A    between atoms: N_9  and  C_10
REMARK    4  A    between atoms: C_10  and  C_11
REMARK    5  A    between atoms: C_16  and  N_17
REMARK                            x       y       z     vdW  Elec       q    Type
REMARK                         _______ _______ _______ _____ _____    ______ ____
ROOT
ATOM      1  C   UNL     1       2.594   4.813  19.820  0.00  0.00    +0.000 A 
ATOM      2  C   UNL     1       1.857   4.664  21.007  0.00  0.00    +0.000 A 
ATOM      3  C   UNL     1       2.029   3.538  21.798  0.00  0.00    +0.000 A 
ATOM      4  C   UNL     1       2.939   2.593  21.381  0.00  0.00    +0.000 A 
ATOM      5  N   UNL     1       3.671   2.705  20.248  0.00  0.00    +0.000 NA
ATOM      6  C   UNL     1       3.523   3.810  19.480  0.00  0.00    +0.000 A 
ENDROOT
BRANCH   6   7
ATOM      7  N   UNL     1       4.222   3.860  18.295  0.00  0.00    +0.000 N 
ATOM      8  C   UNL     1       3.832   2.989  17.179  0.00  0.00    +0.000 C 
ATOM      9  C   UNL     1       4.166   3.734  15.854  0.00  0.00    +0.000 C 
ATOM     10  N   UNL     1       5.580   4.175  15.840  0.00  0.00    +0.000 N 
ATOM     11  C   UNL     1       6.240   4.472  14.661  0.00  0.00    +0.000 A 
ATOM     12  C   UNL     1       5.983   3.781  13.481  0.00  0.00    +0.000 A 
ATOM     13  C   UNL     1       6.752   4.013  12.341  0.00  0.00    +0.000 A 
ATOM     14  C   UNL     1       7.781   4.938  12.395  0.00  0.00    +0.000 A 
ATOM     15  C   UNL     1       7.982   5.597  13.589  0.00  0.00    +0.000 A 
ATOM     16  N   UNL     1       7.240   5.386  14.697  0.00  0.00    +0.000 NA
ATOM     17  C   UNL     1       5.976   4.964  17.030  0.00  0.00    +0.000 C 
ATOM     18  C   UNL     1       5.670   4.127  18.289  0.00  0.00    +0.000 C 
ENDBRANCH   6   7
BRANCH   1  19
ATOM     19  C   UNL     1       2.296   6.008  18.936  0.00  0.00    +0.000 C 
BRANCH  19  20
ATOM     20  N   UNL     1       2.795   7.219  19.571  0.00  0.00    +0.000 N 
ATOM     21  H   UNL     1       3.407   7.040  20.359  0.00  0.00    +0.000 HD
BRANCH  20  26
ATOM     22  C   UNL     1       0.445   9.512  21.057  0.00  0.00    +0.000 A 
ATOM     23  C   UNL     1       0.039  10.237  19.946  0.00  0.00    +0.000 A 
ATOM     24  N   UNL     1       0.556  10.015  18.717  0.00  0.00    +0.000 NA
ATOM     25  C   UNL     1       1.480   9.022  18.668  0.00  0.00    +0.000 A 
ATOM     26  C   UNL     1       1.913   8.278  19.779  0.00  0.00    +0.000 A 
ATOM     27  N   UNL     1       1.388   8.518  21.001  0.00  0.00    +0.000 NA
BRANCH  22  29
ATOM     28  N   UNL     1      -0.784   8.795  23.019  0.00  0.00    +0.000 N 
ATOM     29  C   UNL     1      -0.156   9.830  22.381  0.00  0.00    +0.000 C 
ATOM     30  O   UNL     1      -0.088  10.947  22.883  0.00  0.00    +0.000 OA
ATOM     31  H   UNL     1      -1.231   8.962  23.909  0.00  0.00    +0.000 HD
ATOM     32  H   UNL     1      -0.850   7.888  22.574  0.00  0.00    +0.000 HD
ENDBRANCH  22  29
ENDBRANCH  20  26
ENDBRANCH  19  20
ENDBRANCH   1  19
TORSDOF 5
ENDMDL
MODEL 2
REMARK VINA RESULT:      -8.0      0.975      1.164
REMARK  Name = 
REMARK  5 active torsions:
REMARK  status: ('A' for Active; 'I' for Inactive)
REMARK    1  A    between atoms: C_2  and  C_4
REMARK    2  A    between atoms: C_8  and  N_9
REMARK    3  A    between atoms: N_9  and  C_10
REMARK    4  A    between atoms: C_10  and  C_11
REMARK    5  A    between atoms: C_16  and  N_17
REMARK                            x       y       z     vdW  Elec       q    Type
REMARK                         _______ _______ _______ _____ _____    ______ ____
ROOT
ATOM      1  C   UNL     1       2.861   4.772  20.055  0.00  0.00    +0.000 A 
ATOM      2  C   UNL     1       2.129   4.604  21.242  0.00  0.00    +0.000 A 
ATOM      3  C   UNL     1       2.142   3.385  21.902  0.00  0.00    +0.000 A 
ATOM      4  C   UNL     1       2.895   2.368  21.359  0.00  0.00    +0.000 A 
ATOM      5  N   UNL     1       3.617   2.496  20.222  0.00  0.00    +0.000 NA
ATOM      6  C   UNL     1       3.624   3.688  19.581  0.00  0.00    +0.000 A 
ENDROOT
BRANCH   6   7
ATOM      7  N   UNL     1       4.305   3.765  18.386  0.00  0.00    +0.000 N 
ATOM      8  C   UNL     1       3.917   2.896  17.267  0.00  0.00    +0.000 C 
ATOM      9  C   UNL     1       4.214   3.661  15.945  0.00  0.00    +0.000 C 
ATOM     10  N   UNL     1       5.619   4.133  15.915  0.00  0.00    +0.000 N 
ATOM     11  C   UNL     1       6.254   4.456  14.729  0.00  0.00    +0.000 A 
ATOM     12  C   UNL     1       5.995   3.771  13.546  0.00  0.00    +0.000 A 
ATOM     13  C   UNL     1       6.741   4.031  12.397  0.00  0.00    +0.000 A 
ATOM     14  C   UNL     1       7.751   4.978  12.446  0.00  0.00    +0.000 A 
ATOM     15  C   UNL     1       7.955   5.629  13.643  0.00  0.00    +0.000 A 
ATOM     16  N   UNL     1       7.235   5.392  14.760  0.00  0.00    +0.000 NA
ATOM     17  C   UNL     1       6.015   4.919  17.107  0.00  0.00    +0.000 C 
ATOM     18  C   UNL     1       5.746   4.064  18.361  0.00  0.00    +0.000 C 
ENDBRANCH   6   7
BRANCH   1  19
ATOM     19  C   UNL     1       2.730   6.088  19.312  0.00  0.00    +0.000 C 
BRANCH  19  20
ATOM     20  N   UNL     1       2.222   7.108  20.217  0.00  0.00    +0.000 N 
ATOM     21  H   UNL     1       1.572   6.750  20.908  0.00  0.00    +0.000 HD
BRANCH  20  26
ATOM     22  C   UNL     1       0.771  10.379  19.783  0.00  0.00    +0.000 A 
ATOM     23  C   UNL     1       1.004  10.599  18.434  0.00  0.00    +0.000 A 
ATOM     24  N   UNL     1       1.669   9.707  17.667  0.00  0.00    +0.000 NA
ATOM     25  C   UNL     1       2.066   8.588  18.324  0.00  0.00    +0.000 A 
ATOM     26  C   UNL     1       1.849   8.344  19.691  0.00  0.00    +0.000 A 
ATOM     27  N   UNL     1       1.185   9.251  20.442  0.00  0.00    +0.000 NA
BRANCH  22  29
ATOM     28  N   UNL     1      -1.032  11.991  19.950  0.00  0.00    +0.000 N 
ATOM     29  C   UNL     1       0.048  11.419  20.566  0.00  0.00    +0.000 C 
ATOM     30  O   UNL     1       0.386  11.743  21.699  0.00  0.00    +0.000 OA
ATOM     31  H   UNL     1      -1.543  12.721  20.427  0.00  0.00    +0.000 HD
ATOM     32  H   UNL     1      -1.277  11.727  19.004  0.00  0.00    +0.000 HD
ENDBRANCH  22  29
ENDBRANCH  20  26
ENDBRANCH  19  20
ENDBRANCH   1  19
TORSDOF 5
ENDMDL
MODEL 3
REMARK VINA RESULT:      -8.0      0.839      1.439
REMARK  Name = 
REMARK  5 active torsions:
REMARK  status: ('A' for Active; 'I' for Inactive)
REMARK    1  A    between atoms: C_2  and  C_4
REMARK    2  A    between atoms: C_8  and  N_9
REMARK    3  A    between atoms: N_9  and  C_10
REMARK    4  A    between atoms: C_10  and  C_11
REMARK    5  A    between atoms: C_16  and  N_17
REMARK                            x       y       z     vdW  Elec       q    Type
REMARK                         _______ _______ _______ _____ _____    ______ ____
ROOT
ATOM      1  C   UNL     1       2.598   4.745  20.022  0.00  0.00    +0.000 A 
ATOM      2  C   UNL     1       1.927   4.407  21.209  0.00  0.00    +0.000 A 
ATOM      3  C   UNL     1       2.182   3.195  21.832  0.00  0.00    +0.000 A 
ATOM      4  C   UNL     1       3.107   2.356  21.253  0.00  0.00    +0.000 A 
ATOM      5  N   UNL     1       3.776   2.651  20.114  0.00  0.00    +0.000 NA
ATOM      6  C   UNL     1       3.547   3.840  19.509  0.00  0.00    +0.000 A 
ENDROOT
BRANCH   6   7
ATOM      7  N   UNL     1       4.184   4.079  18.312  0.00  0.00    +0.000 N 
ATOM      8  C   UNL     1       5.256   5.080  18.241  0.00  0.00    +0.000 C 
ATOM      9  C   UNL     1       6.265   4.622  17.149  0.00  0.00    +0.000 C 
ATOM     10  N   UNL     1       5.570   4.357  15.868  0.00  0.00    +0.000 N 
ATOM     11  C   UNL     1       6.244   4.349  14.660  0.00  0.00    +0.000 A 
ATOM     12  C   UNL     1       7.316   5.201  14.411  0.00  0.00    +0.000 A 
ATOM     13  C   UNL     1       7.894   5.262  13.144  0.00  0.00    +0.000 A 
ATOM     14  C   UNL     1       7.386   4.467  12.129  0.00  0.00    +0.000 A 
ATOM     15  C   UNL     1       6.330   3.638  12.438  0.00  0.00    +0.000 A 
ATOM     16  N   UNL     1       5.766   3.565  13.663  0.00  0.00    +0.000 NA
ATOM     17  C   UNL     1       4.424   3.424  15.986  0.00  0.00    +0.000 C 
ATOM     18  C   UNL     1       3.449   3.987  17.039  0.00  0.00    +0.000 C 
ENDBRANCH   6   7
BRANCH   1  19
ATOM     19  C   UNL     1       2.209   6.032  19.321  0.00  0.00    +0.000 C 
BRANCH  19  20
ATOM     20  N   UNL     1       2.659   7.170  20.109  0.00  0.00    +0.000 N 
ATOM     21  H   UNL     1       3.164   6.908  20.948  0.00  0.00    +0.000 HD
BRANCH  20  26
ATOM     22  C   UNL     1       0.388   9.558  21.568  0.00  0.00    +0.000 A 
ATOM     23  C   UNL     1      -0.078  10.211  20.437  0.00  0.00    +0.000 A 
ATOM     24  N   UNL     1       0.372   9.909  19.199  0.00  0.00    +0.000 NA
ATOM     25  C   UNL     1       1.294   8.914  19.164  0.00  0.00    +0.000 A 
ATOM     26  C   UNL     1       1.788   8.242  20.296  0.00  0.00    +0.000 A 
ATOM     27  N   UNL     1       1.328   8.561  21.526  0.00  0.00    +0.000 NA
BRANCH  22  29
ATOM     28  N   UNL     1      -1.252  10.763  22.887  0.00  0.00    +0.000 N 
ATOM     29  C   UNL     1      -0.142   9.962  22.900  0.00  0.00    +0.000 C 
ATOM     30  O   UNL     1       0.372   9.595  23.951  0.00  0.00    +0.000 OA
ATOM     31  H   UNL     1      -1.637  11.087  23.762  0.00  0.00    +0.000 HD
ATOM     32  H   UNL     1      -1.643  11.074  22.006  0.00  0.00    +0.000 HD
ENDBRANCH  22  29
ENDBRANCH  20  26
ENDBRANCH  19  20
ENDBRANCH   1  19
TORSDOF 5
ENDMDL
MODEL 4
REMARK VINA RESULT:      -7.9      1.087      1.812
REMARK  Name = 
REMARK  5 active torsions:
REMARK  status: ('A' for Active; 'I' for Inactive)
REMARK    1  A    between atoms: C_2  and  C_4
REMARK    2  A    between atoms: C_8  and  N_9
REMARK    3  A    between atoms: N_9  and  C_10
REMARK    4  A    between atoms: C_10  and  C_11
REMARK    5  A    between atoms: C_16  and  N_17
REMARK                            x       y       z     vdW  Elec       q    Type
REMARK                         _______ _______ _______ _____ _____    ______ ____
ROOT
ATOM      1  C   UNL     1       2.700   4.855  19.939  0.00  0.00    +0.000 A 
ATOM      2  C   UNL     1       1.952   4.703  21.118  0.00  0.00    +0.000 A 
ATOM      3  C   UNL     1       2.025   3.523  21.843  0.00  0.00    +0.000 A 
ATOM      4  C   UNL     1       2.851   2.528  21.369  0.00  0.00    +0.000 A 
ATOM      5  N   UNL     1       3.590   2.641  20.241  0.00  0.00    +0.000 NA
ATOM      6  C   UNL     1       3.539   3.797  19.538  0.00  0.00    +0.000 A 
ENDROOT
BRANCH   6   7
ATOM      7  N   UNL     1       4.241   3.854  18.355  0.00  0.00    +0.000 N 
ATOM      8  C   UNL     1       3.889   2.951  17.252  0.00  0.00    +0.000 C 
ATOM      9  C   UNL     1       4.199   3.685  15.916  0.00  0.00    +0.000 C 
ATOM     10  N   UNL     1       5.596   4.179  15.900  0.00  0.00    +0.000 N 
ATOM     11  C   UNL     1       6.249   4.482  14.718  0.00  0.00    +0.000 A 
ATOM     12  C   UNL     1       6.023   3.763  13.549  0.00  0.00    +0.000 A 
ATOM     13  C   UNL     1       6.787   4.005  12.408  0.00  0.00    +0.000 A 
ATOM     14  C   UNL     1       7.781   4.969  12.451  0.00  0.00    +0.000 A 
ATOM     15  C   UNL     1       7.952   5.654  13.634  0.00  0.00    +0.000 A 
ATOM     16  N   UNL     1       7.214   5.434  14.743  0.00  0.00    +0.000 NA
ATOM     17  C   UNL     1       5.957   5.002  17.078  0.00  0.00    +0.000 C 
ATOM     18  C   UNL     1       5.678   4.175  18.349  0.00  0.00    +0.000 C 
ENDBRANCH   6   7
BRANCH   1  19
ATOM     19  C   UNL     1       2.507   6.120  19.125  0.00  0.00    +0.000 C 
BRANCH  19  20
ATOM     20  N   UNL     1       2.733   7.282  19.973  0.00  0.00    +0.000 N 
ATOM     21  H   UNL     1       3.260   7.074  20.813  0.00  0.00    +0.000 HD
BRANCH  20  26
ATOM     22  C   UNL     1       0.308   9.916  19.559  0.00  0.00    +0.000 A 
ATOM     23  C   UNL     1      -0.221   9.996  20.838  0.00  0.00    +0.000 A 
ATOM     24  N   UNL     1       0.175   9.169  21.831  0.00  0.00    +0.000 NA
ATOM     25  C   UNL     1       1.134   8.280  21.471  0.00  0.00    +0.000 A 
ATOM     26  C   UNL     1       1.681   8.173  20.181  0.00  0.00    +0.000 A 
ATOM     27  N   UNL     1       1.269   9.007  19.200  0.00  0.00    +0.000 NA
BRANCH  22  29
ATOM     28  N   UNL     1      -0.919  10.281  17.500  0.00  0.00    +0.000 N 
ATOM     29  C   UNL     1      -0.195  10.849  18.514  0.00  0.00    +0.000 C 
ATOM     30  O   UNL     1       0.013  12.056  18.555  0.00  0.00    +0.000 OA
ATOM     31  H   UNL     1      -1.263  10.865  16.751  0.00  0.00    +0.000 HD
ATOM     32  H   UNL     1      -1.056   9.278  17.473  0.00  0.00    +0.000 HD
ENDBRANCH  22  29
ENDBRANCH  20  26
ENDBRANCH  19  20
ENDBRANCH   1  19
TORSDOF 5
ENDMDL
MODEL 5
REMARK VINA RESULT:      -7.7      3.142      8.453
REMARK  Name = 
REMARK  5 active torsions:
REMARK  status: ('A' for Active; 'I' for Inactive)
REMARK    1  A    between atoms: C_2  and  C_4
REMARK    2  A    between atoms: C_8  and  N_9
REMARK    3  A    between atoms: N_9  and  C_10
REMARK    4  A    between atoms: C_10  and  C_11
REMARK    5  A    between atoms: C_16  and  N_17
REMARK                            x       y       z     vdW  Elec       q    Type
REMARK                         _______ _______ _______ _____ _____    ______ ____
ROOT
ATOM      1  C   UNL     1       3.619   4.013  18.262  0.00  0.00    +0.000 A 
ATOM      2  C   UNL     1       3.706   2.613  18.185  0.00  0.00    +0.000 A 
ATOM      3  C   UNL     1       2.627   1.826  18.560  0.00  0.00    +0.000 A 
ATOM      4  C   UNL     1       1.487   2.463  18.996  0.00  0.00    +0.000 A 
ATOM      5  N   UNL     1       1.366   3.809  19.077  0.00  0.00    +0.000 NA
ATOM      6  C   UNL     1       2.408   4.584  18.696  0.00  0.00    +0.000 A 
ENDROOT
BRANCH   6   7
ATOM      7  N   UNL     1       2.282   5.946  18.863  0.00  0.00    +0.000 N 
ATOM      8  C   UNL     1       2.759   6.857  17.815  0.00  0.00    +0.000 C 
ATOM      9  C   UNL     1       1.856   8.124  17.838  0.00  0.00    +0.000 C 
ATOM     10  N   UNL     1       1.802   8.707  19.199  0.00  0.00    +0.000 N 
ATOM     11  C   UNL     1       1.435  10.023  19.415  0.00  0.00    +0.000 A 
ATOM     12  C   UNL     1       1.762  11.034  18.516  0.00  0.00    +0.000 A 
ATOM     13  C   UNL     1       1.494  12.368  18.820  0.00  0.00    +0.000 A 
ATOM     14  C   UNL     1       0.900  12.680  20.032  0.00  0.00    +0.000 A 
ATOM     15  C   UNL     1       0.591  11.637  20.876  0.00  0.00    +0.000 A 
ATOM     16  N   UNL     1       0.840  10.340  20.591  0.00  0.00    +0.000 NA
ATOM     17  C   UNL     1       1.420   7.739  20.254  0.00  0.00    +0.000 C 
ATOM     18  C   UNL     1       2.402   6.552  20.200  0.00  0.00    +0.000 C 
ENDBRANCH   6   7
BRANCH   1  19
ATOM     19  C   UNL     1       4.858   4.826  17.943  0.00  0.00    +0.000 C 
BRANCH  19  20
ATOM     20  N   UNL     1       5.842   3.977  17.289  0.00  0.00    +0.000 N 
ATOM     21  H   UNL     1       6.613   3.710  17.892  0.00  0.00    +0.000 HD
BRANCH  20  26
ATOM     22  C   UNL     1       6.274   3.934  13.711  0.00  0.00    +0.000 A 
ATOM     23  C   UNL     1       7.287   4.867  13.551  0.00  0.00    +0.000 A 
ATOM     24  N   UNL     1       7.808   5.545  14.598  0.00  0.00    +0.000 NA
ATOM     25  C   UNL     1       7.268   5.223  15.800  0.00  0.00    +0.000 A 
ATOM     26  C   UNL     1       6.236   4.287  15.988  0.00  0.00    +0.000 A 
ATOM     27  N   UNL     1       5.726   3.621  14.928  0.00  0.00    +0.000 NA
BRANCH  22  29
ATOM     28  N   UNL     1       6.610   2.411  11.855  0.00  0.00    +0.000 N 
ATOM     29  C   UNL     1       5.739   3.242  12.506  0.00  0.00    +0.000 C 
ATOM     30  O   UNL     1       4.586   3.393  12.118  0.00  0.00    +0.000 OA
ATOM     31  H   UNL     1       6.307   1.936  11.017  0.00  0.00    +0.000 HD
ATOM     32  H   UNL     1       7.566   2.322  12.177  0.00  0.00    +0.000 HD
ENDBRANCH  22  29
ENDBRANCH  20  26
ENDBRANCH  19  20
ENDBRANCH   1  19
TORSDOF 5
ENDMDL
MODEL 6
REMARK VINA RESULT:      -7.7      1.227      2.231
REMARK  Name = 
REMARK  5 active torsions:
REMARK  status: ('A' for Active; 'I' for Inactive)
REMARK    1  A    between atoms: C_2  and  C_4
REMARK    2  A    between atoms: C_8  and  N_9
REMARK    3  A    between atoms: N_9  and  C_10
REMARK    4  A    between atoms: C_10  and  C_11
REMARK    5  A    between atoms: C_16  and  N_17
REMARK                            x       y       z     vdW  Elec       q    Type
REMARK                         _______ _______ _______ _____ _____    ______ ____
ROOT
ATOM      1  C   UNL     1       2.639   4.778  19.978  0.00  0.00    +0.000 A 
ATOM      2  C   UNL     1       1.970   4.443  21.167  0.00  0.00    +0.000 A 
ATOM      3  C   UNL     1       2.237   3.239  21.801  0.00  0.00    +0.000 A 
ATOM      4  C   UNL     1       3.171   2.405  21.230  0.00  0.00    +0.000 A 
ATOM      5  N   UNL     1       3.839   2.697  20.089  0.00  0.00    +0.000 NA
ATOM      6  C   UNL     1       3.598   3.879  19.474  0.00  0.00    +0.000 A 
ENDROOT
BRANCH   6   7
ATOM      7  N   UNL     1       4.234   4.114  18.275  0.00  0.00    +0.000 N 
ATOM      8  C   UNL     1       5.302   5.119  18.200  0.00  0.00    +0.000 C 
ATOM      9  C   UNL     1       6.313   4.659  17.110  0.00  0.00    +0.000 C 
ATOM     10  N   UNL     1       5.619   4.385  15.830  0.00  0.00    +0.000 N 
ATOM     11  C   UNL     1       6.293   4.373  14.622  0.00  0.00    +0.000 A 
ATOM     12  C   UNL     1       7.361   5.228  14.369  0.00  0.00    +0.000 A 
ATOM     13  C   UNL     1       7.939   5.285  13.101  0.00  0.00    +0.000 A 
ATOM     14  C   UNL     1       7.435   4.483  12.090  0.00  0.00    +0.000 A 
ATOM     15  C   UNL     1       6.382   3.652  12.404  0.00  0.00    +0.000 A 
ATOM     16  N   UNL     1       5.818   3.582  13.629  0.00  0.00    +0.000 NA
ATOM     17  C   UNL     1       4.477   3.448  15.954  0.00  0.00    +0.000 C 
ATOM     18  C   UNL     1       3.499   4.013  17.004  0.00  0.00    +0.000 C 
ENDBRANCH   6   7
BRANCH   1  19
ATOM     19  C   UNL     1       2.238   6.055  19.265  0.00  0.00    +0.000 C 
BRANCH  19  20
ATOM     20  N   UNL     1       2.586   7.202  20.091  0.00  0.00    +0.000 N 
ATOM     21  H   UNL     1       3.115   6.959  20.920  0.00  0.00    +0.000 HD
BRANCH  20  26
ATOM     22  C   UNL     1       0.368  10.016  19.694  0.00  0.00    +0.000 A 
ATOM     23  C   UNL     1      -0.095  10.178  20.991  0.00  0.00    +0.000 A 
ATOM     24  N   UNL     1       0.277   9.350  21.993  0.00  0.00    +0.000 NA
ATOM     25  C   UNL     1       1.143   8.373  21.622  0.00  0.00    +0.000 A 
ATOM     26  C   UNL     1       1.621   8.184  20.314  0.00  0.00    +0.000 A 
ATOM     27  N   UNL     1       1.235   9.020  19.325  0.00  0.00    +0.000 NA
BRANCH  22  29
ATOM     28  N   UNL     1      -0.738  10.389  17.569  0.00  0.00    +0.000 N 
ATOM     29  C   UNL     1      -0.103  10.957  18.641  0.00  0.00    +0.000 C 
ATOM     30  O   UNL     1       0.053  12.170  18.725  0.00  0.00    +0.000 OA
ATOM     31  H   UNL     1      -1.055  10.979  16.814  0.00  0.00    +0.000 HD
ATOM     32  H   UNL     1      -0.832   9.383  17.509  0.00  0.00    +0.000 HD
ENDBRANCH  22  29
ENDBRANCH  20  26
ENDBRANCH  19  20
ENDBRANCH   1  19
TORSDOF 5
ENDMDL
MODEL 7
REMARK VINA RESULT:      -7.6      2.947      7.828
REMARK  Name = 
REMARK  5 active torsions:
REMARK  status: ('A' for Active; 'I' for Inactive)
REMARK    1  A    between atoms: C_2  and  C_4
REMARK    2  A    between atoms: C_8  and  N_9
REMARK    3  A    between atoms: N_9  and  C_10
REMARK    4  A    between atoms: C_10  and  C_11
REMARK    5  A    between atoms: C_16  and  N_17
REMARK                            x       y       z     vdW  Elec       q    Type
REMARK                         _______ _______ _______ _____ _____    ______ ____
ROOT
ATOM      1  C   UNL     1       1.986   4.108  19.141  0.00  0.00    +0.000 A 
ATOM      2  C   UNL     1       2.063   2.745  19.473  0.00  0.00    +0.000 A 
ATOM      3  C   UNL     1       2.113   2.353  20.803  0.00  0.00    +0.000 A 
ATOM      4  C   UNL     1       2.077   3.337  21.765  0.00  0.00    +0.000 A 
ATOM      5  N   UNL     1       1.997   4.658  21.482  0.00  0.00    +0.000 NA
ATOM      6  C   UNL     1       1.930   5.048  20.188  0.00  0.00    +0.000 A 
ENDROOT
BRANCH   6   7
ATOM      7  N   UNL     1       1.928   6.401  19.930  0.00  0.00    +0.000 N 
ATOM      8  C   UNL     1       2.912   6.970  19.001  0.00  0.00    +0.000 C 
ATOM      9  C   UNL     1       2.257   8.196  18.303  0.00  0.00    +0.000 C 
ATOM     10  N   UNL     1       1.720   9.146  19.305  0.00  0.00    +0.000 N 
ATOM     11  C   UNL     1       1.474  10.472  18.995  0.00  0.00    +0.000 A 
ATOM     12  C   UNL     1       2.275  11.179  18.104  0.00  0.00    +0.000 A 
ATOM     13  C   UNL     1       2.084  12.546  17.908  0.00  0.00    +0.000 A 
ATOM     14  C   UNL     1       1.087  13.198  18.616  0.00  0.00    +0.000 A 
ATOM     15  C   UNL     1       0.320  12.444  19.477  0.00  0.00    +0.000 A 
ATOM     16  N   UNL     1       0.491  11.118  19.670  0.00  0.00    +0.000 NA
ATOM     17  C   UNL     1       0.810   8.525  20.297  0.00  0.00    +0.000 C 
ATOM     18  C   UNL     1       1.560   7.365  20.981  0.00  0.00    +0.000 C 
ENDBRANCH   6   7
BRANCH   1  19
ATOM     19  C   UNL     1       2.042   4.493  17.676  0.00  0.00    +0.000 C 
BRANCH  19  20
ATOM     20  N   UNL     1       2.997   3.640  16.985  0.00  0.00    +0.000 N 
ATOM     21  H   UNL     1       2.885   2.654  17.194  0.00  0.00    +0.000 HD
BRANCH  20  26
ATOM     22  C   UNL     1       6.275   4.528  15.779  0.00  0.00    +0.000 A 
ATOM     23  C   UNL     1       6.986   4.609  16.967  0.00  0.00    +0.000 A 
ATOM     24  N   UNL     1       6.397   4.417  18.168  0.00  0.00    +0.000 NA
ATOM     25  C   UNL     1       5.073   4.126  18.105  0.00  0.00    +0.000 A 
ATOM     26  C   UNL     1       4.329   4.046  16.915  0.00  0.00    +0.000 A 
ATOM     27  N   UNL     1       4.935   4.245  15.723  0.00  0.00    +0.000 NA
BRANCH  22  29
ATOM     28  N   UNL     1       6.530   4.079  13.410  0.00  0.00    +0.000 N 
ATOM     29  C   UNL     1       6.991   4.773  14.496  0.00  0.00    +0.000 C 
ATOM     30  O   UNL     1       7.931   5.554  14.406  0.00  0.00    +0.000 OA
ATOM     31  H   UNL     1       6.996   4.188  12.521  0.00  0.00    +0.000 HD
ATOM     32  H   UNL     1       5.770   3.418  13.514  0.00  0.00    +0.000 HD
ENDBRANCH  22  29
ENDBRANCH  20  26
ENDBRANCH  19  20
ENDBRANCH   1  19
TORSDOF 5
ENDMDL
MODEL 8
REMARK VINA RESULT:      -7.3      2.745      7.334
REMARK  Name = 
REMARK  5 active torsions:
REMARK  status: ('A' for Active; 'I' for Inactive)
REMARK    1  A    between atoms: C_2  and  C_4
REMARK    2  A    between atoms: C_8  and  N_9
REMARK    3  A    between atoms: N_9  and  C_10
REMARK    4  A    between atoms: C_10  and  C_11
REMARK    5  A    between atoms: C_16  and  N_17
REMARK                            x       y       z     vdW  Elec       q    Type
REMARK                         _______ _______ _______ _____ _____    ______ ____
ROOT
ATOM      1  C   UNL     1       2.273   4.224  19.007  0.00  0.00    +0.000 A 
ATOM      2  C   UNL     1       2.362   2.857  19.320  0.00  0.00    +0.000 A 
ATOM      3  C   UNL     1       2.229   2.433  20.634  0.00  0.00    +0.000 A 
ATOM      4  C   UNL     1       2.004   3.390  21.599  0.00  0.00    +0.000 A 
ATOM      5  N   UNL     1       1.907   4.713  21.333  0.00  0.00    +0.000 NA
ATOM      6  C   UNL     1       2.017   5.133  20.051  0.00  0.00    +0.000 A 
ENDROOT
BRANCH   6   7
ATOM      7  N   UNL     1       1.991   6.491  19.821  0.00  0.00    +0.000 N 
ATOM      8  C   UNL     1       2.897   7.082  18.829  0.00  0.00    +0.000 C 
ATOM      9  C   UNL     1       2.186   8.320  18.210  0.00  0.00    +0.000 C 
ATOM     10  N   UNL     1       1.728   9.248  19.271  0.00  0.00    +0.000 N 
ATOM     11  C   UNL     1       1.456  10.578  19.008  0.00  0.00    +0.000 A 
ATOM     12  C   UNL     1       2.182  11.306  18.071  0.00  0.00    +0.000 A 
ATOM     13  C   UNL     1       1.973  12.676  17.919  0.00  0.00    +0.000 A 
ATOM     14  C   UNL     1       1.034  13.310  18.716  0.00  0.00    +0.000 A 
ATOM     15  C   UNL     1       0.340  12.536  19.619  0.00  0.00    +0.000 A 
ATOM     16  N   UNL     1       0.529  11.207  19.772  0.00  0.00    +0.000 NA
ATOM     17  C   UNL     1       0.902   8.603  20.319  0.00  0.00    +0.000 C 
ATOM     18  C   UNL     1       1.706   7.432  20.917  0.00  0.00    +0.000 C 
ENDBRANCH   6   7
BRANCH   1  19
ATOM     19  C   UNL     1       2.530   4.649  17.575  0.00  0.00    +0.000 C 
BRANCH  19  20
ATOM     20  N   UNL     1       3.650   3.890  17.036  0.00  0.00    +0.000 N 
ATOM     21  H   UNL     1       3.737   2.961  17.431  0.00  0.00    +0.000 HD
BRANCH  20  26
ATOM     22  C   UNL     1       6.745   5.643  17.619  0.00  0.00    +0.000 A 
ATOM     23  C   UNL     1       7.108   5.984  16.324  0.00  0.00    +0.000 A 
ATOM     24  N   UNL     1       6.373   5.611  15.252  0.00  0.00    +0.000 NA
ATOM     25  C   UNL     1       5.259   4.900  15.556  0.00  0.00    +0.000 A 
ATOM     26  C   UNL     1       4.873   4.536  16.858  0.00  0.00    +0.000 A 
ATOM     27  N   UNL     1       5.622   4.915  17.916  0.00  0.00    +0.000 NA
BRANCH  22  29
ATOM     28  N   UNL     1       7.641   5.246  19.836  0.00  0.00    +0.000 N 
ATOM     29  C   UNL     1       7.617   6.074  18.746  0.00  0.00    +0.000 C 
ATOM     30  O   UNL     1       8.285   7.100  18.705  0.00  0.00    +0.000 OA
ATOM     31  H   UNL     1       8.196   5.503  20.639  0.00  0.00    +0.000 HD
ATOM     32  H   UNL     1       7.061   4.417  19.858  0.00  0.00    +0.000 HD
ENDBRANCH  22  29
ENDBRANCH  20  26
ENDBRANCH  19  20
ENDBRANCH   1  19
TORSDOF 5
ENDMDL
MODEL 9
REMARK VINA RESULT:      -7.3      3.103      8.407
REMARK  Name = 
REMARK  5 active torsions:
REMARK  status: ('A' for Active; 'I' for Inactive)
REMARK    1  A    between atoms: C_2  and  C_4
REMARK    2  A    between atoms: C_8  and  N_9
REMARK    3  A    between atoms: N_9  and  C_10
REMARK    4  A    between atoms: C_10  and  C_11
REMARK    5  A    between atoms: C_16  and  N_17
REMARK                            x       y       z     vdW  Elec       q    Type
REMARK                         _______ _______ _______ _____ _____    ______ ____
ROOT
ATOM      1  C   UNL     1       3.778   3.725  18.160  0.00  0.00    +0.000 A 
ATOM      2  C   UNL     1       4.158   2.377  18.055  0.00  0.00    +0.000 A 
ATOM      3  C   UNL     1       3.393   1.389  18.657  0.00  0.00    +0.000 A 
ATOM      4  C   UNL     1       2.263   1.778  19.341  0.00  0.00    +0.000 A 
ATOM      5  N   UNL     1       1.864   3.066  19.457  0.00  0.00    +0.000 NA
ATOM      6  C   UNL     1       2.595   4.034  18.858  0.00  0.00    +0.000 A 
ENDROOT
BRANCH   6   7
ATOM      7  N   UNL     1       2.207   5.341  19.058  0.00  0.00    +0.000 N 
ATOM      8  C   UNL     1       1.498   5.712  20.289  0.00  0.00    +0.000 C 
ATOM      9  C   UNL     1       1.877   7.181  20.633  0.00  0.00    +0.000 C 
ATOM     10  N   UNL     1       1.631   8.073  19.475  0.00  0.00    +0.000 N 
ATOM     11  C   UNL     1       1.482   9.440  19.626  0.00  0.00    +0.000 A 
ATOM     12  C   UNL     1       0.867   9.992  20.745  0.00  0.00    +0.000 A 
ATOM     13  C   UNL     1       0.614  11.362  20.812  0.00  0.00    +0.000 A 
ATOM     14  C   UNL     1       0.977  12.170  19.748  0.00  0.00    +0.000 A 
ATOM     15  C   UNL     1       1.590  11.567  18.671  0.00  0.00    +0.000 A 
ATOM     16  N   UNL     1       1.847  10.243  18.597  0.00  0.00    +0.000 NA
ATOM     17  C   UNL     1       2.272   7.618  18.219  0.00  0.00    +0.000 C 
ATOM     18  C   UNL     1       1.792   6.182  17.923  0.00  0.00    +0.000 C 
ENDBRANCH   6   7
BRANCH   1  19
ATOM     19  C   UNL     1       4.702   4.778  17.578  0.00  0.00    +0.000 C 
BRANCH  19  20
ATOM     20  N   UNL     1       5.907   4.139  17.070  0.00  0.00    +0.000 N 
ATOM     21  H   UNL     1       6.683   4.160  17.722  0.00  0.00    +0.000 HD
BRANCH  20  26
ATOM     22  C   UNL     1       6.260   3.922  13.489  0.00  0.00    +0.000 A 
ATOM     23  C   UNL     1       7.306   4.805  13.269  0.00  0.00    +0.000 A 
ATOM     24  N   UNL     1       7.875   5.507  14.274  0.00  0.00    +0.000 NA
ATOM     25  C   UNL     1       7.349   5.259  15.500  0.00  0.00    +0.000 A 
ATOM     26  C   UNL     1       6.284   4.375  15.749  0.00  0.00    +0.000 A 
ATOM     27  N   UNL     1       5.726   3.685  14.730  0.00  0.00    +0.000 NA
BRANCH  22  29
ATOM     28  N   UNL     1       6.404   2.152  11.839  0.00  0.00    +0.000 N 
ATOM     29  C   UNL     1       5.672   3.201  12.327  0.00  0.00    +0.000 C 
ATOM     30  O   UNL     1       4.592   3.513  11.837  0.00  0.00    +0.000 OA
ATOM     31  H   UNL     1       6.064   1.644  11.035  0.00  0.00    +0.000 HD
ATOM     32  H   UNL     1       7.305   1.929  12.243  0.00  0.00    +0.000 HD
ENDBRANCH  22  29
ENDBRANCH  20  26
ENDBRANCH  19  20
ENDBRANCH   1  19
TORSDOF 5
ENDMDL
