MODEL 1
REMARK VINA RESULT:      -7.7      0.000      0.000
REMARK  Name = 
REMARK  3 active torsions:
REMARK  status: ('A' for Active; 'I' for Inactive)
REMARK    1  A    between atoms: C_1  and  C_2
REMARK    2  A    between atoms: N_9  and  C_10
REMARK    3  A    between atoms: C_13  and  C_14
REMARK                            x       y       z     vdW  Elec       q    Type
REMARK                         _______ _______ _______ _____ _____    ______ ____
ROOT
ATOM      1  C   UNL     1       4.494   4.061  18.057  0.00  0.00    +0.000 A 
ATOM      2  N   UNL     1       4.134   2.860  18.579  0.00  0.00    +0.000 NA
ATOM      3  C   UNL     1       2.992   2.754  19.304  0.00  0.00    +0.000 A 
ATOM      4  C   UNL     1       2.144   3.812  19.560  0.00  0.00    +0.000 A 
ATOM      5  C   UNL     1       2.497   5.047  19.020  0.00  0.00    +0.000 A 
ATOM      6  C   UNL     1       3.665   5.179  18.262  0.00  0.00    +0.000 A 
ATOM      7 CL   UNL     1       3.904   6.723  17.518  0.00  0.00    +0.000 Cl
ENDROOT
BRANCH   1  16
ATOM      8  C   UNL     1       7.326   4.911  11.745  0.00  0.00    +0.000 C 
ATOM      9  C   UNL     1       7.134   4.716  13.194  0.00  0.00    +0.000 A 
ATOM     10  N   UNL     1       6.401   3.670  13.703  0.00  0.00    +0.000 NA
ATOM     11  C   UNL     1       6.417   3.898  14.999  0.00  0.00    +0.000 A 
ATOM     12  N   UNL     1       7.156   5.021  15.245  0.00  0.00    +0.000 N 
ATOM     13  N   UNL     1       7.625   5.564  14.110  0.00  0.00    +0.000 NA
ATOM     14  C   UNL     1       7.325   5.664  16.533  0.00  0.00    +0.000 C 
ATOM     15  C   UNL     1       6.902   4.720  17.665  0.00  0.00    +0.000 C 
ATOM     16  N   UNL     1       5.643   4.065  17.306  0.00  0.00    +0.000 N 
ATOM     17  C   UNL     1       5.725   3.194  16.123  0.00  0.00    +0.000 C 
ENDBRANCH   1  16
BRANCH   4  18
ATOM     18  C   UNL     1       0.896   3.639  20.365  0.00  0.00    +0.000 C 
ATOM     19  F   UNL     1       1.104   3.070  21.583  0.00  0.00    +0.000 F 
ATOM     20  F   UNL     1       0.271   4.824  20.606  0.00  0.00    +0.000 F 
ATOM     21  F   UNL     1      -0.021   2.853  19.736  0.00  0.00    +0.000 F 
ENDBRANCH   4  18
TORSDOF 2
ENDMDL
MODEL 2
REMARK VINA RESULT:      -7.4      2.722      3.728
REMARK  Name = 
REMARK  3 active torsions:
REMARK  status: ('A' for Active; 'I' for Inactive)
REMARK    1  A    between atoms: C_1  and  C_2
REMARK    2  A    between atoms: N_9  and  C_10
REMARK    3  A    between atoms: C_13  and  C_14
REMARK                            x       y       z     vdW  Elec       q    Type
REMARK                         _______ _______ _______ _____ _____    ______ ____
ROOT
ATOM      1  C   UNL     1       4.853   4.938  18.266  0.00  0.00    +0.000 A 
ATOM      2  N   UNL     1       4.396   5.143  19.528  0.00  0.00    +0.000 NA
ATOM      3  C   UNL     1       3.212   4.604  19.913  0.00  0.00    +0.000 A 
ATOM      4  C   UNL     1       2.411   3.842  19.088  0.00  0.00    +0.000 A 
ATOM      5  C   UNL     1       2.874   3.616  17.793  0.00  0.00    +0.000 A 
ATOM      6  C   UNL     1       4.097   4.153  17.376  0.00  0.00    +0.000 A 
ATOM      7 CL   UNL     1       4.630   3.666  15.804  0.00  0.00    +0.000 Cl
ENDROOT
BRANCH   1  16
ATOM      8  C   UNL     1       8.786  10.692  18.186  0.00  0.00    +0.000 C 
ATOM      9  C   UNL     1       8.323   9.295  18.101  0.00  0.00    +0.000 A 
ATOM     10  N   UNL     1       7.296   8.912  17.271  0.00  0.00    +0.000 NA
ATOM     11  C   UNL     1       7.154   7.633  17.542  0.00  0.00    +0.000 A 
ATOM     12  N   UNL     1       8.083   7.270  18.477  0.00  0.00    +0.000 N 
ATOM     13  N   UNL     1       8.842   8.313  18.852  0.00  0.00    +0.000 NA
ATOM     14  C   UNL     1       8.186   5.974  19.118  0.00  0.00    +0.000 C 
ATOM     15  C   UNL     1       7.379   4.926  18.343  0.00  0.00    +0.000 C 
ATOM     16  N   UNL     1       6.078   5.487  17.978  0.00  0.00    +0.000 N 
ATOM     17  C   UNL     1       6.146   6.637  17.062  0.00  0.00    +0.000 C 
ENDBRANCH   1  16
BRANCH   4  18
ATOM     18  C   UNL     1       1.114   3.271  19.565  0.00  0.00    +0.000 C 
ATOM     19  F   UNL     1       1.257   2.246  20.446  0.00  0.00    +0.000 F 
ATOM     20  F   UNL     1       0.343   4.201  20.193  0.00  0.00    +0.000 F 
ATOM     21  F   UNL     1       0.355   2.785  18.544  0.00  0.00    +0.000 F 
ENDBRANCH   4  18
TORSDOF 2
ENDMDL
MODEL 3
REMARK VINA RESULT:      -7.3      2.652      3.414
REMARK  Name = 
REMARK  3 active torsions:
REMARK  status: ('A' for Active; 'I' for Inactive)
REMARK    1  A    between atoms: C_1  and  C_2
REMARK    2  A    between atoms: N_9  and  C_10
REMARK    3  A    between atoms: C_13  and  C_14
REMARK                            x       y       z     vdW  Elec       q    Type
REMARK                         _______ _______ _______ _____ _____    ______ ____
ROOT
ATOM      1  C   UNL     1       3.266   5.591  19.170  0.00  0.00    +0.000 A 
ATOM      2  N   UNL     1       3.190   6.890  18.779  0.00  0.00    +0.000 NA
ATOM      3  C   UNL     1       2.330   7.733  19.403  0.00  0.00    +0.000 A 
ATOM      4  C   UNL     1       1.499   7.355  20.438  0.00  0.00    +0.000 A 
ATOM      5  C   UNL     1       1.575   6.028  20.855  0.00  0.00    +0.000 A 
ATOM      6  C   UNL     1       2.461   5.142  20.233  0.00  0.00    +0.000 A 
ATOM      7 CL   UNL     1       2.573   3.570  20.949  0.00  0.00    +0.000 Cl
ENDROOT
BRANCH   1  16
ATOM      8  C   UNL     1       7.169   4.802  13.449  0.00  0.00    +0.000 C 
ATOM      9  C   UNL     1       6.573   4.637  14.788  0.00  0.00    +0.000 A 
ATOM     10  N   UNL     1       5.223   4.453  14.972  0.00  0.00    +0.000 NA
ATOM     11  C   UNL     1       5.101   4.423  16.281  0.00  0.00    +0.000 A 
ATOM     12  N   UNL     1       6.339   4.555  16.846  0.00  0.00    +0.000 N 
ATOM     13  N   UNL     1       7.296   4.694  15.915  0.00  0.00    +0.000 NA
ATOM     14  C   UNL     1       6.620   4.677  18.263  0.00  0.00    +0.000 C 
ATOM     15  C   UNL     1       5.404   4.246  19.091  0.00  0.00    +0.000 C 
ATOM     16  N   UNL     1       4.191   4.822  18.509  0.00  0.00    +0.000 N 
ATOM     17  C   UNL     1       3.885   4.350  17.149  0.00  0.00    +0.000 C 
ENDBRANCH   1  16
BRANCH   4  18
ATOM     18  C   UNL     1       0.570   8.328  21.091  0.00  0.00    +0.000 C 
ATOM     19  F   UNL     1      -0.591   7.769  21.527  0.00  0.00    +0.000 F 
ATOM     20  F   UNL     1       1.131   8.923  22.179  0.00  0.00    +0.000 F 
ATOM     21  F   UNL     1       0.208   9.341  20.256  0.00  0.00    +0.000 F 
ENDBRANCH   4  18
TORSDOF 2
ENDMDL
MODEL 4
REMARK VINA RESULT:      -7.1      2.978      3.710
REMARK  Name = 
REMARK  3 active torsions:
REMARK  status: ('A' for Active; 'I' for Inactive)
REMARK    1  A    between atoms: C_1  and  C_2
REMARK    2  A    between atoms: N_9  and  C_10
REMARK    3  A    between atoms: C_13  and  C_14
REMARK                            x       y       z     vdW  Elec       q    Type
REMARK                         _______ _______ _______ _____ _____    ______ ____
ROOT
ATOM      1  C   UNL     1       3.719   6.631  18.139  0.00  0.00    +0.000 A 
ATOM      2  N   UNL     1       3.542   7.806  17.479  0.00  0.00    +0.000 NA
ATOM      3  C   UNL     1       2.600   8.684  17.906  0.00  0.00    +0.000 A 
ATOM      4  C   UNL     1       1.780   8.463  18.994  0.00  0.00    +0.000 A 
ATOM      5  C   UNL     1       1.960   7.266  19.685  0.00  0.00    +0.000 A 
ATOM      6  C   UNL     1       2.931   6.349  19.270  0.00  0.00    +0.000 A 
ATOM      7 CL   UNL     1       3.160   4.982  20.305  0.00  0.00    +0.000 Cl
ENDROOT
BRANCH   1  16
ATOM      8  C   UNL     1       7.019   4.142  12.526  0.00  0.00    +0.000 C 
ATOM      9  C   UNL     1       6.637   4.469  13.913  0.00  0.00    +0.000 A 
ATOM     10  N   UNL     1       5.401   4.154  14.426  0.00  0.00    +0.000 NA
ATOM     11  C   UNL     1       5.440   4.669  15.636  0.00  0.00    +0.000 A 
ATOM     12  N   UNL     1       6.666   5.240  15.837  0.00  0.00    +0.000 N 
ATOM     13  N   UNL     1       7.449   5.127  14.752  0.00  0.00    +0.000 NA
ATOM     14  C   UNL     1       7.068   6.005  17.001  0.00  0.00    +0.000 C 
ATOM     15  C   UNL     1       6.095   5.770  18.161  0.00  0.00    +0.000 C 
ATOM     16  N   UNL     1       4.720   5.823  17.661  0.00  0.00    +0.000 N 
ATOM     17  C   UNL     1       4.384   4.769  16.691  0.00  0.00    +0.000 C 
ENDBRANCH   1  16
BRANCH   4  18
ATOM     18  C   UNL     1       0.758   9.466  19.421  0.00  0.00    +0.000 C 
ATOM     19  F   UNL     1       0.032   9.082  20.505  0.00  0.00    +0.000 F 
ATOM     20  F   UNL     1       1.318  10.663  19.749  0.00  0.00    +0.000 F 
ATOM     21  F   UNL     1      -0.147   9.734  18.439  0.00  0.00    +0.000 F 
ENDBRANCH   4  18
TORSDOF 2
ENDMDL
MODEL 5
REMARK VINA RESULT:      -7.1      2.620      3.582
REMARK  Name = 
REMARK  3 active torsions:
REMARK  status: ('A' for Active; 'I' for Inactive)
REMARK    1  A    between atoms: C_1  and  C_2
REMARK    2  A    between atoms: N_9  and  C_10
REMARK    3  A    between atoms: C_13  and  C_14
REMARK                            x       y       z     vdW  Elec       q    Type
REMARK                         _______ _______ _______ _____ _____    ______ ____
ROOT
ATOM      1  C   UNL     1       4.686   4.947  18.475  0.00  0.00    +0.000 A 
ATOM      2  N   UNL     1       4.672   3.638  18.836  0.00  0.00    +0.000 NA
ATOM      3  C   UNL     1       3.501   3.045  19.177  0.00  0.00    +0.000 A 
ATOM      4  C   UNL     1       2.284   3.697  19.189  0.00  0.00    +0.000 A 
ATOM      5  C   UNL     1       2.284   5.038  18.810  0.00  0.00    +0.000 A 
ATOM      6  C   UNL     1       3.478   5.669  18.444  0.00  0.00    +0.000 A 
ATOM      7 CL   UNL     1       3.318   7.283  17.844  0.00  0.00    +0.000 Cl
ENDROOT
BRANCH   1  16
ATOM      8  C   UNL     1       8.782  10.572  18.061  0.00  0.00    +0.000 C 
ATOM      9  C   UNL     1       8.273   9.189  18.029  0.00  0.00    +0.000 A 
ATOM     10  N   UNL     1       7.189   8.823  17.266  0.00  0.00    +0.000 NA
ATOM     11  C   UNL     1       7.024   7.554  17.570  0.00  0.00    +0.000 A 
ATOM     12  N   UNL     1       7.993   7.180  18.459  0.00  0.00    +0.000 N 
ATOM     13  N   UNL     1       8.803   8.204  18.769  0.00  0.00    +0.000 NA
ATOM     14  C   UNL     1       8.092   5.892  19.119  0.00  0.00    +0.000 C 
ATOM     15  C   UNL     1       7.211   4.856  18.411  0.00  0.00    +0.000 C 
ATOM     16  N   UNL     1       5.909   5.452  18.108  0.00  0.00    +0.000 N 
ATOM     17  C   UNL     1       5.960   6.582  17.167  0.00  0.00    +0.000 C 
ENDBRANCH   1  16
BRANCH   4  18
ATOM     18  C   UNL     1       1.022   2.993  19.573  0.00  0.00    +0.000 C 
ATOM     19  F   UNL     1       0.096   3.806  20.148  0.00  0.00    +0.000 F 
ATOM     20  F   UNL     1       0.407   2.420  18.504  0.00  0.00    +0.000 F 
ATOM     21  F   UNL     1       1.241   1.986  20.463  0.00  0.00    +0.000 F 
ENDBRANCH   4  18
TORSDOF 2
ENDMDL
MODEL 6
REMARK VINA RESULT:      -6.9      3.008      3.887
REMARK  Name = 
REMARK  3 active torsions:
REMARK  status: ('A' for Active; 'I' for Inactive)
REMARK    1  A    between atoms: C_1  and  C_2
REMARK    2  A    between atoms: N_9  and  C_10
REMARK    3  A    between atoms: C_13  and  C_14
REMARK                            x       y       z     vdW  Elec       q    Type
REMARK                         _______ _______ _______ _____ _____    ______ ____
ROOT
ATOM      1  C   UNL     1       3.135   6.231  19.025  0.00  0.00    +0.000 A 
ATOM      2  N   UNL     1       3.044   7.446  18.425  0.00  0.00    +0.000 NA
ATOM      3  C   UNL     1       2.176   8.372  18.903  0.00  0.00    +0.000 A 
ATOM      4  C   UNL     1       1.349   8.162  19.987  0.00  0.00    +0.000 A 
ATOM      5  C   UNL     1       1.440   6.923  20.619  0.00  0.00    +0.000 A 
ATOM      6  C   UNL     1       2.335   5.955  20.150  0.00  0.00    +0.000 A 
ATOM      7 CL   UNL     1       2.465   4.526  21.117  0.00  0.00    +0.000 Cl
ENDROOT
BRANCH   1  16
ATOM      8  C   UNL     1       7.173   4.648  13.569  0.00  0.00    +0.000 C 
ATOM      9  C   UNL     1       6.541   4.669  14.901  0.00  0.00    +0.000 A 
ATOM     10  N   UNL     1       5.185   4.523  15.073  0.00  0.00    +0.000 NA
ATOM     11  C   UNL     1       5.030   4.670  16.370  0.00  0.00    +0.000 A 
ATOM     12  N   UNL     1       6.254   4.868  16.945  0.00  0.00    +0.000 N 
ATOM     13  N   UNL     1       7.236   4.873  16.030  0.00  0.00    +0.000 NA
ATOM     14  C   UNL     1       6.500   5.178  18.340  0.00  0.00    +0.000 C 
ATOM     15  C   UNL     1       5.259   4.871  19.186  0.00  0.00    +0.000 C 
ATOM     16  N   UNL     1       4.067   5.372  18.499  0.00  0.00    +0.000 N 
ATOM     17  C   UNL     1       3.791   4.724  17.208  0.00  0.00    +0.000 C 
ENDBRANCH   1  16
BRANCH   4  18
ATOM     18  C   UNL     1       0.410   9.219  20.473  0.00  0.00    +0.000 C 
ATOM     19  F   UNL     1      -0.166   9.941  19.474  0.00  0.00    +0.000 F 
ATOM     20  F   UNL     1      -0.616   8.701  21.202  0.00  0.00    +0.000 F 
ATOM     21  F   UNL     1       1.024  10.125  21.284  0.00  0.00    +0.000 F 
ENDBRANCH   4  18
TORSDOF 2
ENDMDL
MODEL 7
REMARK VINA RESULT:      -6.8      2.549      3.286
REMARK  Name = 
REMARK  3 active torsions:
REMARK  status: ('A' for Active; 'I' for Inactive)
REMARK    1  A    between atoms: C_1  and  C_2
REMARK    2  A    between atoms: N_9  and  C_10
REMARK    3  A    between atoms: C_13  and  C_14
REMARK                            x       y       z     vdW  Elec       q    Type
REMARK                         _______ _______ _______ _____ _____    ______ ____
ROOT
ATOM      1  C   UNL     1       3.258   5.983  19.182  0.00  0.00    +0.000 A 
ATOM      2  N   UNL     1       2.610   5.511  20.279  0.00  0.00    +0.000 NA
ATOM      3  C   UNL     1       1.707   6.295  20.918  0.00  0.00    +0.000 A 
ATOM      4  C   UNL     1       1.389   7.579  20.525  0.00  0.00    +0.000 A 
ATOM      5  C   UNL     1       2.038   8.071  19.395  0.00  0.00    +0.000 A 
ATOM      6  C   UNL     1       2.968   7.278  18.713  0.00  0.00    +0.000 A 
ATOM      7 CL   UNL     1       3.582   7.945  17.240  0.00  0.00    +0.000 Cl
ENDROOT
BRANCH   1  16
ATOM      8  C   UNL     1       7.059   4.520  13.526  0.00  0.00    +0.000 C 
ATOM      9  C   UNL     1       6.462   4.493  14.874  0.00  0.00    +0.000 A 
ATOM     10  N   UNL     1       5.104   4.414  15.075  0.00  0.00    +0.000 NA
ATOM     11  C   UNL     1       4.991   4.488  16.383  0.00  0.00    +0.000 A 
ATOM     12  N   UNL     1       6.239   4.578  16.934  0.00  0.00    +0.000 N 
ATOM     13  N   UNL     1       7.196   4.584  15.993  0.00  0.00    +0.000 NA
ATOM     14  C   UNL     1       6.537   4.784  18.338  0.00  0.00    +0.000 C 
ATOM     15  C   UNL     1       5.301   4.497  19.198  0.00  0.00    +0.000 C 
ATOM     16  N   UNL     1       4.125   5.108  18.577  0.00  0.00    +0.000 N 
ATOM     17  C   UNL     1       3.779   4.559  17.257  0.00  0.00    +0.000 C 
ENDBRANCH   1  16
BRANCH   4  18
ATOM     18  C   UNL     1       0.383   8.399  21.268  0.00  0.00    +0.000 C 
ATOM     19  F   UNL     1      -0.769   7.732  21.548  0.00  0.00    +0.000 F 
ATOM     20  F   UNL     1       0.861   8.841  22.463  0.00  0.00    +0.000 F 
ATOM     21  F   UNL     1       0.013   9.514  20.578  0.00  0.00    +0.000 F 
ENDBRANCH   4  18
TORSDOF 2
ENDMDL
MODEL 8
REMARK VINA RESULT:      -6.3      4.295      5.888
REMARK  Name = 
REMARK  3 active torsions:
REMARK  status: ('A' for Active; 'I' for Inactive)
REMARK    1  A    between atoms: C_1  and  C_2
REMARK    2  A    between atoms: N_9  and  C_10
REMARK    3  A    between atoms: C_13  and  C_14
REMARK                            x       y       z     vdW  Elec       q    Type
REMARK                         _______ _______ _______ _____ _____    ______ ____
ROOT
ATOM      1  C   UNL     1       1.792   7.768  19.841  0.00  0.00    +0.000 A 
ATOM      2  N   UNL     1       1.463   7.682  21.156  0.00  0.00    +0.000 NA
ATOM      3  C   UNL     1       0.842   8.723  21.766  0.00  0.00    +0.000 A 
ATOM      4  C   UNL     1       0.512   9.901  21.127  0.00  0.00    +0.000 A 
ATOM      5  C   UNL     1       0.835   9.997  19.775  0.00  0.00    +0.000 A 
ATOM      6  C   UNL     1       1.467   8.934  19.123  0.00  0.00    +0.000 A 
ATOM      7 CL   UNL     1       1.668   9.117  17.414  0.00  0.00    +0.000 Cl
ENDROOT
BRANCH   1  16
ATOM      8  C   UNL     1       7.734   4.664  17.931  0.00  0.00    +0.000 C 
ATOM      9  C   UNL     1       6.318   4.939  18.242  0.00  0.00    +0.000 A 
ATOM     10  N   UNL     1       5.622   5.964  17.645  0.00  0.00    +0.000 NA
ATOM     11  C   UNL     1       4.448   5.911  18.237  0.00  0.00    +0.000 A 
ATOM     12  N   UNL     1       4.446   4.876  19.130  0.00  0.00    +0.000 N 
ATOM     13  N   UNL     1       5.628   4.239  19.153  0.00  0.00    +0.000 NA
ATOM     14  C   UNL     1       3.378   4.552  20.056  0.00  0.00    +0.000 C 
ATOM     15  C   UNL     1       2.083   5.265  19.653  0.00  0.00    +0.000 C 
ATOM     16  N   UNL     1       2.381   6.653  19.299  0.00  0.00    +0.000 N 
ATOM     17  C   UNL     1       3.256   6.808  18.126  0.00  0.00    +0.000 C 
ENDBRANCH   1  16
BRANCH   4  18
ATOM     18  C   UNL     1      -0.174  11.017  21.848  0.00  0.00    +0.000 C 
ATOM     19  F   UNL     1       0.494  12.201  21.788  0.00  0.00    +0.000 F 
ATOM     20  F   UNL     1      -1.417  11.262  21.352  0.00  0.00    +0.000 F 
ATOM     21  F   UNL     1      -0.346  10.750  23.173  0.00  0.00    +0.000 F 
ENDBRANCH   4  18
TORSDOF 2
ENDMDL
MODEL 9
REMARK VINA RESULT:      -6.2      7.495      9.685
REMARK  Name = 
REMARK  3 active torsions:
REMARK  status: ('A' for Active; 'I' for Inactive)
REMARK    1  A    between atoms: C_1  and  C_2
REMARK    2  A    between atoms: N_9  and  C_10
REMARK    3  A    between atoms: C_13  and  C_14
REMARK                            x       y       z     vdW  Elec       q    Type
REMARK                         _______ _______ _______ _____ _____    ______ ____
ROOT
ATOM      1  C   UNL     1       1.038   9.887  19.217  0.00  0.00    +0.000 A 
ATOM      2  N   UNL     1       1.577   9.683  17.987  0.00  0.00    +0.000 NA
ATOM      3  C   UNL     1       2.262   8.540  17.732  0.00  0.00    +0.000 A 
ATOM      4  C   UNL     1       2.459   7.539  18.661  0.00  0.00    +0.000 A 
ATOM      5  C   UNL     1       1.901   7.731  19.923  0.00  0.00    +0.000 A 
ATOM      6  C   UNL     1       1.183   8.898  20.207  0.00  0.00    +0.000 A 
ATOM      7 CL   UNL     1       0.409   8.941  21.754  0.00  0.00    +0.000 Cl
ENDROOT
BRANCH   1  16
ATOM      8  C   UNL     1      -5.175  12.815  20.408  0.00  0.00    +0.000 C 
ATOM      9  C   UNL     1      -3.732  12.597  20.197  0.00  0.00    +0.000 A 
ATOM     10  N   UNL     1      -3.239  11.993  19.064  0.00  0.00    +0.000 NA
ATOM     11  C   UNL     1      -1.946  11.928  19.299  0.00  0.00    +0.000 A 
ATOM     12  N   UNL     1      -1.684  12.500  20.513  0.00  0.00    +0.000 N 
ATOM     13  N   UNL     1      -2.807  12.934  21.108  0.00  0.00    +0.000 NA
ATOM     14  C   UNL     1      -0.397  12.531  21.179  0.00  0.00    +0.000 C 
ATOM     15  C   UNL     1       0.727  12.197  20.193  0.00  0.00    +0.000 C 
ATOM     16  N   UNL     1       0.329  11.052  19.372  0.00  0.00    +0.000 N 
ATOM     17  C   UNL     1      -0.840  11.296  18.514  0.00  0.00    +0.000 C 
ENDBRANCH   1  16
BRANCH   4  18
ATOM     18  C   UNL     1       3.222   6.298  18.325  0.00  0.00    +0.000 C 
ATOM     19  F   UNL     1       3.949   5.804  19.362  0.00  0.00    +0.000 F 
ATOM     20  F   UNL     1       2.406   5.285  17.923  0.00  0.00    +0.000 F 
ATOM     21  F   UNL     1       4.105   6.492  17.306  0.00  0.00    +0.000 F 
ENDBRANCH   4  18
TORSDOF 2
ENDMDL
