MODEL 1
REMARK VINA RESULT:      -8.4      0.000      0.000
REMARK  Name = 
REMARK  9 active torsions:
REMARK  status: ('A' for Active; 'I' for Inactive)
REMARK    1  A    between atoms: C_1  and  O_2
REMARK    2  A    between atoms: O_2  and  C_3
REMARK    3  A    between atoms: C_9  and  C_10
REMARK    4  A    between atoms: C_10  and  C_11
REMARK    5  A    between atoms: C_11  and  C_12
REMARK    6  A    between atoms: C_12  and  C_13
REMARK    7  A    between atoms: C_13  and  N_14
REMARK    8  A    between atoms: N_17  and  C_18
REMARK    9  A    between atoms: C_21  and  O_22
REMARK                            x       y       z     vdW  Elec       q    Type
REMARK                         _______ _______ _______ _____ _____    ______ ____
ROOT
ATOM      1  C   UNL     1       8.266   8.343  18.382  0.00  0.00    +0.000 C 
ENDROOT
BRANCH   1   2
ATOM      2  C   UNL     1       8.720   9.725  17.922  0.00  0.00    +0.000 C 
BRANCH   2   3
ATOM      3  C   UNL     1       9.391  10.429  19.106  0.00  0.00    +0.000 C 
BRANCH   3  10
ATOM      4  C   UNL     1       8.912  14.989  18.134  0.00  0.00    +0.000 A 
ATOM      5  C   UNL     1      10.120  15.581  17.771  0.00  0.00    +0.000 A 
ATOM      6  C   UNL     1      11.307  14.838  17.723  0.00  0.00    +0.000 A 
ATOM      7  C   UNL     1      11.240  13.480  18.052  0.00  0.00    +0.000 A 
ATOM      8  N   UNL     1      12.230  12.527  18.105  0.00  0.00    +0.000 N 
ATOM      9  C   UNL     1      11.708  11.323  18.488  0.00  0.00    +0.000 A 
ATOM     10  C   UNL     1      10.351  11.483  18.681  0.00  0.00    +0.000 A 
ATOM     11  C   UNL     1      10.050  12.856  18.419  0.00  0.00    +0.000 A 
ATOM     12  C   UNL     1       8.872  13.629  18.466  0.00  0.00    +0.000 A 
ATOM     13  H   UNL     1      13.204  12.702  17.903  0.00  0.00    +0.000 HD
BRANCH   4  15
ATOM     14  C   UNL     1       7.044  15.532  19.492  0.00  0.00    +0.000 C 
ATOM     15  O   UNL     1       7.708  15.633  18.238  0.00  0.00    +0.000 OA
ENDBRANCH   4  15
ENDBRANCH   3  10
ENDBRANCH   2   3
ENDBRANCH   1   2
BRANCH   1  16
ATOM     16  C   UNL     1       7.404   7.591  17.363  0.00  0.00    +0.000 C 
BRANCH  16  17
ATOM     17  N   UNL     1       7.660   6.143  17.453  0.00  0.00    +0.000 NA
ATOM     18  C   UNL     1       7.257   5.550  18.751  0.00  0.00    +0.000 C 
ATOM     19  C   UNL     1       5.734   5.504  18.993  0.00  0.00    +0.000 C 
ATOM     20  N   UNL     1       5.098   4.752  17.905  0.00  0.00    +0.000 N 
ATOM     21  C   UNL     1       5.433   5.219  16.544  0.00  0.00    +0.000 C 
ATOM     22  C   UNL     1       6.967   5.390  16.380  0.00  0.00    +0.000 C 
BRANCH  20  23
ATOM     23  C   UNL     1       3.934   4.042  18.133  0.00  0.00    +0.000 A 
ATOM     24  C   UNL     1       3.927   2.672  18.442  0.00  0.00    +0.000 A 
ATOM     25  C   UNL     1       2.737   1.944  18.557  0.00  0.00    +0.000 A 
ATOM     26  C   UNL     1       1.523   2.588  18.362  0.00  0.00    +0.000 A 
ATOM     27  C   UNL     1       1.487   3.943  18.078  0.00  0.00    +0.000 A 
ATOM     28  C   UNL     1       2.680   4.660  17.968  0.00  0.00    +0.000 A 
BRANCH  26  29
ATOM     29  O   UNL     1       0.340   1.918  18.433  0.00  0.00    +0.000 OA
ATOM     30  H   UNL     1      -0.034   1.858  17.540  0.00  0.00    +0.000 HD
ENDBRANCH  26  29
ENDBRANCH  20  23
ENDBRANCH  16  17
ENDBRANCH   1  16
TORSDOF 8
ENDMDL
MODEL 2
REMARK VINA RESULT:      -8.1      1.212      1.254
REMARK  Name = 
REMARK  9 active torsions:
REMARK  status: ('A' for Active; 'I' for Inactive)
REMARK    1  A    between atoms: C_1  and  O_2
REMARK    2  A    between atoms: O_2  and  C_3
REMARK    3  A    between atoms: C_9  and  C_10
REMARK    4  A    between atoms: C_10  and  C_11
REMARK    5  A    between atoms: C_11  and  C_12
REMARK    6  A    between atoms: C_12  and  C_13
REMARK    7  A    between atoms: C_13  and  N_14
REMARK    8  A    between atoms: N_17  and  C_18
REMARK    9  A    between atoms: C_21  and  O_22
REMARK                            x       y       z     vdW  Elec       q    Type
REMARK                         _______ _______ _______ _____ _____    ______ ____
ROOT
ATOM      1  C   UNL     1       8.002   8.643  17.713  0.00  0.00    +0.000 C 
ENDROOT
BRANCH   1   2
ATOM      2  C   UNL     1       8.797   9.589  18.608  0.00  0.00    +0.000 C 
BRANCH   2   3
ATOM      3  C   UNL     1       8.747  10.991  17.992  0.00  0.00    +0.000 C 
BRANCH   3  10
ATOM      4  C   UNL     1       9.723  15.447  19.067  0.00  0.00    +0.000 A 
ATOM      5  C   UNL     1      11.095  15.692  19.109  0.00  0.00    +0.000 A 
ATOM      6  C   UNL     1      12.022  14.673  18.849  0.00  0.00    +0.000 A 
ATOM      7  C   UNL     1      11.525  13.402  18.545  0.00  0.00    +0.000 A 
ATOM      8  N   UNL     1      12.190  12.230  18.267  0.00  0.00    +0.000 N 
ATOM      9  C   UNL     1      11.295  11.221  18.038  0.00  0.00    +0.000 A 
ATOM     10  C   UNL     1      10.022  11.739  18.158  0.00  0.00    +0.000 A 
ATOM     11  C   UNL     1      10.162  13.122  18.494  0.00  0.00    +0.000 A 
ATOM     12  C   UNL     1       9.251  14.163  18.767  0.00  0.00    +0.000 A 
ATOM     13  H   UNL     1      13.194  12.132  18.251  0.00  0.00    +0.000 HD
BRANCH   4  15
ATOM     14  C   UNL     1       8.605  17.430  18.401  0.00  0.00    +0.000 C 
ATOM     15  O   UNL     1       8.741  16.364  19.332  0.00  0.00    +0.000 OA
ENDBRANCH   4  15
ENDBRANCH   3  10
ENDBRANCH   2   3
ENDBRANCH   1   2
BRANCH   1  16
ATOM     16  C   UNL     1       7.912   7.207  18.235  0.00  0.00    +0.000 C 
BRANCH  16  17
ATOM     17  N   UNL     1       7.419   6.312  17.174  0.00  0.00    +0.000 NA
ATOM     18  C   UNL     1       7.329   4.892  17.592  0.00  0.00    +0.000 C 
ATOM     19  C   UNL     1       6.231   4.596  18.635  0.00  0.00    +0.000 C 
ATOM     20  N   UNL     1       4.933   5.021  18.099  0.00  0.00    +0.000 N 
ATOM     21  C   UNL     1       4.883   6.416  17.616  0.00  0.00    +0.000 C 
ATOM     22  C   UNL     1       6.082   6.721  16.680  0.00  0.00    +0.000 C 
BRANCH  20  23
ATOM     23  C   UNL     1       3.773   4.371  18.478  0.00  0.00    +0.000 A 
ATOM     24  C   UNL     1       3.207   3.326  17.729  0.00  0.00    +0.000 A 
ATOM     25  C   UNL     1       1.973   2.757  18.066  0.00  0.00    +0.000 A 
ATOM     26  C   UNL     1       1.283   3.233  19.172  0.00  0.00    +0.000 A 
ATOM     27  C   UNL     1       1.818   4.245  19.949  0.00  0.00    +0.000 A 
ATOM     28  C   UNL     1       3.050   4.805  19.605  0.00  0.00    +0.000 A 
BRANCH  26  29
ATOM     29  O   UNL     1       0.066   2.732  19.523  0.00  0.00    +0.000 OA
ATOM     30  H   UNL     1       0.146   1.771  19.626  0.00  0.00    +0.000 HD
ENDBRANCH  26  29
ENDBRANCH  20  23
ENDBRANCH  16  17
ENDBRANCH   1  16
TORSDOF 8
ENDMDL
MODEL 3
REMARK VINA RESULT:      -8.1      1.750      2.147
REMARK  Name = 
REMARK  9 active torsions:
REMARK  status: ('A' for Active; 'I' for Inactive)
REMARK    1  A    between atoms: C_1  and  O_2
REMARK    2  A    between atoms: O_2  and  C_3
REMARK    3  A    between atoms: C_9  and  C_10
REMARK    4  A    between atoms: C_10  and  C_11
REMARK    5  A    between atoms: C_11  and  C_12
REMARK    6  A    between atoms: C_12  and  C_13
REMARK    7  A    between atoms: C_13  and  N_14
REMARK    8  A    between atoms: N_17  and  C_18
REMARK    9  A    between atoms: C_21  and  O_22
REMARK                            x       y       z     vdW  Elec       q    Type
REMARK                         _______ _______ _______ _____ _____    ______ ____
ROOT
ATOM      1  C   UNL     1       8.324   8.464  18.427  0.00  0.00    +0.000 C 
ENDROOT
BRANCH   1   2
ATOM      2  C   UNL     1       8.452   9.964  18.180  0.00  0.00    +0.000 C 
BRANCH   2   3
ATOM      3  C   UNL     1       9.830  10.418  18.674  0.00  0.00    +0.000 C 
BRANCH   3  10
ATOM      4  C   UNL     1      11.073  14.885  19.356  0.00  0.00    +0.000 A 
ATOM      5  C   UNL     1      10.799  15.316  20.654  0.00  0.00    +0.000 A 
ATOM      6  C   UNL     1      10.218  14.458  21.597  0.00  0.00    +0.000 A 
ATOM      7  C   UNL     1       9.919  13.153  21.193  0.00  0.00    +0.000 A 
ATOM      8  N   UNL     1       9.340  12.117  21.889  0.00  0.00    +0.000 N 
ATOM      9  C   UNL     1       9.229  11.013  21.088  0.00  0.00    +0.000 A 
ATOM     10  C   UNL     1       9.751  11.325  19.850  0.00  0.00    +0.000 A 
ATOM     11  C   UNL     1      10.178  12.688  19.906  0.00  0.00    +0.000 A 
ATOM     12  C   UNL     1      10.758  13.574  18.975  0.00  0.00    +0.000 A 
ATOM     13  H   UNL     1       9.031  12.174  22.848  0.00  0.00    +0.000 HD
BRANCH   4  15
ATOM     14  C   UNL     1      11.887  17.009  18.683  0.00  0.00    +0.000 C 
ATOM     15  O   UNL     1      11.612  15.652  18.358  0.00  0.00    +0.000 OA
ENDBRANCH   4  15
ENDBRANCH   3  10
ENDBRANCH   2   3
ENDBRANCH   1   2
BRANCH   1  16
ATOM     16  C   UNL     1       7.375   7.746  17.464  0.00  0.00    +0.000 C 
BRANCH  16  17
ATOM     17  N   UNL     1       7.638   6.296  17.481  0.00  0.00    +0.000 NA
ATOM     18  C   UNL     1       7.264   5.642  18.758  0.00  0.00    +0.000 C 
ATOM     19  C   UNL     1       5.746   5.578  19.028  0.00  0.00    +0.000 C 
ATOM     20  N   UNL     1       5.091   4.874  17.919  0.00  0.00    +0.000 N 
ATOM     21  C   UNL     1       5.397   5.405  16.575  0.00  0.00    +0.000 C 
ATOM     22  C   UNL     1       6.926   5.590  16.388  0.00  0.00    +0.000 C 
BRANCH  20  23
ATOM     23  C   UNL     1       3.934   4.149  18.137  0.00  0.00    +0.000 A 
ATOM     24  C   UNL     1       3.944   2.792  18.500  0.00  0.00    +0.000 A 
ATOM     25  C   UNL     1       2.766   2.044  18.605  0.00  0.00    +0.000 A 
ATOM     26  C   UNL     1       1.547   2.654  18.346  0.00  0.00    +0.000 A 
ATOM     27  C   UNL     1       1.493   3.995  18.007  0.00  0.00    +0.000 A 
ATOM     28  C   UNL     1       2.674   4.733  17.907  0.00  0.00    +0.000 A 
BRANCH  26  29
ATOM     29  O   UNL     1       0.375   1.962  18.405  0.00  0.00    +0.000 OA
ATOM     30  H   UNL     1      -0.025   1.958  17.521  0.00  0.00    +0.000 HD
ENDBRANCH  26  29
ENDBRANCH  20  23
ENDBRANCH  16  17
ENDBRANCH   1  16
TORSDOF 8
ENDMDL
MODEL 4
REMARK VINA RESULT:      -8.0      0.931      1.191
REMARK  Name = 
REMARK  9 active torsions:
REMARK  status: ('A' for Active; 'I' for Inactive)
REMARK    1  A    between atoms: C_1  and  O_2
REMARK    2  A    between atoms: O_2  and  C_3
REMARK    3  A    between atoms: C_9  and  C_10
REMARK    4  A    between atoms: C_10  and  C_11
REMARK    5  A    between atoms: C_11  and  C_12
REMARK    6  A    between atoms: C_12  and  C_13
REMARK    7  A    between atoms: C_13  and  N_14
REMARK    8  A    between atoms: N_17  and  C_18
REMARK    9  A    between atoms: C_21  and  O_22
REMARK                            x       y       z     vdW  Elec       q    Type
REMARK                         _______ _______ _______ _____ _____    ______ ____
ROOT
ATOM      1  C   UNL     1       8.409   8.512  17.524  0.00  0.00    +0.000 C 
ENDROOT
BRANCH   1   2
ATOM      2  C   UNL     1       8.127   9.868  18.164  0.00  0.00    +0.000 C 
BRANCH   2   3
ATOM      3  C   UNL     1       9.312  10.231  19.064  0.00  0.00    +0.000 C 
BRANCH   3  10
ATOM      4  C   UNL     1       8.675  14.785  18.159  0.00  0.00    +0.000 A 
ATOM      5  C   UNL     1       9.803  15.373  17.589  0.00  0.00    +0.000 A 
ATOM      6  C   UNL     1      10.964  14.627  17.342  0.00  0.00    +0.000 A 
ATOM      7  C   UNL     1      10.953  13.272  17.687  0.00  0.00    +0.000 A 
ATOM      8  N   UNL     1      11.938  12.318  17.576  0.00  0.00    +0.000 N 
ATOM      9  C   UNL     1      11.489  11.116  18.052  0.00  0.00    +0.000 A 
ATOM     10  C   UNL     1      10.185  11.280  18.474  0.00  0.00    +0.000 A 
ATOM     11  C   UNL     1       9.844  12.652  18.258  0.00  0.00    +0.000 A 
ATOM     12  C   UNL     1       8.692  13.427  18.501  0.00  0.00    +0.000 A 
ATOM     13  H   UNL     1      12.862  12.489  17.209  0.00  0.00    +0.000 HD
BRANCH   4  15
ATOM     14  C   UNL     1       6.318  14.886  17.904  0.00  0.00    +0.000 C 
ATOM     15  O   UNL     1       7.507  15.432  18.464  0.00  0.00    +0.000 OA
ENDBRANCH   4  15
ENDBRANCH   3  10
ENDBRANCH   2   3
ENDBRANCH   1   2
BRANCH   1  16
ATOM     16  C   UNL     1       7.808   7.322  18.278  0.00  0.00    +0.000 C 
BRANCH  16  17
ATOM     17  N   UNL     1       7.494   6.233  17.337  0.00  0.00    +0.000 NA
ATOM     18  C   UNL     1       7.373   4.905  17.988  0.00  0.00    +0.000 C 
ATOM     19  C   UNL     1       6.142   4.746  18.903  0.00  0.00    +0.000 C 
ATOM     20  N   UNL     1       4.927   5.010  18.124  0.00  0.00    +0.000 N 
ATOM     21  C   UNL     1       4.918   6.294  17.395  0.00  0.00    +0.000 C 
ATOM     22  C   UNL     1       6.234   6.486  16.596  0.00  0.00    +0.000 C 
BRANCH  20  23
ATOM     23  C   UNL     1       3.738   4.382  18.448  0.00  0.00    +0.000 A 
ATOM     24  C   UNL     1       2.583   4.485  17.656  0.00  0.00    +0.000 A 
ATOM     25  C   UNL     1       1.358   3.939  18.058  0.00  0.00    +0.000 A 
ATOM     26  C   UNL     1       1.274   3.274  19.273  0.00  0.00    +0.000 A 
ATOM     27  C   UNL     1       2.396   3.132  20.072  0.00  0.00    +0.000 A 
ATOM     28  C   UNL     1       3.613   3.679  19.661  0.00  0.00    +0.000 A 
BRANCH  26  29
ATOM     29  O   UNL     1       0.099   2.752  19.722  0.00  0.00    +0.000 OA
ATOM     30  H   UNL     1       0.295   2.111  20.423  0.00  0.00    +0.000 HD
ENDBRANCH  26  29
ENDBRANCH  20  23
ENDBRANCH  16  17
ENDBRANCH   1  16
TORSDOF 8
ENDMDL
MODEL 5
REMARK VINA RESULT:      -7.9      1.517      1.886
REMARK  Name = 
REMARK  9 active torsions:
REMARK  status: ('A' for Active; 'I' for Inactive)
REMARK    1  A    between atoms: C_1  and  O_2
REMARK    2  A    between atoms: O_2  and  C_3
REMARK    3  A    between atoms: C_9  and  C_10
REMARK    4  A    between atoms: C_10  and  C_11
REMARK    5  A    between atoms: C_11  and  C_12
REMARK    6  A    between atoms: C_12  and  C_13
REMARK    7  A    between atoms: C_13  and  N_14
REMARK    8  A    between atoms: N_17  and  C_18
REMARK    9  A    between atoms: C_21  and  O_22
REMARK                            x       y       z     vdW  Elec       q    Type
REMARK                         _______ _______ _______ _____ _____    ______ ____
ROOT
ATOM      1  C   UNL     1       8.313   8.205  18.300  0.00  0.00    +0.000 C 
ENDROOT
BRANCH   1   2
ATOM      2  C   UNL     1       8.166   9.705  18.066  0.00  0.00    +0.000 C 
BRANCH   2   3
ATOM      3  C   UNL     1       9.549  10.351  18.200  0.00  0.00    +0.000 C 
BRANCH   3  10
ATOM      4  C   UNL     1      10.348  14.969  18.289  0.00  0.00    +0.000 A 
ATOM      5  C   UNL     1      10.311  15.486  19.584  0.00  0.00    +0.000 A 
ATOM      6  C   UNL     1      10.058  14.660  20.688  0.00  0.00    +0.000 A 
ATOM      7  C   UNL     1       9.842  13.300  20.449  0.00  0.00    +0.000 A 
ATOM      8  N   UNL     1       9.561  12.276  21.324  0.00  0.00    +0.000 N 
ATOM      9  C   UNL     1       9.416  11.098  20.643  0.00  0.00    +0.000 A 
ATOM     10  C   UNL     1       9.615  11.349  19.301  0.00  0.00    +0.000 A 
ATOM     11  C   UNL     1       9.872  12.749  19.170  0.00  0.00    +0.000 A 
ATOM     12  C   UNL     1      10.123  13.603  18.076  0.00  0.00    +0.000 A 
ATOM     13  H   UNL     1       9.462  12.388  22.322  0.00  0.00    +0.000 HD
BRANCH   4  15
ATOM     14  C   UNL     1      10.703  17.099  17.308  0.00  0.00    +0.000 C 
ATOM     15  O   UNL     1      10.559  15.694  17.147  0.00  0.00    +0.000 OA
ENDBRANCH   4  15
ENDBRANCH   3  10
ENDBRANCH   2   3
ENDBRANCH   1   2
BRANCH   1  16
ATOM     16  C   UNL     1       7.481   7.335  17.354  0.00  0.00    +0.000 C 
BRANCH  16  17
ATOM     17  N   UNL     1       7.683   5.909  17.668  0.00  0.00    +0.000 NA
ATOM     18  C   UNL     1       7.236   5.534  19.031  0.00  0.00    +0.000 C 
ATOM     19  C   UNL     1       5.708   5.576  19.242  0.00  0.00    +0.000 C 
ATOM     20  N   UNL     1       5.065   4.689  18.266  0.00  0.00    +0.000 N 
ATOM     21  C   UNL     1       5.440   4.932  16.859  0.00  0.00    +0.000 C 
ATOM     22  C   UNL     1       6.981   5.025  16.706  0.00  0.00    +0.000 C 
BRANCH  20  23
ATOM     23  C   UNL     1       3.872   4.060  18.573  0.00  0.00    +0.000 A 
ATOM     24  C   UNL     1       3.215   3.197  17.680  0.00  0.00    +0.000 A 
ATOM     25  C   UNL     1       1.953   2.660  17.961  0.00  0.00    +0.000 A 
ATOM     26  C   UNL     1       1.326   2.985  19.155  0.00  0.00    +0.000 A 
ATOM     27  C   UNL     1       1.949   3.815  20.071  0.00  0.00    +0.000 A 
ATOM     28  C   UNL     1       3.209   4.343  19.782  0.00  0.00    +0.000 A 
BRANCH  26  29
ATOM     29  O   UNL     1       0.086   2.513  19.461  0.00  0.00    +0.000 OA
ATOM     30  H   UNL     1       0.151   1.972  20.265  0.00  0.00    +0.000 HD
ENDBRANCH  26  29
ENDBRANCH  20  23
ENDBRANCH  16  17
ENDBRANCH   1  16
TORSDOF 8
ENDMDL
MODEL 6
REMARK VINA RESULT:      -7.9      2.364      2.689
REMARK  Name = 
REMARK  9 active torsions:
REMARK  status: ('A' for Active; 'I' for Inactive)
REMARK    1  A    between atoms: C_1  and  O_2
REMARK    2  A    between atoms: O_2  and  C_3
REMARK    3  A    between atoms: C_9  and  C_10
REMARK    4  A    between atoms: C_10  and  C_11
REMARK    5  A    between atoms: C_11  and  C_12
REMARK    6  A    between atoms: C_12  and  C_13
REMARK    7  A    between atoms: C_13  and  N_14
REMARK    8  A    between atoms: N_17  and  C_18
REMARK    9  A    between atoms: C_21  and  O_22
REMARK                            x       y       z     vdW  Elec       q    Type
REMARK                         _______ _______ _______ _____ _____    ______ ____
ROOT
ATOM      1  C   UNL     1       8.501   8.406  17.849  0.00  0.00    +0.000 C 
ENDROOT
BRANCH   1   2
ATOM      2  C   UNL     1       8.289   9.866  18.240  0.00  0.00    +0.000 C 
BRANCH   2   3
ATOM      3  C   UNL     1       9.358  10.249  19.269  0.00  0.00    +0.000 C 
BRANCH   3  10
ATOM      4  C   UNL     1       8.728  13.029  22.990  0.00  0.00    +0.000 A 
ATOM      5  C   UNL     1       8.948  14.372  22.688  0.00  0.00    +0.000 A 
ATOM      6  C   UNL     1       9.314  14.775  21.397  0.00  0.00    +0.000 A 
ATOM      7  C   UNL     1       9.453  13.785  20.419  0.00  0.00    +0.000 A 
ATOM      8  N   UNL     1       9.811  13.886  19.095  0.00  0.00    +0.000 N 
ATOM      9  C   UNL     1       9.828  12.648  18.514  0.00  0.00    +0.000 A 
ATOM     10  C   UNL     1       9.466  11.719  19.468  0.00  0.00    +0.000 A 
ATOM     11  C   UNL     1       9.240  12.434  20.685  0.00  0.00    +0.000 A 
ATOM     12  C   UNL     1       8.879  12.055  21.994  0.00  0.00    +0.000 A 
ATOM     13  H   UNL     1      10.042  14.751  18.629  0.00  0.00    +0.000 HD
BRANCH   4  15
ATOM     14  C   UNL     1       7.307  11.617  24.260  0.00  0.00    +0.000 C 
ATOM     15  O   UNL     1       8.395  12.532  24.222  0.00  0.00    +0.000 OA
ENDBRANCH   4  15
ENDBRANCH   3  10
ENDBRANCH   2   3
ENDBRANCH   1   2
BRANCH   1  16
ATOM     16  C   UNL     1       7.228   7.681  17.405  0.00  0.00    +0.000 C 
BRANCH  16  17
ATOM     17  N   UNL     1       7.479   6.233  17.302  0.00  0.00    +0.000 NA
ATOM     18  C   UNL     1       7.197   5.492  18.555  0.00  0.00    +0.000 C 
ATOM     19  C   UNL     1       5.704   5.414  18.934  0.00  0.00    +0.000 C 
ATOM     20  N   UNL     1       4.961   4.792  17.832  0.00  0.00    +0.000 N 
ATOM     21  C   UNL     1       5.168   5.414  16.509  0.00  0.00    +0.000 C 
ATOM     22  C   UNL     1       6.680   5.608  16.220  0.00  0.00    +0.000 C 
BRANCH  20  23
ATOM     23  C   UNL     1       3.818   4.056  18.087  0.00  0.00    +0.000 A 
ATOM     24  C   UNL     1       3.850   2.692  18.420  0.00  0.00    +0.000 A 
ATOM     25  C   UNL     1       2.680   1.936  18.562  0.00  0.00    +0.000 A 
ATOM     26  C   UNL     1       1.448   2.546  18.370  0.00  0.00    +0.000 A 
ATOM     27  C   UNL     1       1.374   3.893  18.063  0.00  0.00    +0.000 A 
ATOM     28  C   UNL     1       2.547   4.638  17.926  0.00  0.00    +0.000 A 
BRANCH  26  29
ATOM     29  O   UNL     1       0.283   1.846  18.468  0.00  0.00    +0.000 OA
ATOM     30  H   UNL     1       0.473   0.988  18.878  0.00  0.00    +0.000 HD
ENDBRANCH  26  29
ENDBRANCH  20  23
ENDBRANCH  16  17
ENDBRANCH   1  16
TORSDOF 8
ENDMDL
MODEL 7
REMARK VINA RESULT:      -7.8      5.482      8.213
REMARK  Name = 
REMARK  9 active torsions:
REMARK  status: ('A' for Active; 'I' for Inactive)
REMARK    1  A    between atoms: C_1  and  O_2
REMARK    2  A    between atoms: O_2  and  C_3
REMARK    3  A    between atoms: C_9  and  C_10
REMARK    4  A    between atoms: C_10  and  C_11
REMARK    5  A    between atoms: C_11  and  C_12
REMARK    6  A    between atoms: C_12  and  C_13
REMARK    7  A    between atoms: C_13  and  N_14
REMARK    8  A    between atoms: N_17  and  C_18
REMARK    9  A    between atoms: C_21  and  O_22
REMARK                            x       y       z     vdW  Elec       q    Type
REMARK                         _______ _______ _______ _____ _____    ______ ____
ROOT
ATOM      1  C   UNL     1       1.512   3.272  20.555  0.00  0.00    +0.000 C 
ENDROOT
BRANCH   1   2
ATOM      2  C   UNL     1       0.908   4.665  20.401  0.00  0.00    +0.000 C 
BRANCH   2   3
ATOM      3  C   UNL     1       1.980   5.697  20.766  0.00  0.00    +0.000 C 
BRANCH   3  10
ATOM      4  C   UNL     1       0.277  10.051  21.100  0.00  0.00    +0.000 A 
ATOM      5  C   UNL     1       0.539  10.809  19.959  0.00  0.00    +0.000 A 
ATOM      6  C   UNL     1       1.238  10.267  18.871  0.00  0.00    +0.000 A 
ATOM      7  C   UNL     1       1.665   8.939  18.969  0.00  0.00    +0.000 A 
ATOM      8  N   UNL     1       2.373   8.165  18.079  0.00  0.00    +0.000 N 
ATOM      9  C   UNL     1       2.581   6.916  18.598  0.00  0.00    +0.000 A 
ATOM     10  C   UNL     1       1.993   6.865  19.845  0.00  0.00    +0.000 A 
ATOM     11  C   UNL     1       1.422   8.152  20.092  0.00  0.00    +0.000 A 
ATOM     12  C   UNL     1       0.722   8.725  21.174  0.00  0.00    +0.000 A 
ATOM     13  H   UNL     1       2.702   8.483  17.179  0.00  0.00    +0.000 HD
BRANCH   4  15
ATOM     14  C   UNL     1      -0.276   9.668  23.374  0.00  0.00    +0.000 C 
ATOM     15  O   UNL     1      -0.370  10.496  22.221  0.00  0.00    +0.000 OA
ENDBRANCH   4  15
ENDBRANCH   3  10
ENDBRANCH   2   3
ENDBRANCH   1   2
BRANCH   1  16
ATOM     16  C   UNL     1       1.338   2.372  19.329  0.00  0.00    +0.000 C 
BRANCH  16  17
ATOM     17  N   UNL     1       2.627   1.757  18.965  0.00  0.00    +0.000 NA
ATOM     18  C   UNL     1       3.073   2.086  17.590  0.00  0.00    +0.000 C 
ATOM     19  C   UNL     1       3.482   3.558  17.380  0.00  0.00    +0.000 C 
ATOM     20  N   UNL     1       4.553   3.898  18.324  0.00  0.00    +0.000 N 
ATOM     21  C   UNL     1       4.256   3.597  19.740  0.00  0.00    +0.000 C 
ATOM     22  C   UNL     1       3.712   2.153  19.896  0.00  0.00    +0.000 C 
BRANCH  20  23
ATOM     23  C   UNL     1       5.498   4.852  17.996  0.00  0.00    +0.000 A 
ATOM     24  C   UNL     1       6.576   5.176  18.836  0.00  0.00    +0.000 A 
ATOM     25  C   UNL     1       7.457   6.223  18.542  0.00  0.00    +0.000 A 
ATOM     26  C   UNL     1       7.268   6.967  17.385  0.00  0.00    +0.000 A 
ATOM     27  C   UNL     1       6.231   6.665  16.520  0.00  0.00    +0.000 A 
ATOM     28  C   UNL     1       5.359   5.617  16.823  0.00  0.00    +0.000 A 
BRANCH  26  29
ATOM     29  O   UNL     1       8.080   8.014  17.070  0.00  0.00    +0.000 OA
ATOM     30  H   UNL     1       7.535   8.814  16.992  0.00  0.00    +0.000 HD
ENDBRANCH  26  29
ENDBRANCH  20  23
ENDBRANCH  16  17
ENDBRANCH   1  16
TORSDOF 8
ENDMDL
MODEL 8
REMARK VINA RESULT:      -7.8      1.738      1.791
REMARK  Name = 
REMARK  9 active torsions:
REMARK  status: ('A' for Active; 'I' for Inactive)
REMARK    1  A    between atoms: C_1  and  O_2
REMARK    2  A    between atoms: O_2  and  C_3
REMARK    3  A    between atoms: C_9  and  C_10
REMARK    4  A    between atoms: C_10  and  C_11
REMARK    5  A    between atoms: C_11  and  C_12
REMARK    6  A    between atoms: C_12  and  C_13
REMARK    7  A    between atoms: C_13  and  N_14
REMARK    8  A    between atoms: N_17  and  C_18
REMARK    9  A    between atoms: C_21  and  O_22
REMARK                            x       y       z     vdW  Elec       q    Type
REMARK                         _______ _______ _______ _____ _____    ______ ____
ROOT
ATOM      1  C   UNL     1       8.099   8.514  17.637  0.00  0.00    +0.000 C 
ENDROOT
BRANCH   1   2
ATOM      2  C   UNL     1       8.736   9.532  18.578  0.00  0.00    +0.000 C 
BRANCH   2   3
ATOM      3  C   UNL     1       8.637  10.916  17.928  0.00  0.00    +0.000 C 
BRANCH   3  10
ATOM      4  C   UNL     1       9.299  14.403  20.989  0.00  0.00    +0.000 A 
ATOM      5  C   UNL     1      10.588  14.931  20.918  0.00  0.00    +0.000 A 
ATOM      6  C   UNL     1      11.529  14.427  20.010  0.00  0.00    +0.000 A 
ATOM      7  C   UNL     1      11.133  13.376  19.176  0.00  0.00    +0.000 A 
ATOM      8  N   UNL     1      11.838  12.686  18.218  0.00  0.00    +0.000 N 
ATOM      9  C   UNL     1      11.050  11.722  17.652  0.00  0.00    +0.000 A 
ATOM     10  C   UNL     1       9.803  11.785  18.240  0.00  0.00    +0.000 A 
ATOM     11  C   UNL     1       9.854  12.825  19.220  0.00  0.00    +0.000 A 
ATOM     12  C   UNL     1       8.929  13.346  20.148  0.00  0.00    +0.000 A 
ATOM     13  H   UNL     1      12.804  12.861  17.981  0.00  0.00    +0.000 HD
BRANCH   4  15
ATOM     14  C   UNL     1       8.282  14.145  23.116  0.00  0.00    +0.000 C 
ATOM     15  O   UNL     1       8.319  14.806  21.858  0.00  0.00    +0.000 OA
ENDBRANCH   4  15
ENDBRANCH   3  10
ENDBRANCH   2   3
ENDBRANCH   1   2
BRANCH   1  16
ATOM     16  C   UNL     1       7.893   7.128  18.255  0.00  0.00    +0.000 C 
BRANCH  16  17
ATOM     17  N   UNL     1       7.442   6.177  17.224  0.00  0.00    +0.000 NA
ATOM     18  C   UNL     1       7.342   4.780  17.712  0.00  0.00    +0.000 C 
ATOM     19  C   UNL     1       6.208   4.532  18.729  0.00  0.00    +0.000 C 
ATOM     20  N   UNL     1       4.929   4.922  18.125  0.00  0.00    +0.000 N 
ATOM     21  C   UNL     1       4.891   6.290  17.570  0.00  0.00    +0.000 C 
ATOM     22  C   UNL     1       6.122   6.552  16.662  0.00  0.00    +0.000 C 
BRANCH  20  23
ATOM     23  C   UNL     1       3.758   4.285  18.496  0.00  0.00    +0.000 A 
ATOM     24  C   UNL     1       3.057   3.423  17.638  0.00  0.00    +0.000 A 
ATOM     25  C   UNL     1       1.816   2.878  17.987  0.00  0.00    +0.000 A 
ATOM     26  C   UNL     1       1.256   3.193  19.217  0.00  0.00    +0.000 A 
ATOM     27  C   UNL     1       1.926   4.022  20.100  0.00  0.00    +0.000 A 
ATOM     28  C   UNL     1       3.165   4.558  19.742  0.00  0.00    +0.000 A 
BRANCH  26  29
ATOM     29  O   UNL     1       0.037   2.713  19.591  0.00  0.00    +0.000 OA
ATOM     30  H   UNL     1      -0.408   3.387  20.129  0.00  0.00    +0.000 HD
ENDBRANCH  26  29
ENDBRANCH  20  23
ENDBRANCH  16  17
ENDBRANCH   1  16
TORSDOF 8
ENDMDL
MODEL 9
REMARK VINA RESULT:      -7.8      6.312      7.957
REMARK  Name = 
REMARK  9 active torsions:
REMARK  status: ('A' for Active; 'I' for Inactive)
REMARK    1  A    between atoms: C_1  and  O_2
REMARK    2  A    between atoms: O_2  and  C_3
REMARK    3  A    between atoms: C_9  and  C_10
REMARK    4  A    between atoms: C_10  and  C_11
REMARK    5  A    between atoms: C_11  and  C_12
REMARK    6  A    between atoms: C_12  and  C_13
REMARK    7  A    between atoms: C_13  and  N_14
REMARK    8  A    between atoms: N_17  and  C_18
REMARK    9  A    between atoms: C_21  and  O_22
REMARK                            x       y       z     vdW  Elec       q    Type
REMARK                         _______ _______ _______ _____ _____    ______ ____
ROOT
ATOM      1  C   UNL     1       1.067   3.668  20.073  0.00  0.00    +0.000 C 
ENDROOT
BRANCH   1   2
ATOM      2  C   UNL     1       0.767   5.116  20.447  0.00  0.00    +0.000 C 
BRANCH   2   3
ATOM      3  C   UNL     1       2.084   5.899  20.431  0.00  0.00    +0.000 C 
BRANCH   3  10
ATOM      4  C   UNL     1       0.681  10.342  20.946  0.00  0.00    +0.000 A 
ATOM      5  C   UNL     1       0.844  11.085  19.778  0.00  0.00    +0.000 A 
ATOM      6  C   UNL     1       1.373  10.506  18.617  0.00  0.00    +0.000 A 
ATOM      7  C   UNL     1       1.734   9.156  18.668  0.00  0.00    +0.000 A 
ATOM      8  N   UNL     1       2.283   8.345  17.703  0.00  0.00    +0.000 N 
ATOM      9  C   UNL     1       2.483   7.086  18.199  0.00  0.00    +0.000 A 
ATOM     10  C   UNL     1       2.050   7.066  19.509  0.00  0.00    +0.000 A 
ATOM     11  C   UNL     1       1.586   8.383  19.817  0.00  0.00    +0.000 A 
ATOM     12  C   UNL     1       1.057   8.992  20.973  0.00  0.00    +0.000 A 
ATOM     13  H   UNL     1       2.517   8.645  16.768  0.00  0.00    +0.000 HD
BRANCH   4  15
ATOM     14  C   UNL     1      -0.499  12.057  22.083  0.00  0.00    +0.000 C 
ATOM     15  O   UNL     1       0.201  10.820  22.136  0.00  0.00    +0.000 OA
ENDBRANCH   4  15
ENDBRANCH   3  10
ENDBRANCH   2   3
ENDBRANCH   1   2
BRANCH   1  16
ATOM     16  C   UNL     1       2.259   3.059  20.817  0.00  0.00    +0.000 C 
BRANCH  16  17
ATOM     17  N   UNL     1       2.933   2.063  19.965  0.00  0.00    +0.000 NA
ATOM     18  C   UNL     1       2.558   2.159  18.533  0.00  0.00    +0.000 C 
ATOM     19  C   UNL     1       3.073   3.424  17.816  0.00  0.00    +0.000 C 
ATOM     20  N   UNL     1       4.535   3.480  17.933  0.00  0.00    +0.000 N 
ATOM     21  C   UNL     1       5.056   3.369  19.310  0.00  0.00    +0.000 C 
ATOM     22  C   UNL     1       4.410   2.168  20.051  0.00  0.00    +0.000 C 
BRANCH  20  23
ATOM     23  C   UNL     1       5.293   4.083  16.946  0.00  0.00    +0.000 A 
ATOM     24  C   UNL     1       4.918   4.082  15.592  0.00  0.00    +0.000 A 
ATOM     25  C   UNL     1       5.752   4.596  14.592  0.00  0.00    +0.000 A 
ATOM     26  C   UNL     1       6.987   5.125  14.940  0.00  0.00    +0.000 A 
ATOM     27  C   UNL     1       7.383   5.165  16.266  0.00  0.00    +0.000 A 
ATOM     28  C   UNL     1       6.542   4.651  17.256  0.00  0.00    +0.000 A 
BRANCH  26  29
ATOM     29  O   UNL     1       7.846   5.609  14.001  0.00  0.00    +0.000 OA
ATOM     30  H   UNL     1       8.094   4.883  13.407  0.00  0.00    +0.000 HD
ENDBRANCH  26  29
ENDBRANCH  20  23
ENDBRANCH  16  17
ENDBRANCH   1  16
TORSDOF 8
ENDMDL
