MODEL 1
REMARK VINA RESULT:      -9.2      0.000      0.000
REMARK  Name = 
REMARK  7 active torsions:
REMARK  status: ('A' for Active; 'I' for Inactive)
REMARK    1  A    between atoms: C_1  and  C_2
REMARK    2  A    between atoms: C_2  and  C_3
REMARK    3  A    between atoms: C_2  and  O_4
REMARK    4  A    between atoms: O_4  and  C_5
REMARK    5  A    between atoms: C_9  and  C_10
REMARK    6  A    between atoms: C_16  and  C_17
REMARK    7  A    between atoms: N_25  and  C_26
REMARK                            x       y       z     vdW  Elec       q    Type
REMARK                         _______ _______ _______ _____ _____    ______ ____
ROOT
ATOM      1  C   UNL     1       4.278   3.941  17.107  0.00  0.00    +0.000 A 
ATOM      2  C   UNL     1       3.768   2.594  17.364  0.00  0.00    +0.000 A 
ATOM      3  C   UNL     1       2.875   2.352  18.341  0.00  0.00    +0.000 A 
ATOM      4  C   UNL     1       2.416   3.422  19.152  0.00  0.00    +0.000 A 
ATOM      5  N   UNL     1       1.614   3.458  20.189  0.00  0.00    +0.000 NA
ATOM      6  N   UNL     1       1.460   4.773  20.546  0.00  0.00    +0.000 NA
ATOM      7  C   UNL     1       2.156   5.535  19.714  0.00  0.00    +0.000 A 
ATOM      8  N   UNL     1       2.853   4.707  18.846  0.00  0.00    +0.000 N 
ATOM      9  C   UNL     1       3.777   4.964  17.831  0.00  0.00    +0.000 A 
ENDROOT
BRANCH   7  10
ATOM     10  C   UNL     1       1.985   6.986  19.592  0.00  0.00    +0.000 A 
ATOM     11  C   UNL     1       2.192   7.713  18.411  0.00  0.00    +0.000 A 
ATOM     12  C   UNL     1       1.836   9.072  18.306  0.00  0.00    +0.000 A 
ATOM     13  C   UNL     1       1.261   9.672  19.436  0.00  0.00    +0.000 A 
ATOM     14  C   UNL     1       1.119   8.992  20.644  0.00  0.00    +0.000 A 
ATOM     15  C   UNL     1       1.514   7.655  20.735  0.00  0.00    +0.000 A 
ATOM     16  N   UNL     1       0.540   9.780  21.604  0.00  0.00    +0.000 NA
ATOM     17  C   UNL     1       0.288  10.914  20.998  0.00  0.00    +0.000 A 
ATOM     18  N   UNL     1       0.715  10.905  19.699  0.00  0.00    +0.000 N 
ATOM     19  C   UNL     1       0.522  12.008  18.789  0.00  0.00    +0.000 C 
ENDBRANCH   7  10
BRANCH   1  24
ATOM     20  C   UNL     1       6.106   4.162  13.830  0.00  0.00    +0.000 A 
ATOM     21  C   UNL     1       7.315   4.732  14.235  0.00  0.00    +0.000 A 
ATOM     22  C   UNL     1       7.527   5.071  15.572  0.00  0.00    +0.000 A 
ATOM     23  C   UNL     1       6.534   4.825  16.519  0.00  0.00    +0.000 A 
ATOM     24  C   UNL     1       5.333   4.225  16.127  0.00  0.00    +0.000 A 
ATOM     25  C   UNL     1       5.124   3.891  14.780  0.00  0.00    +0.000 A 
BRANCH  20  26
ATOM     26  O   UNL     1       6.014   3.842  12.506  0.00  0.00    +0.000 OA
BRANCH  26  28
ATOM     27  C   UNL     1       4.055   3.322  11.254  0.00  0.00    +0.000 C 
ATOM     28  C   UNL     1       5.149   2.752  12.153  0.00  0.00    +0.000 C 
ATOM     29  C   UNL     1       5.965   1.707  11.401  0.00  0.00    +0.000 C 
ENDBRANCH  26  28
ENDBRANCH  20  26
ENDBRANCH   1  24
TORSDOF 4
ENDMDL
MODEL 2
REMARK VINA RESULT:      -9.1      4.315      9.603
REMARK  Name = 
REMARK  7 active torsions:
REMARK  status: ('A' for Active; 'I' for Inactive)
REMARK    1  A    between atoms: C_1  and  C_2
REMARK    2  A    between atoms: C_2  and  C_3
REMARK    3  A    between atoms: C_2  and  O_4
REMARK    4  A    between atoms: O_4  and  C_5
REMARK    5  A    between atoms: C_9  and  C_10
REMARK    6  A    between atoms: C_16  and  C_17
REMARK    7  A    between atoms: N_25  and  C_26
REMARK                            x       y       z     vdW  Elec       q    Type
REMARK                         _______ _______ _______ _____ _____    ______ ____
ROOT
ATOM      1  C   UNL     1      -1.340  10.689  19.097  0.00  0.00    +0.000 A 
ATOM      2  C   UNL     1      -1.287  11.762  20.089  0.00  0.00    +0.000 A 
ATOM      3  C   UNL     1      -0.520  11.669  21.191  0.00  0.00    +0.000 A 
ATOM      4  C   UNL     1       0.256  10.500  21.406  0.00  0.00    +0.000 A 
ATOM      5  N   UNL     1       1.026  10.127  22.400  0.00  0.00    +0.000 NA
ATOM      6  N   UNL     1       1.592   8.926  22.056  0.00  0.00    +0.000 NA
ATOM      7  C   UNL     1       1.177   8.579  20.847  0.00  0.00    +0.000 A 
ATOM      8  N   UNL     1       0.253   9.522  20.418  0.00  0.00    +0.000 N 
ATOM      9  C   UNL     1      -0.540   9.616  19.272  0.00  0.00    +0.000 A 
ENDROOT
BRANCH   7  10
ATOM     10  C   UNL     1       1.802   7.533  20.033  0.00  0.00    +0.000 A 
ATOM     11  C   UNL     1       2.408   7.752  18.787  0.00  0.00    +0.000 A 
ATOM     12  C   UNL     1       3.151   6.746  18.139  0.00  0.00    +0.000 A 
ATOM     13  C   UNL     1       3.264   5.511  18.793  0.00  0.00    +0.000 A 
ATOM     14  C   UNL     1       2.605   5.245  19.992  0.00  0.00    +0.000 A 
ATOM     15  C   UNL     1       1.843   6.247  20.598  0.00  0.00    +0.000 A 
ATOM     16  N   UNL     1       2.858   3.974  20.438  0.00  0.00    +0.000 NA
ATOM     17  C   UNL     1       3.689   3.470  19.559  0.00  0.00    +0.000 A 
ATOM     18  N   UNL     1       3.952   4.348  18.544  0.00  0.00    +0.000 N 
ATOM     19  C   UNL     1       4.870   4.068  17.467  0.00  0.00    +0.000 C 
ENDBRANCH   7  10
BRANCH   1  24
ATOM     20  C   UNL     1      -4.291  11.517  16.921  0.00  0.00    +0.000 A 
ATOM     21  C   UNL     1      -4.008  10.757  15.784  0.00  0.00    +0.000 A 
ATOM     22  C   UNL     1      -2.841   9.995  15.713  0.00  0.00    +0.000 A 
ATOM     23  C   UNL     1      -1.955   9.974  16.789  0.00  0.00    +0.000 A 
ATOM     24  C   UNL     1      -2.247  10.707  17.944  0.00  0.00    +0.000 A 
ATOM     25  C   UNL     1      -3.420  11.475  18.008  0.00  0.00    +0.000 A 
BRANCH  20  26
ATOM     26  O   UNL     1      -5.471  12.202  16.899  0.00  0.00    +0.000 OA
BRANCH  26  28
ATOM     27  C   UNL     1      -7.349  13.264  17.909  0.00  0.00    +0.000 C 
ATOM     28  C   UNL     1      -6.215  12.266  18.125  0.00  0.00    +0.000 C 
ATOM     29  C   UNL     1      -6.776  10.881  18.429  0.00  0.00    +0.000 C 
ENDBRANCH  26  28
ENDBRANCH  20  26
ENDBRANCH   1  24
TORSDOF 4
ENDMDL
MODEL 3
REMARK VINA RESULT:      -8.9      1.724      3.247
REMARK  Name = 
REMARK  7 active torsions:
REMARK  status: ('A' for Active; 'I' for Inactive)
REMARK    1  A    between atoms: C_1  and  C_2
REMARK    2  A    between atoms: C_2  and  C_3
REMARK    3  A    between atoms: C_2  and  O_4
REMARK    4  A    between atoms: O_4  and  C_5
REMARK    5  A    between atoms: C_9  and  C_10
REMARK    6  A    between atoms: C_16  and  C_17
REMARK    7  A    between atoms: N_25  and  C_26
REMARK                            x       y       z     vdW  Elec       q    Type
REMARK                         _______ _______ _______ _____ _____    ______ ____
ROOT
ATOM      1  C   UNL     1       3.886   3.928  17.367  0.00  0.00    +0.000 A 
ATOM      2  C   UNL     1       3.279   2.598  17.339  0.00  0.00    +0.000 A 
ATOM      3  C   UNL     1       2.294   2.253  18.189  0.00  0.00    +0.000 A 
ATOM      4  C   UNL     1       1.832   3.195  19.144  0.00  0.00    +0.000 A 
ATOM      5  N   UNL     1       0.949   3.106  20.109  0.00  0.00    +0.000 NA
ATOM      6  N   UNL     1       0.842   4.345  20.686  0.00  0.00    +0.000 NA
ATOM      7  C   UNL     1       1.648   5.189  20.059  0.00  0.00    +0.000 A 
ATOM      8  N   UNL     1       2.367   4.478  19.108  0.00  0.00    +0.000 N 
ATOM      9  C   UNL     1       3.387   4.842  18.227  0.00  0.00    +0.000 A 
ENDROOT
BRANCH   7  10
ATOM     10  C   UNL     1       1.573   6.647  20.190  0.00  0.00    +0.000 A 
ATOM     11  C   UNL     1       1.999   7.555  19.209  0.00  0.00    +0.000 A 
ATOM     12  C   UNL     1       1.734   8.934  19.312  0.00  0.00    +0.000 A 
ATOM     13  C   UNL     1       1.021   9.367  20.440  0.00  0.00    +0.000 A 
ATOM     14  C   UNL     1       0.657   8.495  21.465  0.00  0.00    +0.000 A 
ATOM     15  C   UNL     1       0.964   7.136  21.358  0.00  0.00    +0.000 A 
ATOM     16  N   UNL     1      -0.024   9.143  22.463  0.00  0.00    +0.000 NA
ATOM     17  C   UNL     1      -0.120  10.383  22.051  0.00  0.00    +0.000 A 
ATOM     18  N   UNL     1       0.504  10.572  20.850  0.00  0.00    +0.000 N 
ATOM     19  C   UNL     1       0.512  11.831  20.146  0.00  0.00    +0.000 C 
ENDBRANCH   7  10
BRANCH   1  24
ATOM     20  C   UNL     1       6.947   5.747  16.161  0.00  0.00    +0.000 A 
ATOM     21  C   UNL     1       7.217   5.062  14.975  0.00  0.00    +0.000 A 
ATOM     22  C   UNL     1       6.418   3.988  14.579  0.00  0.00    +0.000 A 
ATOM     23  C   UNL     1       5.330   3.602  15.361  0.00  0.00    +0.000 A 
ATOM     24  C   UNL     1       5.035   4.304  16.534  0.00  0.00    +0.000 A 
ATOM     25  C   UNL     1       5.844   5.381  16.930  0.00  0.00    +0.000 A 
BRANCH  20  26
ATOM     26  O   UNL     1       7.770   6.800  16.440  0.00  0.00    +0.000 OA
BRANCH  26  28
ATOM     27  C   UNL     1       8.172   6.691  18.785  0.00  0.00    +0.000 C 
ATOM     28  C   UNL     1       7.536   7.509  17.665  0.00  0.00    +0.000 C 
ATOM     29  C   UNL     1       8.196   8.881  17.568  0.00  0.00    +0.000 C 
ENDBRANCH  26  28
ENDBRANCH  20  26
ENDBRANCH   1  24
TORSDOF 4
ENDMDL
MODEL 4
REMARK VINA RESULT:      -8.6      0.911      1.150
REMARK  Name = 
REMARK  7 active torsions:
REMARK  status: ('A' for Active; 'I' for Inactive)
REMARK    1  A    between atoms: C_1  and  C_2
REMARK    2  A    between atoms: C_2  and  C_3
REMARK    3  A    between atoms: C_2  and  O_4
REMARK    4  A    between atoms: O_4  and  C_5
REMARK    5  A    between atoms: C_9  and  C_10
REMARK    6  A    between atoms: C_16  and  C_17
REMARK    7  A    between atoms: N_25  and  C_26
REMARK                            x       y       z     vdW  Elec       q    Type
REMARK                         _______ _______ _______ _____ _____    ______ ____
ROOT
ATOM      1  C   UNL     1       4.032   4.514  17.635  0.00  0.00    +0.000 A 
ATOM      2  C   UNL     1       3.515   3.205  18.032  0.00  0.00    +0.000 A 
ATOM      3  C   UNL     1       2.635   3.070  19.041  0.00  0.00    +0.000 A 
ATOM      4  C   UNL     1       2.197   4.221  19.747  0.00  0.00    +0.000 A 
ATOM      5  N   UNL     1       1.411   4.368  20.786  0.00  0.00    +0.000 NA
ATOM      6  N   UNL     1       1.273   5.713  21.012  0.00  0.00    +0.000 NA
ATOM      7  C   UNL     1       1.963   6.382  20.100  0.00  0.00    +0.000 A 
ATOM      8  N   UNL     1       2.640   5.464  19.309  0.00  0.00    +0.000 N 
ATOM      9  C   UNL     1       3.551   5.609  18.261  0.00  0.00    +0.000 A 
ENDROOT
BRANCH   7  10
ATOM     10  C   UNL     1       1.802   7.814  19.836  0.00  0.00    +0.000 A 
ATOM     11  C   UNL     1       1.922   8.407  18.570  0.00  0.00    +0.000 A 
ATOM     12  C   UNL     1       1.577   9.755  18.349  0.00  0.00    +0.000 A 
ATOM     13  C   UNL     1       1.105  10.485  19.449  0.00  0.00    +0.000 A 
ATOM     14  C   UNL     1       1.054   9.940  20.732  0.00  0.00    +0.000 A 
ATOM     15  C   UNL     1       1.435   8.612  20.934  0.00  0.00    +0.000 A 
ATOM     16  N   UNL     1       0.566  10.839  21.644  0.00  0.00    +0.000 NA
ATOM     17  C   UNL     1       0.280  11.907  20.941  0.00  0.00    +0.000 A 
ATOM     18  N   UNL     1       0.600  11.750  19.621  0.00  0.00    +0.000 N 
ATOM     19  C   UNL     1       0.347  12.754  18.616  0.00  0.00    +0.000 C 
ENDBRANCH   7  10
BRANCH   1  24
ATOM     20  C   UNL     1       6.152   3.909  14.590  0.00  0.00    +0.000 A 
ATOM     21  C   UNL     1       7.051   4.974  14.672  0.00  0.00    +0.000 A 
ATOM     22  C   UNL     1       6.952   5.907  15.705  0.00  0.00    +0.000 A 
ATOM     23  C   UNL     1       5.960   5.771  16.675  0.00  0.00    +0.000 A 
ATOM     24  C   UNL     1       5.075   4.690  16.617  0.00  0.00    +0.000 A 
ATOM     25  C   UNL     1       5.177   3.756  15.574  0.00  0.00    +0.000 A 
BRANCH  20  26
ATOM     26  O   UNL     1       6.355   3.037  13.559  0.00  0.00    +0.000 OA
BRANCH  26  28
ATOM     27  C   UNL     1       7.119   2.749  11.322  0.00  0.00    +0.000 C 
ATOM     28  C   UNL     1       6.182   3.543  12.228  0.00  0.00    +0.000 C 
ATOM     29  C   UNL     1       4.731   3.330  11.809  0.00  0.00    +0.000 C 
ENDBRANCH  26  28
ENDBRANCH  20  26
ENDBRANCH   1  24
TORSDOF 4
ENDMDL
MODEL 5
REMARK VINA RESULT:      -8.5      4.227      9.511
REMARK  Name = 
REMARK  7 active torsions:
REMARK  status: ('A' for Active; 'I' for Inactive)
REMARK    1  A    between atoms: C_1  and  C_2
REMARK    2  A    between atoms: C_2  and  C_3
REMARK    3  A    between atoms: C_2  and  O_4
REMARK    4  A    between atoms: O_4  and  C_5
REMARK    5  A    between atoms: C_9  and  C_10
REMARK    6  A    between atoms: C_16  and  C_17
REMARK    7  A    between atoms: N_25  and  C_26
REMARK                            x       y       z     vdW  Elec       q    Type
REMARK                         _______ _______ _______ _____ _____    ______ ____
ROOT
ATOM      1  C   UNL     1      -1.285  10.610  19.281  0.00  0.00    +0.000 A 
ATOM      2  C   UNL     1      -1.246  11.733  20.217  0.00  0.00    +0.000 A 
ATOM      3  C   UNL     1      -0.568  11.663  21.377  0.00  0.00    +0.000 A 
ATOM      4  C   UNL     1       0.123  10.470  21.712  0.00  0.00    +0.000 A 
ATOM      5  N   UNL     1       0.797  10.115  22.780  0.00  0.00    +0.000 NA
ATOM      6  N   UNL     1       1.318   8.869  22.544  0.00  0.00    +0.000 NA
ATOM      7  C   UNL     1       0.974   8.475  21.326  0.00  0.00    +0.000 A 
ATOM      8  N   UNL     1       0.138   9.439  20.779  0.00  0.00    +0.000 N 
ATOM      9  C   UNL     1      -0.561   9.508  19.572  0.00  0.00    +0.000 A 
ENDROOT
BRANCH   7  10
ATOM     10  C   UNL     1       1.599   7.354  20.619  0.00  0.00    +0.000 A 
ATOM     11  C   UNL     1       1.303   6.003  20.856  0.00  0.00    +0.000 A 
ATOM     12  C   UNL     1       1.797   4.980  20.023  0.00  0.00    +0.000 A 
ATOM     13  C   UNL     1       2.598   5.368  18.938  0.00  0.00    +0.000 A 
ATOM     14  C   UNL     1       2.970   6.695  18.730  0.00  0.00    +0.000 A 
ATOM     15  C   UNL     1       2.497   7.688  19.592  0.00  0.00    +0.000 A 
ATOM     16  N   UNL     1       3.757   6.832  17.616  0.00  0.00    +0.000 NA
ATOM     17  C   UNL     1       3.841   5.624  17.117  0.00  0.00    +0.000 A 
ATOM     18  N   UNL     1       3.176   4.707  17.882  0.00  0.00    +0.000 N 
ATOM     19  C   UNL     1       3.068   3.310  17.538  0.00  0.00    +0.000 C 
ENDBRANCH   7  10
BRANCH   1  24
ATOM     20  C   UNL     1      -4.033  11.445  16.855  0.00  0.00    +0.000 A 
ATOM     21  C   UNL     1      -3.696  10.626  15.775  0.00  0.00    +0.000 A 
ATOM     22  C   UNL     1      -2.557   9.821  15.824  0.00  0.00    +0.000 A 
ATOM     23  C   UNL     1      -1.755   9.816  16.965  0.00  0.00    +0.000 A 
ATOM     24  C   UNL     1      -2.104  10.609  18.062  0.00  0.00    +0.000 A 
ATOM     25  C   UNL     1      -3.248  11.420  18.006  0.00  0.00    +0.000 A 
BRANCH  20  26
ATOM     26  O   UNL     1      -5.181  12.169  16.716  0.00  0.00    +0.000 OA
BRANCH  26  28
ATOM     27  C   UNL     1      -6.737  13.717  17.643  0.00  0.00    +0.000 C 
ATOM     28  C   UNL     1      -5.928  12.450  17.909  0.00  0.00    +0.000 C 
ATOM     29  C   UNL     1      -6.859  11.275  18.190  0.00  0.00    +0.000 C 
ENDBRANCH  26  28
ENDBRANCH  20  26
ENDBRANCH   1  24
TORSDOF 4
ENDMDL
MODEL 6
REMARK VINA RESULT:      -8.5      0.874      1.515
REMARK  Name = 
REMARK  7 active torsions:
REMARK  status: ('A' for Active; 'I' for Inactive)
REMARK    1  A    between atoms: C_1  and  C_2
REMARK    2  A    between atoms: C_2  and  C_3
REMARK    3  A    between atoms: C_2  and  O_4
REMARK    4  A    between atoms: O_4  and  C_5
REMARK    5  A    between atoms: C_9  and  C_10
REMARK    6  A    between atoms: C_16  and  C_17
REMARK    7  A    between atoms: N_25  and  C_26
REMARK                            x       y       z     vdW  Elec       q    Type
REMARK                         _______ _______ _______ _____ _____    ______ ____
ROOT
ATOM      1  C   UNL     1       4.418   3.672  17.242  0.00  0.00    +0.000 A 
ATOM      2  C   UNL     1       4.117   2.261  17.478  0.00  0.00    +0.000 A 
ATOM      3  C   UNL     1       3.299   1.870  18.473  0.00  0.00    +0.000 A 
ATOM      4  C   UNL     1       2.715   2.845  19.323  0.00  0.00    +0.000 A 
ATOM      5  N   UNL     1       1.949   2.741  20.382  0.00  0.00    +0.000 NA
ATOM      6  N   UNL     1       1.618   4.012  20.777  0.00  0.00    +0.000 NA
ATOM      7  C   UNL     1       2.170   4.885  19.947  0.00  0.00    +0.000 A 
ATOM      8  N   UNL     1       2.952   4.185  19.039  0.00  0.00    +0.000 N 
ATOM      9  C   UNL     1       3.798   4.596  18.006  0.00  0.00    +0.000 A 
ENDROOT
BRANCH   7  10
ATOM     10  C   UNL     1       1.787   6.298  19.868  0.00  0.00    +0.000 A 
ATOM     11  C   UNL     1       1.266   7.040  20.938  0.00  0.00    +0.000 A 
ATOM     12  C   UNL     1       1.089   8.435  20.854  0.00  0.00    +0.000 A 
ATOM     13  C   UNL     1       1.460   9.057  19.653  0.00  0.00    +0.000 A 
ATOM     14  C   UNL     1       1.904   8.330  18.549  0.00  0.00    +0.000 A 
ATOM     15  C   UNL     1       2.037   6.942  18.644  0.00  0.00    +0.000 A 
ATOM     16  N   UNL     1       2.201   9.147  17.490  0.00  0.00    +0.000 NA
ATOM     17  C   UNL     1       1.985  10.361  17.934  0.00  0.00    +0.000 A 
ATOM     18  N   UNL     1       1.525  10.359  19.222  0.00  0.00    +0.000 N 
ATOM     19  C   UNL     1       1.251  11.561  19.970  0.00  0.00    +0.000 C 
ENDBRANCH   7  10
BRANCH   1  24
ATOM     20  C   UNL     1       6.118   4.190  13.929  0.00  0.00    +0.000 A 
ATOM     21  C   UNL     1       7.220   4.958  14.310  0.00  0.00    +0.000 A 
ATOM     22  C   UNL     1       7.397   5.332  15.643  0.00  0.00    +0.000 A 
ATOM     23  C   UNL     1       6.479   4.924  16.609  0.00  0.00    +0.000 A 
ATOM     24  C   UNL     1       5.390   4.129  16.241  0.00  0.00    +0.000 A 
ATOM     25  C   UNL     1       5.215   3.758  14.898  0.00  0.00    +0.000 A 
BRANCH  20  26
ATOM     26  O   UNL     1       6.056   3.853  12.608  0.00  0.00    +0.000 OA
BRANCH  26  28
ATOM     27  C   UNL     1       4.090   3.371  11.352  0.00  0.00    +0.000 C 
ATOM     28  C   UNL     1       5.176   2.778  12.245  0.00  0.00    +0.000 C 
ATOM     29  C   UNL     1       5.978   1.730  11.482  0.00  0.00    +0.000 C 
ENDBRANCH  26  28
ENDBRANCH  20  26
ENDBRANCH   1  24
TORSDOF 4
ENDMDL
MODEL 7
REMARK VINA RESULT:      -8.5      3.241      8.777
REMARK  Name = 
REMARK  7 active torsions:
REMARK  status: ('A' for Active; 'I' for Inactive)
REMARK    1  A    between atoms: C_1  and  C_2
REMARK    2  A    between atoms: C_2  and  C_3
REMARK    3  A    between atoms: C_2  and  O_4
REMARK    4  A    between atoms: O_4  and  C_5
REMARK    5  A    between atoms: C_9  and  C_10
REMARK    6  A    between atoms: C_16  and  C_17
REMARK    7  A    between atoms: N_25  and  C_26
REMARK                            x       y       z     vdW  Elec       q    Type
REMARK                         _______ _______ _______ _____ _____    ______ ____
ROOT
ATOM      1  C   UNL     1       2.287   6.672  19.624  0.00  0.00    +0.000 A 
ATOM      2  C   UNL     1       1.988   5.800  20.760  0.00  0.00    +0.000 A 
ATOM      3  C   UNL     1       2.333   4.499  20.762  0.00  0.00    +0.000 A 
ATOM      4  C   UNL     1       2.998   3.950  19.635  0.00  0.00    +0.000 A 
ATOM      5  N   UNL     1       3.385   2.729  19.352  0.00  0.00    +0.000 NA
ATOM      6  N   UNL     1       4.044   2.773  18.150  0.00  0.00    +0.000 NA
ATOM      7  C   UNL     1       4.070   4.024  17.713  0.00  0.00    +0.000 A 
ATOM      8  N   UNL     1       3.341   4.808  18.596  0.00  0.00    +0.000 N 
ATOM      9  C   UNL     1       2.988   6.159  18.590  0.00  0.00    +0.000 A 
ENDROOT
BRANCH   7  10
ATOM     10  C   UNL     1       4.945   4.499  16.637  0.00  0.00    +0.000 A 
ATOM     11  C   UNL     1       5.989   5.419  16.811  0.00  0.00    +0.000 A 
ATOM     12  C   UNL     1       6.909   5.698  15.781  0.00  0.00    +0.000 A 
ATOM     13  C   UNL     1       6.740   5.013  14.568  0.00  0.00    +0.000 A 
ATOM     14  C   UNL     1       5.664   4.156  14.346  0.00  0.00    +0.000 A 
ATOM     15  C   UNL     1       4.743   3.923  15.371  0.00  0.00    +0.000 A 
ATOM     16  N   UNL     1       5.703   3.608  13.091  0.00  0.00    +0.000 NA
ATOM     17  C   UNL     1       6.801   4.080  12.554  0.00  0.00    +0.000 A 
ATOM     18  N   UNL     1       7.451   4.940  13.396  0.00  0.00    +0.000 N 
ATOM     19  C   UNL     1       8.710   5.568  13.075  0.00  0.00    +0.000 C 
ENDBRANCH   7  10
BRANCH   1  24
ATOM     20  C   UNL     1       1.081  10.077  20.663  0.00  0.00    +0.000 A 
ATOM     21  C   UNL     1       0.937  10.702  19.423  0.00  0.00    +0.000 A 
ATOM     22  C   UNL     1       1.259  10.023  18.246  0.00  0.00    +0.000 A 
ATOM     23  C   UNL     1       1.711   8.706  18.302  0.00  0.00    +0.000 A 
ATOM     24  C   UNL     1       1.828   8.064  19.539  0.00  0.00    +0.000 A 
ATOM     25  C   UNL     1       1.507   8.752  20.719  0.00  0.00    +0.000 A 
BRANCH  20  26
ATOM     26  O   UNL     1       0.710  10.818  21.748  0.00  0.00    +0.000 OA
BRANCH  26  28
ATOM     27  C   UNL     1      -0.580   9.587  23.328  0.00  0.00    +0.000 C 
ATOM     28  C   UNL     1      -0.630  10.648  22.232  0.00  0.00    +0.000 C 
ATOM     29  C   UNL     1      -1.115  11.977  22.802  0.00  0.00    +0.000 C 
ENDBRANCH  26  28
ENDBRANCH  20  26
ENDBRANCH   1  24
TORSDOF 4
ENDMDL
MODEL 8
REMARK VINA RESULT:      -8.4      1.790      3.496
REMARK  Name = 
REMARK  7 active torsions:
REMARK  status: ('A' for Active; 'I' for Inactive)
REMARK    1  A    between atoms: C_1  and  C_2
REMARK    2  A    between atoms: C_2  and  C_3
REMARK    3  A    between atoms: C_2  and  O_4
REMARK    4  A    between atoms: O_4  and  C_5
REMARK    5  A    between atoms: C_9  and  C_10
REMARK    6  A    between atoms: C_16  and  C_17
REMARK    7  A    between atoms: N_25  and  C_26
REMARK                            x       y       z     vdW  Elec       q    Type
REMARK                         _______ _______ _______ _____ _____    ______ ____
ROOT
ATOM      1  C   UNL     1       4.114   3.770  17.589  0.00  0.00    +0.000 A 
ATOM      2  C   UNL     1       3.721   2.370  17.745  0.00  0.00    +0.000 A 
ATOM      3  C   UNL     1       2.806   1.990  18.656  0.00  0.00    +0.000 A 
ATOM      4  C   UNL     1       2.207   2.966  19.494  0.00  0.00    +0.000 A 
ATOM      5  N   UNL     1       1.352   2.867  20.484  0.00  0.00    +0.000 NA
ATOM      6  N   UNL     1       1.056   4.140  20.901  0.00  0.00    +0.000 NA
ATOM      7  C   UNL     1       1.719   5.009  20.153  0.00  0.00    +0.000 A 
ATOM      8  N   UNL     1       2.535   4.300  19.283  0.00  0.00    +0.000 N 
ATOM      9  C   UNL     1       3.482   4.699  18.337  0.00  0.00    +0.000 A 
ENDROOT
BRANCH   7  10
ATOM     10  C   UNL     1       1.417   6.443  20.098  0.00  0.00    +0.000 A 
ATOM     11  C   UNL     1       0.959   7.199  21.187  0.00  0.00    +0.000 A 
ATOM     12  C   UNL     1       0.863   8.603  21.125  0.00  0.00    +0.000 A 
ATOM     13  C   UNL     1       1.247   9.219  19.925  0.00  0.00    +0.000 A 
ATOM     14  C   UNL     1       1.629   8.483  18.804  0.00  0.00    +0.000 A 
ATOM     15  C   UNL     1       1.682   7.088  18.879  0.00  0.00    +0.000 A 
ATOM     16  N   UNL     1       1.954   9.296  17.750  0.00  0.00    +0.000 NA
ATOM     17  C   UNL     1       1.818  10.514  18.213  0.00  0.00    +0.000 A 
ATOM     18  N   UNL     1       1.381  10.521  19.509  0.00  0.00    +0.000 N 
ATOM     19  C   UNL     1       1.190  11.727  20.278  0.00  0.00    +0.000 C 
ENDBRANCH   7  10
BRANCH   1  24
ATOM     20  C   UNL     1       6.994   5.748  16.203  0.00  0.00    +0.000 A 
ATOM     21  C   UNL     1       7.222   5.082  14.997  0.00  0.00    +0.000 A 
ATOM     22  C   UNL     1       6.456   3.969  14.645  0.00  0.00    +0.000 A 
ATOM     23  C   UNL     1       5.441   3.526  15.493  0.00  0.00    +0.000 A 
ATOM     24  C   UNL     1       5.187   4.207  16.687  0.00  0.00    +0.000 A 
ATOM     25  C   UNL     1       5.963   5.322  17.037  0.00  0.00    +0.000 A 
BRANCH  20  26
ATOM     26  O   UNL     1       7.779   6.840  16.436  0.00  0.00    +0.000 OA
BRANCH  26  28
ATOM     27  C   UNL     1       8.200   6.768  18.779  0.00  0.00    +0.000 C 
ATOM     28  C   UNL     1       7.549   7.566  17.653  0.00  0.00    +0.000 C 
ATOM     29  C   UNL     1       8.199   8.940  17.531  0.00  0.00    +0.000 C 
ENDBRANCH  26  28
ENDBRANCH  20  26
ENDBRANCH   1  24
TORSDOF 4
ENDMDL
MODEL 9
REMARK VINA RESULT:      -8.4      4.674      7.441
REMARK  Name = 
REMARK  7 active torsions:
REMARK  status: ('A' for Active; 'I' for Inactive)
REMARK    1  A    between atoms: C_1  and  C_2
REMARK    2  A    between atoms: C_2  and  C_3
REMARK    3  A    between atoms: C_2  and  O_4
REMARK    4  A    between atoms: O_4  and  C_5
REMARK    5  A    between atoms: C_9  and  C_10
REMARK    6  A    between atoms: C_16  and  C_17
REMARK    7  A    between atoms: N_25  and  C_26
REMARK                            x       y       z     vdW  Elec       q    Type
REMARK                         _______ _______ _______ _____ _____    ______ ____
ROOT
ATOM      1  C   UNL     1       0.796   8.977  20.797  0.00  0.00    +0.000 A 
ATOM      2  C   UNL     1      -0.125   8.555  21.852  0.00  0.00    +0.000 A 
ATOM      3  C   UNL     1      -0.725   9.446  22.663  0.00  0.00    +0.000 A 
ATOM      4  C   UNL     1      -0.458  10.830  22.502  0.00  0.00    +0.000 A 
ATOM      5  N   UNL     1      -0.849  11.885  23.176  0.00  0.00    +0.000 NA
ATOM      6  N   UNL     1      -0.344  12.991  22.542  0.00  0.00    +0.000 NA
ATOM      7  C   UNL     1       0.338  12.607  21.473  0.00  0.00    +0.000 A 
ATOM      8  N   UNL     1       0.361  11.219  21.447  0.00  0.00    +0.000 N 
ATOM      9  C   UNL     1       0.983  10.299  20.601  0.00  0.00    +0.000 A 
ENDROOT
BRANCH   7  10
ATOM     10  C   UNL     1       0.749  13.509  20.393  0.00  0.00    +0.000 A 
ATOM     11  C   UNL     1      -0.135  14.284  19.627  0.00  0.00    +0.000 A 
ATOM     12  C   UNL     1       0.329  15.266  18.730  0.00  0.00    +0.000 A 
ATOM     13  C   UNL     1       1.717  15.443  18.635  0.00  0.00    +0.000 A 
ATOM     14  C   UNL     1       2.615  14.632  19.327  0.00  0.00    +0.000 A 
ATOM     15  C   UNL     1       2.132  13.638  20.183  0.00  0.00    +0.000 A 
ATOM     16  N   UNL     1       3.915  14.985  19.074  0.00  0.00    +0.000 NA
ATOM     17  C   UNL     1       3.831  16.020  18.275  0.00  0.00    +0.000 A 
ATOM     18  N   UNL     1       2.533  16.325  17.970  0.00  0.00    +0.000 N 
ATOM     19  C   UNL     1       2.151  17.447  17.147  0.00  0.00    +0.000 C 
ENDBRANCH   7  10
BRANCH   1  24
ATOM     20  C   UNL     1       2.400   5.785  19.626  0.00  0.00    +0.000 A 
ATOM     21  C   UNL     1       2.997   6.206  18.435  0.00  0.00    +0.000 A 
ATOM     22  C   UNL     1       2.855   7.523  17.998  0.00  0.00    +0.000 A 
ATOM     23  C   UNL     1       2.127   8.436  18.759  0.00  0.00    +0.000 A 
ATOM     24  C   UNL     1       1.553   8.031  19.968  0.00  0.00    +0.000 A 
ATOM     25  C   UNL     1       1.696   6.704  20.401  0.00  0.00    +0.000 A 
BRANCH  20  26
ATOM     26  O   UNL     1       2.625   4.486  19.977  0.00  0.00    +0.000 OA
BRANCH  26  28
ATOM     27  C   UNL     1       0.896   2.924  19.483  0.00  0.00    +0.000 C 
ATOM     28  C   UNL     1       1.537   3.771  20.580  0.00  0.00    +0.000 C 
ATOM     29  C   UNL     1       2.092   2.877  21.684  0.00  0.00    +0.000 C 
ENDBRANCH  26  28
ENDBRANCH  20  26
ENDBRANCH   1  24
TORSDOF 4
ENDMDL
