MODEL 1
REMARK VINA RESULT:      -7.4      0.000      0.000
REMARK  Name = 
REMARK  6 active torsions:
REMARK  status: ('A' for Active; 'I' for Inactive)
REMARK    1  A    between atoms: C_1  and  C_2
REMARK    2  A    between atoms: C_2  and  C_3
REMARK    3  A    between atoms: C_2  and  C_4
REMARK    4  A    between atoms: C_7  and  C_8
REMARK    5  A    between atoms: C_8  and  O_9
REMARK    6  A    between atoms: O_9  and  C_10
REMARK                            x       y       z     vdW  Elec       q    Type
REMARK                         _______ _______ _______ _____ _____    ______ ____
ROOT
ATOM      1  O   UNL     1       5.054   3.564  17.187  0.00  0.00    +0.000 OA
ENDROOT
BRANCH   1   2
ATOM      2  C   UNL     1       3.913   3.569  17.940  0.00  0.00    +0.000 A 
ATOM      3  C   UNL     1       2.652   4.042  17.531  0.00  0.00    +0.000 A 
ATOM      4  C   UNL     1       1.556   3.995  18.405  0.00  0.00    +0.000 A 
ATOM      5  C   UNL     1       1.755   3.475  19.666  0.00  0.00    +0.000 A 
ATOM      6  C   UNL     1       2.985   3.017  20.068  0.00  0.00    +0.000 A 
ATOM      7  C   UNL     1       4.079   3.050  19.230  0.00  0.00    +0.000 A 
ATOM      8  O   UNL     1       2.975   2.548  21.344  0.00  0.00    +0.000 OA
ATOM      9  C   UNL     1       1.598   2.784  21.706  0.00  0.00    +0.000 C 
ATOM     10  O   UNL     1       0.813   3.355  20.638  0.00  0.00    +0.000 OA
ENDBRANCH   1   2
BRANCH   1  11
ATOM     11  C   UNL     1       5.620   4.826  16.836  0.00  0.00    +0.000 C 
BRANCH  11  15
ATOM     12  C   UNL     1       6.292   3.867  13.461  0.00  0.00    +0.000 A 
ATOM     13  C   UNL     1       7.250   4.837  13.637  0.00  0.00    +0.000 A 
ATOM     14  N   UNL     1       7.161   5.369  14.897  0.00  0.00    +0.000 NA
ATOM     15  C   UNL     1       6.171   4.696  15.456  0.00  0.00    +0.000 A 
ATOM     16  O   UNL     1       5.576   3.778  14.626  0.00  0.00    +0.000 OA
BRANCH  12  18
ATOM     17  C   UNL     1       4.670   3.436  11.620  0.00  0.00    +0.000 C 
ATOM     18  C   UNL     1       5.933   2.960  12.336  0.00  0.00    +0.000 C 
ATOM     19  C   UNL     1       7.090   2.800  11.352  0.00  0.00    +0.000 C 
ENDBRANCH  12  18
ENDBRANCH  11  15
ENDBRANCH   1  11
TORSDOF 4
ENDMDL
MODEL 2
REMARK VINA RESULT:      -7.3      1.334      1.700
REMARK  Name = 
REMARK  6 active torsions:
REMARK  status: ('A' for Active; 'I' for Inactive)
REMARK    1  A    between atoms: C_1  and  C_2
REMARK    2  A    between atoms: C_2  and  C_3
REMARK    3  A    between atoms: C_2  and  C_4
REMARK    4  A    between atoms: C_7  and  C_8
REMARK    5  A    between atoms: C_8  and  O_9
REMARK    6  A    between atoms: O_9  and  C_10
REMARK                            x       y       z     vdW  Elec       q    Type
REMARK                         _______ _______ _______ _____ _____    ______ ____
ROOT
ATOM      1  O   UNL     1       5.401   5.575  17.264  0.00  0.00    +0.000 OA
ENDROOT
BRANCH   1   2
ATOM      2  C   UNL     1       4.328   5.171  18.008  0.00  0.00    +0.000 A 
ATOM      3  C   UNL     1       3.916   5.721  19.236  0.00  0.00    +0.000 A 
ATOM      4  C   UNL     1       2.794   5.211  19.906  0.00  0.00    +0.000 A 
ATOM      5  C   UNL     1       2.116   4.160  19.324  0.00  0.00    +0.000 A 
ATOM      6  C   UNL     1       2.519   3.619  18.129  0.00  0.00    +0.000 A 
ATOM      7  C   UNL     1       3.617   4.102  17.449  0.00  0.00    +0.000 A 
ATOM      8  O   UNL     1       1.722   2.594  17.727  0.00  0.00    +0.000 OA
ATOM      9  C   UNL     1       0.784   2.537  18.821  0.00  0.00    +0.000 C 
ATOM     10  O   UNL     1       1.016   3.543  19.830  0.00  0.00    +0.000 OA
ENDBRANCH   1   2
BRANCH   1  11
ATOM     11  C   UNL     1       6.426   4.616  17.007  0.00  0.00    +0.000 C 
BRANCH  11  15
ATOM     12  C   UNL     1       6.429   3.867  13.514  0.00  0.00    +0.000 A 
ATOM     13  C   UNL     1       7.282   4.945  13.536  0.00  0.00    +0.000 A 
ATOM     14  N   UNL     1       7.417   5.417  14.815  0.00  0.00    +0.000 NA
ATOM     15  C   UNL     1       6.664   4.605  15.535  0.00  0.00    +0.000 A 
ATOM     16  O   UNL     1       6.009   3.647  14.800  0.00  0.00    +0.000 OA
BRANCH  12  18
ATOM     17  C   UNL     1       4.679   3.520  11.776  0.00  0.00    +0.000 C 
ATOM     18  C   UNL     1       5.934   2.960  12.441  0.00  0.00    +0.000 C 
ATOM     19  C   UNL     1       7.019   2.673  11.404  0.00  0.00    +0.000 C 
ENDBRANCH  12  18
ENDBRANCH  11  15
ENDBRANCH   1  11
TORSDOF 4
ENDMDL
MODEL 3
REMARK VINA RESULT:      -7.2      1.170      1.240
REMARK  Name = 
REMARK  6 active torsions:
REMARK  status: ('A' for Active; 'I' for Inactive)
REMARK    1  A    between atoms: C_1  and  C_2
REMARK    2  A    between atoms: C_2  and  C_3
REMARK    3  A    between atoms: C_2  and  C_4
REMARK    4  A    between atoms: C_7  and  C_8
REMARK    5  A    between atoms: C_8  and  O_9
REMARK    6  A    between atoms: O_9  and  C_10
REMARK                            x       y       z     vdW  Elec       q    Type
REMARK                         _______ _______ _______ _____ _____    ______ ____
ROOT
ATOM      1  O   UNL     1       5.634   3.943  17.030  0.00  0.00    +0.000 OA
ENDROOT
BRANCH   1   2
ATOM      2  C   UNL     1       4.771   4.299  18.029  0.00  0.00    +0.000 A 
ATOM      3  C   UNL     1       4.446   5.613  18.415  0.00  0.00    +0.000 A 
ATOM      4  C   UNL     1       3.545   5.845  19.464  0.00  0.00    +0.000 A 
ATOM      5  C   UNL     1       2.995   4.752  20.099  0.00  0.00    +0.000 A 
ATOM      6  C   UNL     1       3.314   3.470  19.727  0.00  0.00    +0.000 A 
ATOM      7  C   UNL     1       4.195   3.212  18.698  0.00  0.00    +0.000 A 
ATOM      8  O   UNL     1       2.669   2.535  20.475  0.00  0.00    +0.000 OA
ATOM      9  C   UNL     1       1.924   3.379  21.377  0.00  0.00    +0.000 C 
ATOM     10  O   UNL     1       2.111   4.789  21.130  0.00  0.00    +0.000 OA
ENDBRANCH   1   2
BRANCH   1  11
ATOM     11  C   UNL     1       6.565   4.926  16.579  0.00  0.00    +0.000 C 
BRANCH  11  15
ATOM     12  C   UNL     1       6.369   3.788  13.198  0.00  0.00    +0.000 A 
ATOM     13  C   UNL     1       7.274   4.814  13.061  0.00  0.00    +0.000 A 
ATOM     14  N   UNL     1       7.491   5.420  14.271  0.00  0.00    +0.000 NA
ATOM     15  C   UNL     1       6.733   4.736  15.109  0.00  0.00    +0.000 A 
ATOM     16  O   UNL     1       5.998   3.738  14.517  0.00  0.00    +0.000 OA
BRANCH  12  18
ATOM     17  C   UNL     1       4.573   3.373  11.522  0.00  0.00    +0.000 C 
ATOM     18  C   UNL     1       5.781   2.795  12.258  0.00  0.00    +0.000 C 
ATOM     19  C   UNL     1       6.822   2.272  11.270  0.00  0.00    +0.000 C 
ENDBRANCH  12  18
ENDBRANCH  11  15
ENDBRANCH   1  11
TORSDOF 4
ENDMDL
MODEL 4
REMARK VINA RESULT:      -7.1      1.060      1.353
REMARK  Name = 
REMARK  6 active torsions:
REMARK  status: ('A' for Active; 'I' for Inactive)
REMARK    1  A    between atoms: C_1  and  C_2
REMARK    2  A    between atoms: C_2  and  C_3
REMARK    3  A    between atoms: C_2  and  C_4
REMARK    4  A    between atoms: C_7  and  C_8
REMARK    5  A    between atoms: C_8  and  O_9
REMARK    6  A    between atoms: O_9  and  C_10
REMARK                            x       y       z     vdW  Elec       q    Type
REMARK                         _______ _______ _______ _____ _____    ______ ____
ROOT
ATOM      1  O   UNL     1       4.865   4.868  16.682  0.00  0.00    +0.000 OA
ENDROOT
BRANCH   1   2
ATOM      2  C   UNL     1       3.952   4.191  17.442  0.00  0.00    +0.000 A 
ATOM      3  C   UNL     1       3.229   3.049  17.050  0.00  0.00    +0.000 A 
ATOM      4  C   UNL     1       2.314   2.449  17.926  0.00  0.00    +0.000 A 
ATOM      5  C   UNL     1       2.147   3.012  19.173  0.00  0.00    +0.000 A 
ATOM      6  C   UNL     1       2.848   4.128  19.557  0.00  0.00    +0.000 A 
ATOM      7  C   UNL     1       3.755   4.738  18.716  0.00  0.00    +0.000 A 
ATOM      8  O   UNL     1       2.540   4.528  20.819  0.00  0.00    +0.000 OA
ATOM      9  C   UNL     1       1.547   3.546  21.178  0.00  0.00    +0.000 C 
ATOM     10  O   UNL     1       1.307   2.567  20.144  0.00  0.00    +0.000 OA
ENDBRANCH   1   2
BRANCH   1  11
ATOM     11  C   UNL     1       6.163   4.289  16.538  0.00  0.00    +0.000 C 
BRANCH  11  15
ATOM     12  C   UNL     1       6.426   3.978  12.989  0.00  0.00    +0.000 A 
ATOM     13  C   UNL     1       7.414   4.904  13.229  0.00  0.00    +0.000 A 
ATOM     14  N   UNL     1       7.479   5.191  14.568  0.00  0.00    +0.000 NA
ATOM     15  C   UNL     1       6.549   4.421  15.103  0.00  0.00    +0.000 A 
ATOM     16  O   UNL     1       5.847   3.670  14.192  0.00  0.00    +0.000 OA
BRANCH  12  18
ATOM     17  C   UNL     1       6.453   1.865  11.671  0.00  0.00    +0.000 C 
ATOM     18  C   UNL     1       5.924   3.295  11.764  0.00  0.00    +0.000 C 
ATOM     19  C   UNL     1       4.399   3.318  11.693  0.00  0.00    +0.000 C 
ENDBRANCH  12  18
ENDBRANCH  11  15
ENDBRANCH   1  11
TORSDOF 4
ENDMDL
MODEL 5
REMARK VINA RESULT:      -7.1      1.216      1.427
REMARK  Name = 
REMARK  6 active torsions:
REMARK  status: ('A' for Active; 'I' for Inactive)
REMARK    1  A    between atoms: C_1  and  C_2
REMARK    2  A    between atoms: C_2  and  C_3
REMARK    3  A    between atoms: C_2  and  C_4
REMARK    4  A    between atoms: C_7  and  C_8
REMARK    5  A    between atoms: C_8  and  O_9
REMARK    6  A    between atoms: O_9  and  C_10
REMARK                            x       y       z     vdW  Elec       q    Type
REMARK                         _______ _______ _______ _____ _____    ______ ____
ROOT
ATOM      1  O   UNL     1       5.311   5.606  16.557  0.00  0.00    +0.000 OA
ENDROOT
BRANCH   1   2
ATOM      2  C   UNL     1       4.525   4.960  17.470  0.00  0.00    +0.000 A 
ATOM      3  C   UNL     1       3.140   5.140  17.646  0.00  0.00    +0.000 A 
ATOM      4  C   UNL     1       2.446   4.416  18.627  0.00  0.00    +0.000 A 
ATOM      5  C   UNL     1       3.162   3.532  19.406  0.00  0.00    +0.000 A 
ATOM      6  C   UNL     1       4.513   3.358  19.239  0.00  0.00    +0.000 A 
ATOM      7  C   UNL     1       5.220   4.055  18.282  0.00  0.00    +0.000 A 
ATOM      8  O   UNL     1       5.032   2.447  20.104  0.00  0.00    +0.000 OA
ATOM      9  C   UNL     1       3.853   2.082  20.851  0.00  0.00    +0.000 C 
ATOM     10  O   UNL     1       2.657   2.753  20.399  0.00  0.00    +0.000 OA
ENDBRANCH   1   2
BRANCH   1  11
ATOM     11  C   UNL     1       6.644   5.127  16.377  0.00  0.00    +0.000 C 
BRANCH  11  15
ATOM     12  C   UNL     1       6.382   3.761  13.087  0.00  0.00    +0.000 A 
ATOM     13  C   UNL     1       7.376   4.691  12.889  0.00  0.00    +0.000 A 
ATOM     14  N   UNL     1       7.634   5.364  14.055  0.00  0.00    +0.000 NA
ATOM     15  C   UNL     1       6.810   4.813  14.928  0.00  0.00    +0.000 A 
ATOM     16  O   UNL     1       5.996   3.842  14.399  0.00  0.00    +0.000 OA
BRANCH  12  18
ATOM     17  C   UNL     1       4.547   3.369  11.448  0.00  0.00    +0.000 C 
ATOM     18  C   UNL     1       5.719   2.754  12.212  0.00  0.00    +0.000 C 
ATOM     19  C   UNL     1       6.712   2.101  11.253  0.00  0.00    +0.000 C 
ENDBRANCH  12  18
ENDBRANCH  11  15
ENDBRANCH   1  11
TORSDOF 4
ENDMDL
MODEL 6
REMARK VINA RESULT:      -7.1      0.743      1.533
REMARK  Name = 
REMARK  6 active torsions:
REMARK  status: ('A' for Active; 'I' for Inactive)
REMARK    1  A    between atoms: C_1  and  C_2
REMARK    2  A    between atoms: C_2  and  C_3
REMARK    3  A    between atoms: C_2  and  C_4
REMARK    4  A    between atoms: C_7  and  C_8
REMARK    5  A    between atoms: C_8  and  O_9
REMARK    6  A    between atoms: O_9  and  C_10
REMARK                            x       y       z     vdW  Elec       q    Type
REMARK                         _______ _______ _______ _____ _____    ______ ____
ROOT
ATOM      1  O   UNL     1       4.094   5.097  16.671  0.00  0.00    +0.000 OA
ENDROOT
BRANCH   1   2
ATOM      2  C   UNL     1       3.865   4.410  17.830  0.00  0.00    +0.000 A 
ATOM      3  C   UNL     1       4.809   3.646  18.542  0.00  0.00    +0.000 A 
ATOM      4  C   UNL     1       4.445   2.982  19.722  0.00  0.00    +0.000 A 
ATOM      5  C   UNL     1       3.142   3.102  20.156  0.00  0.00    +0.000 A 
ATOM      6  C   UNL     1       2.219   3.843  19.462  0.00  0.00    +0.000 A 
ATOM      7  C   UNL     1       2.549   4.507  18.300  0.00  0.00    +0.000 A 
ATOM      8  O   UNL     1       0.994   3.834  20.051  0.00  0.00    +0.000 OA
ATOM      9  C   UNL     1       1.248   2.982  21.187  0.00  0.00    +0.000 C 
ATOM     10  O   UNL     1       2.616   2.529  21.272  0.00  0.00    +0.000 OA
ENDBRANCH   1   2
BRANCH   1  11
ATOM     11  C   UNL     1       5.343   5.775  16.540  0.00  0.00    +0.000 C 
BRANCH  11  15
ATOM     12  C   UNL     1       6.165   4.019  13.540  0.00  0.00    +0.000 A 
ATOM     13  C   UNL     1       7.333   4.715  13.746  0.00  0.00    +0.000 A 
ATOM     14  N   UNL     1       7.230   5.492  14.871  0.00  0.00    +0.000 NA
ATOM     15  C   UNL     1       6.018   5.231  15.326  0.00  0.00    +0.000 A 
ATOM     16  O   UNL     1       5.300   4.357  14.547  0.00  0.00    +0.000 OA
BRANCH  12  18
ATOM     17  C   UNL     1       4.506   3.554  11.741  0.00  0.00    +0.000 C 
ATOM     18  C   UNL     1       5.715   3.034  12.518  0.00  0.00    +0.000 C 
ATOM     19  C   UNL     1       6.849   2.650  11.569  0.00  0.00    +0.000 C 
ENDBRANCH  12  18
ENDBRANCH  11  15
ENDBRANCH   1  11
TORSDOF 4
ENDMDL
MODEL 7
REMARK VINA RESULT:      -7.1      7.234      9.385
REMARK  Name = 
REMARK  6 active torsions:
REMARK  status: ('A' for Active; 'I' for Inactive)
REMARK    1  A    between atoms: C_1  and  C_2
REMARK    2  A    between atoms: C_2  and  C_3
REMARK    3  A    between atoms: C_2  and  C_4
REMARK    4  A    between atoms: C_7  and  C_8
REMARK    5  A    between atoms: C_8  and  O_9
REMARK    6  A    between atoms: O_9  and  C_10
REMARK                            x       y       z     vdW  Elec       q    Type
REMARK                         _______ _______ _______ _____ _____    ______ ____
ROOT
ATOM      1  O   UNL     1       8.800   9.366  19.034  0.00  0.00    +0.000 OA
ENDROOT
BRANCH   1   2
ATOM      2  C   UNL     1       9.499  10.529  19.198  0.00  0.00    +0.000 A 
ATOM      3  C   UNL     1       9.888  11.097  20.426  0.00  0.00    +0.000 A 
ATOM      4  C   UNL     1      10.603  12.303  20.459  0.00  0.00    +0.000 A 
ATOM      5  C   UNL     1      10.907  12.908  19.258  0.00  0.00    +0.000 A 
ATOM      6  C   UNL     1      10.526  12.358  18.060  0.00  0.00    +0.000 A 
ATOM      7  C   UNL     1       9.824  11.173  17.998  0.00  0.00    +0.000 A 
ATOM      8  O   UNL     1      10.919  13.106  16.995  0.00  0.00    +0.000 OA
ATOM      9  C   UNL     1      11.574  14.203  17.664  0.00  0.00    +0.000 C 
ATOM     10  O   UNL     1      11.588  14.074  19.102  0.00  0.00    +0.000 OA
ENDBRANCH   1   2
BRANCH   1  11
ATOM     11  C   UNL     1       8.086   9.191  17.810  0.00  0.00    +0.000 C 
BRANCH  11  15
ATOM     12  C   UNL     1       6.743   6.027  16.837  0.00  0.00    +0.000 A 
ATOM     13  C   UNL     1       7.376   5.677  18.006  0.00  0.00    +0.000 A 
ATOM     14  N   UNL     1       7.992   6.770  18.558  0.00  0.00    +0.000 NA
ATOM     15  C   UNL     1       7.700   7.753  17.725  0.00  0.00    +0.000 A 
ATOM     16  O   UNL     1       6.959   7.365  16.635  0.00  0.00    +0.000 OA
BRANCH  12  18
ATOM     17  C   UNL     1       6.798   4.580  14.809  0.00  0.00    +0.000 C 
ATOM     18  C   UNL     1       5.920   5.283  15.843  0.00  0.00    +0.000 C 
ATOM     19  C   UNL     1       4.978   4.291  16.523  0.00  0.00    +0.000 C 
ENDBRANCH  12  18
ENDBRANCH  11  15
ENDBRANCH   1  11
TORSDOF 4
ENDMDL
MODEL 8
REMARK VINA RESULT:      -7.0      1.513      1.839
REMARK  Name = 
REMARK  6 active torsions:
REMARK  status: ('A' for Active; 'I' for Inactive)
REMARK    1  A    between atoms: C_1  and  C_2
REMARK    2  A    between atoms: C_2  and  C_3
REMARK    3  A    between atoms: C_2  and  C_4
REMARK    4  A    between atoms: C_7  and  C_8
REMARK    5  A    between atoms: C_8  and  O_9
REMARK    6  A    between atoms: O_9  and  C_10
REMARK                            x       y       z     vdW  Elec       q    Type
REMARK                         _______ _______ _______ _____ _____    ______ ____
ROOT
ATOM      1  O   UNL     1       6.479   5.885  16.848  0.00  0.00    +0.000 OA
ENDROOT
BRANCH   1   2
ATOM      2  C   UNL     1       5.282   5.760  17.498  0.00  0.00    +0.000 A 
ATOM      3  C   UNL     1       4.217   6.679  17.457  0.00  0.00    +0.000 A 
ATOM      4  C   UNL     1       3.037   6.435  18.175  0.00  0.00    +0.000 A 
ATOM      5  C   UNL     1       2.959   5.274  18.916  0.00  0.00    +0.000 A 
ATOM      6  C   UNL     1       3.998   4.379  18.959  0.00  0.00    +0.000 A 
ATOM      7  C   UNL     1       5.168   4.593  18.263  0.00  0.00    +0.000 A 
ATOM      8  O   UNL     1       3.726   3.303  19.744  0.00  0.00    +0.000 OA
ATOM      9  C   UNL     1       2.401   3.637  20.209  0.00  0.00    +0.000 C 
ATOM     10  O   UNL     1       1.899   4.878  19.669  0.00  0.00    +0.000 OA
ENDBRANCH   1   2
BRANCH   1  11
ATOM     11  C   UNL     1       7.140   4.687  16.444  0.00  0.00    +0.000 C 
BRANCH  11  15
ATOM     12  C   UNL     1       6.336   3.770  13.086  0.00  0.00    +0.000 A 
ATOM     13  C   UNL     1       7.174   4.836  12.857  0.00  0.00    +0.000 A 
ATOM     14  N   UNL     1       7.602   5.367  14.045  0.00  0.00    +0.000 NA
ATOM     15  C   UNL     1       7.032   4.601  14.958  0.00  0.00    +0.000 A 
ATOM     16  O   UNL     1       6.222   3.619  14.443  0.00  0.00    +0.000 OA
BRANCH  12  18
ATOM     17  C   UNL     1       4.472   3.519  11.453  0.00  0.00    +0.000 C 
ATOM     18  C   UNL     1       5.604   2.821  12.202  0.00  0.00    +0.000 C 
ATOM     19  C   UNL     1       6.549   2.117  11.229  0.00  0.00    +0.000 C 
ENDBRANCH  12  18
ENDBRANCH  11  15
ENDBRANCH   1  11
TORSDOF 4
ENDMDL
MODEL 9
REMARK VINA RESULT:      -7.0      1.304      1.633
REMARK  Name = 
REMARK  6 active torsions:
REMARK  status: ('A' for Active; 'I' for Inactive)
REMARK    1  A    between atoms: C_1  and  C_2
REMARK    2  A    between atoms: C_2  and  C_3
REMARK    3  A    between atoms: C_2  and  C_4
REMARK    4  A    between atoms: C_7  and  C_8
REMARK    5  A    between atoms: C_8  and  O_9
REMARK    6  A    between atoms: O_9  and  C_10
REMARK                            x       y       z     vdW  Elec       q    Type
REMARK                         _______ _______ _______ _____ _____    ______ ____
ROOT
ATOM      1  O   UNL     1       5.354   3.829  16.356  0.00  0.00    +0.000 OA
ENDROOT
BRANCH   1   2
ATOM      2  C   UNL     1       4.474   4.333  17.273  0.00  0.00    +0.000 A 
ATOM      3  C   UNL     1       4.103   5.684  17.410  0.00  0.00    +0.000 A 
ATOM      4  C   UNL     1       3.188   6.075  18.398  0.00  0.00    +0.000 A 
ATOM      5  C   UNL     1       2.671   5.099  19.224  0.00  0.00    +0.000 A 
ATOM      6  C   UNL     1       3.034   3.782  19.094  0.00  0.00    +0.000 A 
ATOM      7  C   UNL     1       3.929   3.369  18.131  0.00  0.00    +0.000 A 
ATOM      8  O   UNL     1       2.416   2.980  20.001  0.00  0.00    +0.000 OA
ATOM      9  C   UNL     1       1.638   3.949  20.732  0.00  0.00    +0.000 C 
ATOM     10  O   UNL     1       1.779   5.296  20.230  0.00  0.00    +0.000 OA
ENDBRANCH   1   2
BRANCH   1  11
ATOM     11  C   UNL     1       6.551   4.568  16.113  0.00  0.00    +0.000 C 
BRANCH  11  15
ATOM     12  C   UNL     1       6.442   3.916  12.602  0.00  0.00    +0.000 A 
ATOM     13  C   UNL     1       7.453   4.847  12.649  0.00  0.00    +0.000 A 
ATOM     14  N   UNL     1       7.657   5.260  13.939  0.00  0.00    +0.000 NA
ATOM     15  C   UNL     1       6.786   4.557  14.640  0.00  0.00    +0.000 A 
ATOM     16  O   UNL     1       5.991   3.731  13.883  0.00  0.00    +0.000 OA
BRANCH  12  18
ATOM     17  C   UNL     1       6.252   1.662  11.558  0.00  0.00    +0.000 C 
ATOM     18  C   UNL     1       5.814   3.124  11.508  0.00  0.00    +0.000 C 
ATOM     19  C   UNL     1       4.291   3.239  11.535  0.00  0.00    +0.000 C 
ENDBRANCH  12  18
ENDBRANCH  11  15
ENDBRANCH   1  11
TORSDOF 4
ENDMDL
