MODEL 1
REMARK VINA RESULT:      -7.8      0.000      0.000
REMARK  Name = 
REMARK  10 active torsions:
REMARK  status: ('A' for Active; 'I' for Inactive)
REMARK    1  A    between atoms: C_1  and  C_2
REMARK    2  A    between atoms: C_2  and  O_3
REMARK    3  A    between atoms: O_3  and  C_4
REMARK    4  A    between atoms: C_7  and  C_8
REMARK    5  A    between atoms: C_12  and  O_13
REMARK    6  A    between atoms: O_13  and  C_14
REMARK    7  A    between atoms: C_19  and  O_20
REMARK    8  A    between atoms: O_20  and  C_21
REMARK    9  A    between atoms: C_21  and  C_22
REMARK   10  A    between atoms: C_23  and  O_24
REMARK                            x       y       z     vdW  Elec       q    Type
REMARK                         _______ _______ _______ _____ _____    ______ ____
ROOT
ATOM      1  C   UNL     1       2.845   4.162  18.622  0.00  0.00    +0.000 A 
ATOM      2  N   UNL     1       2.038   3.196  19.201  0.00  0.00    +0.000 N 
ATOM      3  N   UNL     1       2.412   1.935  18.964  0.00  0.00    +0.000 NA
ATOM      4  C   UNL     1       3.427   2.071  18.115  0.00  0.00    +0.000 A 
ATOM      5  C   UNL     1       3.711   3.428  17.824  0.00  0.00    +0.000 A 
ATOM      6  H   UNL     1       1.235   3.367  19.802  0.00  0.00    +0.000 HD
ENDROOT
BRANCH   1  10
ATOM      7  C   UNL     1       1.776   8.270  19.305  0.00  0.00    +0.000 A 
ATOM      8  C   UNL     1       2.130   7.828  18.025  0.00  0.00    +0.000 A 
ATOM      9  C   UNL     1       2.520   6.499  17.800  0.00  0.00    +0.000 A 
ATOM     10  C   UNL     1       2.580   5.585  18.855  0.00  0.00    +0.000 A 
ATOM     11  C   UNL     1       2.270   6.069  20.144  0.00  0.00    +0.000 A 
ATOM     12  C   UNL     1       1.868   7.385  20.371  0.00  0.00    +0.000 A 
BRANCH  11  13
ATOM     13  O   UNL     1       2.328   5.266  21.256  0.00  0.00    +0.000 OA
ATOM     14  H   UNL     1       2.526   5.846  22.014  0.00  0.00    +0.000 HD
ENDBRANCH  11  13
BRANCH   7  15
ATOM     15  O   UNL     1       1.392   9.583  19.404  0.00  0.00    +0.000 OA
BRANCH  15  17
ATOM     16  C   UNL     1      -0.841  10.296  18.885  0.00  0.00    +0.000 C 
ATOM     17  C   UNL     1       0.559  10.067  18.345  0.00  0.00    +0.000 C 
ENDBRANCH  15  17
ENDBRANCH   7  15
ENDBRANCH   1  10
BRANCH   5  18
ATOM     18  O   UNL     1       4.637   3.931  16.963  0.00  0.00    +0.000 OA
BRANCH  18  19
ATOM     19  C   UNL     1       5.634   4.768  17.446  0.00  0.00    +0.000 A 
ATOM     20  C   UNL     1       5.974   4.708  18.811  0.00  0.00    +0.000 A 
ATOM     21  C   UNL     1       6.968   5.525  19.353  0.00  0.00    +0.000 A 
ATOM     22  C   UNL     1       7.684   6.373  18.522  0.00  0.00    +0.000 A 
ATOM     23  C   UNL     1       7.395   6.402  17.159  0.00  0.00    +0.000 A 
ATOM     24  C   UNL     1       6.361   5.626  16.609  0.00  0.00    +0.000 A 
BRANCH  24  25
ATOM     25  O   UNL     1       6.246   5.817  15.261  0.00  0.00    +0.000 OA
BRANCH  25  26
ATOM     26  C   UNL     1       6.920   4.957  14.351  0.00  0.00    +0.000 C 
ATOM     27  C   UNL     1       6.027   3.895  13.726  0.00  0.00    +0.000 C 
ENDBRANCH  25  26
ENDBRANCH  24  25
ENDBRANCH  18  19
ENDBRANCH   5  18
TORSDOF 8
ENDMDL
MODEL 2
REMARK VINA RESULT:      -7.5      1.379      2.444
REMARK  Name = 
REMARK  10 active torsions:
REMARK  status: ('A' for Active; 'I' for Inactive)
REMARK    1  A    between atoms: C_1  and  C_2
REMARK    2  A    between atoms: C_2  and  O_3
REMARK    3  A    between atoms: O_3  and  C_4
REMARK    4  A    between atoms: C_7  and  C_8
REMARK    5  A    between atoms: C_12  and  O_13
REMARK    6  A    between atoms: O_13  and  C_14
REMARK    7  A    between atoms: C_19  and  O_20
REMARK    8  A    between atoms: O_20  and  C_21
REMARK    9  A    between atoms: C_21  and  C_22
REMARK   10  A    between atoms: C_23  and  O_24
REMARK                            x       y       z     vdW  Elec       q    Type
REMARK                         _______ _______ _______ _____ _____    ______ ____
ROOT
ATOM      1  C   UNL     1       3.436   4.547  19.348  0.00  0.00    +0.000 A 
ATOM      2  N   UNL     1       2.459   3.613  19.650  0.00  0.00    +0.000 N 
ATOM      3  N   UNL     1       2.918   2.390  19.933  0.00  0.00    +0.000 NA
ATOM      4  C   UNL     1       4.225   2.493  19.703  0.00  0.00    +0.000 A 
ATOM      5  C   UNL     1       4.600   3.794  19.288  0.00  0.00    +0.000 A 
ATOM      6  H   UNL     1       1.459   3.789  19.709  0.00  0.00    +0.000 HD
ENDROOT
BRANCH   1  10
ATOM      7  C   UNL     1       2.090   8.538  18.483  0.00  0.00    +0.000 A 
ATOM      8  C   UNL     1       2.867   7.831  17.558  0.00  0.00    +0.000 A 
ATOM      9  C   UNL     1       3.345   6.544  17.848  0.00  0.00    +0.000 A 
ATOM     10  C   UNL     1       3.070   5.942  19.078  0.00  0.00    +0.000 A 
ATOM     11  C   UNL     1       2.331   6.696  20.014  0.00  0.00    +0.000 A 
ATOM     12  C   UNL     1       1.841   7.970  19.725  0.00  0.00    +0.000 A 
BRANCH  11  13
ATOM     13  O   UNL     1       2.033   6.214  21.264  0.00  0.00    +0.000 OA
ATOM     14  H   UNL     1       1.065   6.106  21.302  0.00  0.00    +0.000 HD
ENDBRANCH  11  13
BRANCH   7  15
ATOM     15  O   UNL     1       1.660   9.779  18.085  0.00  0.00    +0.000 OA
BRANCH  15  17
ATOM     16  C   UNL     1       0.136  11.264  19.197  0.00  0.00    +0.000 C 
ATOM     17  C   UNL     1       0.270  10.049  18.297  0.00  0.00    +0.000 C 
ENDBRANCH  15  17
ENDBRANCH   7  15
ENDBRANCH   1  10
BRANCH   5  18
ATOM     18  O   UNL     1       5.831   4.240  18.917  0.00  0.00    +0.000 OA
BRANCH  18  19
ATOM     19  C   UNL     1       6.083   4.517  17.580  0.00  0.00    +0.000 A 
ATOM     20  C   UNL     1       5.542   3.671  16.593  0.00  0.00    +0.000 A 
ATOM     21  C   UNL     1       5.761   3.900  15.234  0.00  0.00    +0.000 A 
ATOM     22  C   UNL     1       6.476   5.019  14.836  0.00  0.00    +0.000 A 
ATOM     23  C   UNL     1       6.971   5.895  15.800  0.00  0.00    +0.000 A 
ATOM     24  C   UNL     1       6.804   5.648  17.173  0.00  0.00    +0.000 A 
BRANCH  24  25
ATOM     25  O   UNL     1       7.376   6.627  17.937  0.00  0.00    +0.000 OA
BRANCH  25  26
ATOM     26  C   UNL     1       7.630   7.914  17.387  0.00  0.00    +0.000 C 
ATOM     27  C   UNL     1       8.413   8.837  18.308  0.00  0.00    +0.000 C 
ENDBRANCH  25  26
ENDBRANCH  24  25
ENDBRANCH  18  19
ENDBRANCH   5  18
TORSDOF 8
ENDMDL
MODEL 3
REMARK VINA RESULT:      -7.5      1.674      6.569
REMARK  Name = 
REMARK  10 active torsions:
REMARK  status: ('A' for Active; 'I' for Inactive)
REMARK    1  A    between atoms: C_1  and  C_2
REMARK    2  A    between atoms: C_2  and  O_3
REMARK    3  A    between atoms: O_3  and  C_4
REMARK    4  A    between atoms: C_7  and  C_8
REMARK    5  A    between atoms: C_12  and  O_13
REMARK    6  A    between atoms: O_13  and  C_14
REMARK    7  A    between atoms: C_19  and  O_20
REMARK    8  A    between atoms: O_20  and  C_21
REMARK    9  A    between atoms: C_21  and  C_22
REMARK   10  A    between atoms: C_23  and  O_24
REMARK                            x       y       z     vdW  Elec       q    Type
REMARK                         _______ _______ _______ _____ _____    ______ ____
ROOT
ATOM      1  C   UNL     1       2.955   4.148  19.024  0.00  0.00    +0.000 A 
ATOM      2  N   UNL     1       2.177   3.012  19.174  0.00  0.00    +0.000 N 
ATOM      3  N   UNL     1       1.114   3.158  19.971  0.00  0.00    +0.000 NA
ATOM      4  C   UNL     1       1.258   4.393  20.448  0.00  0.00    +0.000 A 
ATOM      5  C   UNL     1       2.409   5.040  19.937  0.00  0.00    +0.000 A 
ATOM      6  H   UNL     1       2.326   2.119  18.710  0.00  0.00    +0.000 HD
ENDROOT
BRANCH   1  10
ATOM      7  C   UNL     1       6.331   4.418  16.375  0.00  0.00    +0.000 A 
ATOM      8  C   UNL     1       5.080   4.009  15.897  0.00  0.00    +0.000 A 
ATOM      9  C   UNL     1       3.982   3.879  16.762  0.00  0.00    +0.000 A 
ATOM     10  C   UNL     1       4.116   4.139  18.128  0.00  0.00    +0.000 A 
ATOM     11  C   UNL     1       5.399   4.497  18.593  0.00  0.00    +0.000 A 
ATOM     12  C   UNL     1       6.490   4.642  17.736  0.00  0.00    +0.000 A 
BRANCH  11  13
ATOM     13  O   UNL     1       5.650   4.743  19.920  0.00  0.00    +0.000 OA
ATOM     14  H   UNL     1       4.794   4.693  20.384  0.00  0.00    +0.000 HD
ENDBRANCH  11  13
BRANCH   7  15
ATOM     15  O   UNL     1       7.327   4.530  15.438  0.00  0.00    +0.000 OA
BRANCH  15  17
ATOM     16  C   UNL     1       6.812   3.945  13.167  0.00  0.00    +0.000 C 
ATOM     17  C   UNL     1       6.929   5.074  14.175  0.00  0.00    +0.000 C 
ENDBRANCH  15  17
ENDBRANCH   7  15
ENDBRANCH   1  10
BRANCH   5  18
ATOM     18  O   UNL     1       2.891   6.274  20.246  0.00  0.00    +0.000 OA
BRANCH  18  19
ATOM     19  C   UNL     1       2.350   7.394  19.627  0.00  0.00    +0.000 A 
ATOM     20  C   UNL     1       2.622   7.619  18.264  0.00  0.00    +0.000 A 
ATOM     21  C   UNL     1       2.106   8.726  17.589  0.00  0.00    +0.000 A 
ATOM     22  C   UNL     1       1.255   9.595  18.254  0.00  0.00    +0.000 A 
ATOM     23  C   UNL     1       0.933   9.354  19.588  0.00  0.00    +0.000 A 
ATOM     24  C   UNL     1       1.488   8.274  20.295  0.00  0.00    +0.000 A 
BRANCH  24  25
ATOM     25  O   UNL     1       1.044   8.233  21.586  0.00  0.00    +0.000 OA
BRANCH  25  26
ATOM     26  C   UNL     1      -0.218   8.789  21.933  0.00  0.00    +0.000 C 
ATOM     27  C   UNL     1      -0.190   9.655  23.184  0.00  0.00    +0.000 C 
ENDBRANCH  25  26
ENDBRANCH  24  25
ENDBRANCH  18  19
ENDBRANCH   5  18
TORSDOF 8
ENDMDL
MODEL 4
REMARK VINA RESULT:      -7.4      0.874      1.088
REMARK  Name = 
REMARK  10 active torsions:
REMARK  status: ('A' for Active; 'I' for Inactive)
REMARK    1  A    between atoms: C_1  and  C_2
REMARK    2  A    between atoms: C_2  and  O_3
REMARK    3  A    between atoms: O_3  and  C_4
REMARK    4  A    between atoms: C_7  and  C_8
REMARK    5  A    between atoms: C_12  and  O_13
REMARK    6  A    between atoms: O_13  and  C_14
REMARK    7  A    between atoms: C_19  and  O_20
REMARK    8  A    between atoms: O_20  and  C_21
REMARK    9  A    between atoms: C_21  and  C_22
REMARK   10  A    between atoms: C_23  and  O_24
REMARK                            x       y       z     vdW  Elec       q    Type
REMARK                         _______ _______ _______ _____ _____    ______ ____
ROOT
ATOM      1  C   UNL     1       2.944   4.180  18.444  0.00  0.00    +0.000 A 
ATOM      2  N   UNL     1       1.989   3.433  17.774  0.00  0.00    +0.000 N 
ATOM      3  N   UNL     1       2.323   2.156  17.561  0.00  0.00    +0.000 NA
ATOM      4  C   UNL     1       3.576   2.089  18.004  0.00  0.00    +0.000 A 
ATOM      5  C   UNL     1       4.035   3.327  18.517  0.00  0.00    +0.000 A 
ATOM      6  H   UNL     1       1.073   3.759  17.476  0.00  0.00    +0.000 HD
ENDROOT
BRANCH   1  10
ATOM      7  C   UNL     1       1.870   8.222  19.444  0.00  0.00    +0.000 A 
ATOM      8  C   UNL     1       2.305   7.898  18.154  0.00  0.00    +0.000 A 
ATOM      9  C   UNL     1       2.697   6.590  17.829  0.00  0.00    +0.000 A 
ATOM     10  C   UNL     1       2.677   5.580  18.794  0.00  0.00    +0.000 A 
ATOM     11  C   UNL     1       2.286   5.944  20.100  0.00  0.00    +0.000 A 
ATOM     12  C   UNL     1       1.882   7.239  20.424  0.00  0.00    +0.000 A 
BRANCH  11  13
ATOM     13  O   UNL     1       2.262   5.038  21.131  0.00  0.00    +0.000 OA
ATOM     14  H   UNL     1       3.126   5.096  21.579  0.00  0.00    +0.000 HD
ENDBRANCH  11  13
BRANCH   7  15
ATOM     15  O   UNL     1       1.493   9.526  19.644  0.00  0.00    +0.000 OA
BRANCH  15  17
ATOM     16  C   UNL     1      -0.569  10.754  19.627  0.00  0.00    +0.000 C 
ATOM     17  C   UNL     1       0.264   9.713  20.352  0.00  0.00    +0.000 C 
ENDBRANCH  15  17
ENDBRANCH   7  15
ENDBRANCH   1  10
BRANCH   5  18
ATOM     18  O   UNL     1       5.270   3.635  18.998  0.00  0.00    +0.000 OA
BRANCH  18  19
ATOM     19  C   UNL     1       6.000   4.655  18.401  0.00  0.00    +0.000 A 
ATOM     20  C   UNL     1       6.726   5.543  19.218  0.00  0.00    +0.000 A 
ATOM     21  C   UNL     1       7.477   6.586  18.675  0.00  0.00    +0.000 A 
ATOM     22  C   UNL     1       7.566   6.720  17.298  0.00  0.00    +0.000 A 
ATOM     23  C   UNL     1       6.897   5.814  16.477  0.00  0.00    +0.000 A 
ATOM     24  C   UNL     1       6.093   4.793  17.009  0.00  0.00    +0.000 A 
BRANCH  24  25
ATOM     25  O   UNL     1       5.526   4.031  16.027  0.00  0.00    +0.000 OA
BRANCH  25  26
ATOM     26  C   UNL     1       6.253   3.720  14.846  0.00  0.00    +0.000 C 
ATOM     27  C   UNL     1       5.503   4.026  13.558  0.00  0.00    +0.000 C 
ENDBRANCH  25  26
ENDBRANCH  24  25
ENDBRANCH  18  19
ENDBRANCH   5  18
TORSDOF 8
ENDMDL
MODEL 5
REMARK VINA RESULT:      -7.4      2.292      7.152
REMARK  Name = 
REMARK  10 active torsions:
REMARK  status: ('A' for Active; 'I' for Inactive)
REMARK    1  A    between atoms: C_1  and  C_2
REMARK    2  A    between atoms: C_2  and  O_3
REMARK    3  A    between atoms: O_3  and  C_4
REMARK    4  A    between atoms: C_7  and  C_8
REMARK    5  A    between atoms: C_12  and  O_13
REMARK    6  A    between atoms: O_13  and  C_14
REMARK    7  A    between atoms: C_19  and  O_20
REMARK    8  A    between atoms: O_20  and  C_21
REMARK    9  A    between atoms: C_21  and  C_22
REMARK   10  A    between atoms: C_23  and  O_24
REMARK                            x       y       z     vdW  Elec       q    Type
REMARK                         _______ _______ _______ _____ _____    ______ ____
ROOT
ATOM      1  C   UNL     1       6.012   4.729  17.530  0.00  0.00    +0.000 A 
ATOM      2  N   UNL     1       7.110   4.817  18.370  0.00  0.00    +0.000 N 
ATOM      3  N   UNL     1       6.822   5.089  19.646  0.00  0.00    +0.000 NA
ATOM      4  C   UNL     1       5.507   5.295  19.626  0.00  0.00    +0.000 A 
ATOM      5  C   UNL     1       4.955   5.137  18.331  0.00  0.00    +0.000 A 
ATOM      6  H   UNL     1       8.080   4.659  18.107  0.00  0.00    +0.000 HD
ENDROOT
BRANCH   1  10
ATOM      7  C   UNL     1       6.328   3.914  13.320  0.00  0.00    +0.000 A 
ATOM      8  C   UNL     1       5.531   3.112  14.144  0.00  0.00    +0.000 A 
ATOM      9  C   UNL     1       5.454   3.345  15.526  0.00  0.00    +0.000 A 
ATOM     10  C   UNL     1       6.186   4.377  16.117  0.00  0.00    +0.000 A 
ATOM     11  C   UNL     1       7.024   5.137  15.273  0.00  0.00    +0.000 A 
ATOM     12  C   UNL     1       7.093   4.919  13.897  0.00  0.00    +0.000 A 
BRANCH  11  13
ATOM     13  O   UNL     1       7.811   6.154  15.754  0.00  0.00    +0.000 OA
ATOM     14  H   UNL     1       7.232   6.736  16.279  0.00  0.00    +0.000 HD
ENDBRANCH  11  13
BRANCH   7  15
ATOM     15  O   UNL     1       6.313   3.608  11.983  0.00  0.00    +0.000 OA
BRANCH  15  17
ATOM     16  C   UNL     1       6.617   1.421  11.040  0.00  0.00    +0.000 C 
ATOM     17  C   UNL     1       5.623   2.404  11.632  0.00  0.00    +0.000 C 
ENDBRANCH  15  17
ENDBRANCH   7  15
ENDBRANCH   1  10
BRANCH   5  18
ATOM     18  O   UNL     1       3.667   5.324  17.934  0.00  0.00    +0.000 OA
BRANCH  18  19
ATOM     19  C   UNL     1       2.653   4.590  18.535  0.00  0.00    +0.000 A 
ATOM     20  C   UNL     1       2.250   3.374  17.948  0.00  0.00    +0.000 A 
ATOM     21  C   UNL     1       1.238   2.594  18.506  0.00  0.00    +0.000 A 
ATOM     22  C   UNL     1       0.652   2.987  19.700  0.00  0.00    +0.000 A 
ATOM     23  C   UNL     1       1.079   4.159  20.320  0.00  0.00    +0.000 A 
ATOM     24  C   UNL     1       2.059   4.983  19.742  0.00  0.00    +0.000 A 
BRANCH  24  25
ATOM     25  O   UNL     1       2.317   6.081  20.512  0.00  0.00    +0.000 OA
BRANCH  25  26
ATOM     26  C   UNL     1       1.602   7.293  20.301  0.00  0.00    +0.000 C 
ATOM     27  C   UNL     1       2.075   8.088  19.094  0.00  0.00    +0.000 C 
ENDBRANCH  25  26
ENDBRANCH  24  25
ENDBRANCH  18  19
ENDBRANCH   5  18
TORSDOF 8
ENDMDL
MODEL 6
REMARK VINA RESULT:      -7.4      1.753      2.877
REMARK  Name = 
REMARK  10 active torsions:
REMARK  status: ('A' for Active; 'I' for Inactive)
REMARK    1  A    between atoms: C_1  and  C_2
REMARK    2  A    between atoms: C_2  and  O_3
REMARK    3  A    between atoms: O_3  and  C_4
REMARK    4  A    between atoms: C_7  and  C_8
REMARK    5  A    between atoms: C_12  and  O_13
REMARK    6  A    between atoms: O_13  and  C_14
REMARK    7  A    between atoms: C_19  and  O_20
REMARK    8  A    between atoms: O_20  and  C_21
REMARK    9  A    between atoms: C_21  and  C_22
REMARK   10  A    between atoms: C_23  and  O_24
REMARK                            x       y       z     vdW  Elec       q    Type
REMARK                         _______ _______ _______ _____ _____    ______ ____
ROOT
ATOM      1  C   UNL     1       2.542   5.888  19.704  0.00  0.00    +0.000 A 
ATOM      2  N   UNL     1       1.582   4.970  20.095  0.00  0.00    +0.000 N 
ATOM      3  N   UNL     1       2.051   3.750  20.377  0.00  0.00    +0.000 NA
ATOM      4  C   UNL     1       3.340   3.836  20.055  0.00  0.00    +0.000 A 
ATOM      5  C   UNL     1       3.694   5.124  19.584  0.00  0.00    +0.000 A 
ATOM      6  H   UNL     1       0.589   5.155  20.217  0.00  0.00    +0.000 HD
ENDROOT
BRANCH   1  10
ATOM      7  C   UNL     1       1.161   9.871  18.860  0.00  0.00    +0.000 A 
ATOM      8  C   UNL     1       1.770   9.101  17.863  0.00  0.00    +0.000 A 
ATOM      9  C   UNL     1       2.260   7.815  18.139  0.00  0.00    +0.000 A 
ATOM     10  C   UNL     1       2.168   7.278  19.425  0.00  0.00    +0.000 A 
ATOM     11  C   UNL     1       1.599   8.096  20.425  0.00  0.00    +0.000 A 
ATOM     12  C   UNL     1       1.097   9.368  20.152  0.00  0.00    +0.000 A 
BRANCH  11  13
ATOM     13  O   UNL     1       1.489   7.680  21.729  0.00  0.00    +0.000 OA
ATOM     14  H   UNL     1       0.636   7.214  21.806  0.00  0.00    +0.000 HD
ENDBRANCH  11  13
BRANCH   7  15
ATOM     15  O   UNL     1       0.701  11.104  18.473  0.00  0.00    +0.000 OA
BRANCH  15  17
ATOM     16  C   UNL     1       0.639  13.276  19.495  0.00  0.00    +0.000 C 
ATOM     17  C   UNL     1       0.058  11.874  19.495  0.00  0.00    +0.000 C 
ENDBRANCH  15  17
ENDBRANCH   7  15
ENDBRANCH   1  10
BRANCH   5  18
ATOM     18  O   UNL     1       4.900   5.550  19.119  0.00  0.00    +0.000 OA
BRANCH  18  19
ATOM     19  C   UNL     1       5.379   5.061  17.911  0.00  0.00    +0.000 A 
ATOM     20  C   UNL     1       4.495   4.955  16.819  0.00  0.00    +0.000 A 
ATOM     21  C   UNL     1       4.919   4.471  15.581  0.00  0.00    +0.000 A 
ATOM     22  C   UNL     1       6.253   4.143  15.396  0.00  0.00    +0.000 A 
ATOM     23  C   UNL     1       7.149   4.295  16.452  0.00  0.00    +0.000 A 
ATOM     24  C   UNL     1       6.727   4.729  17.719  0.00  0.00    +0.000 A 
BRANCH  24  25
ATOM     25  O   UNL     1       7.766   4.796  18.604  0.00  0.00    +0.000 OA
BRANCH  25  26
ATOM     26  C   UNL     1       8.110   6.032  19.218  0.00  0.00    +0.000 C 
ATOM     27  C   UNL     1       8.032   7.230  18.284  0.00  0.00    +0.000 C 
ENDBRANCH  25  26
ENDBRANCH  24  25
ENDBRANCH  18  19
ENDBRANCH   5  18
TORSDOF 8
ENDMDL
MODEL 7
REMARK VINA RESULT:      -7.4      1.521      2.615
REMARK  Name = 
REMARK  10 active torsions:
REMARK  status: ('A' for Active; 'I' for Inactive)
REMARK    1  A    between atoms: C_1  and  C_2
REMARK    2  A    between atoms: C_2  and  O_3
REMARK    3  A    between atoms: O_3  and  C_4
REMARK    4  A    between atoms: C_7  and  C_8
REMARK    5  A    between atoms: C_12  and  O_13
REMARK    6  A    between atoms: O_13  and  C_14
REMARK    7  A    between atoms: C_19  and  O_20
REMARK    8  A    between atoms: O_20  and  C_21
REMARK    9  A    between atoms: C_21  and  C_22
REMARK   10  A    between atoms: C_23  and  O_24
REMARK                            x       y       z     vdW  Elec       q    Type
REMARK                         _______ _______ _______ _____ _____    ______ ____
ROOT
ATOM      1  C   UNL     1       2.879   5.432  19.619  0.00  0.00    +0.000 A 
ATOM      2  N   UNL     1       1.942   4.521  20.079  0.00  0.00    +0.000 N 
ATOM      3  N   UNL     1       2.432   3.316  20.387  0.00  0.00    +0.000 NA
ATOM      4  C   UNL     1       3.707   3.401  20.015  0.00  0.00    +0.000 A 
ATOM      5  C   UNL     1       4.032   4.673  19.483  0.00  0.00    +0.000 A 
ATOM      6  H   UNL     1       0.953   4.704  20.231  0.00  0.00    +0.000 HD
ENDROOT
BRANCH   1  10
ATOM      7  C   UNL     1       1.435   9.366  18.658  0.00  0.00    +0.000 A 
ATOM      8  C   UNL     1       2.110   8.600  17.700  0.00  0.00    +0.000 A 
ATOM      9  C   UNL     1       2.620   7.332  18.016  0.00  0.00    +0.000 A 
ATOM     10  C   UNL     1       2.482   6.808  19.304  0.00  0.00    +0.000 A 
ATOM     11  C   UNL     1       1.845   7.622  20.265  0.00  0.00    +0.000 A 
ATOM     12  C   UNL     1       1.323   8.878  19.952  0.00  0.00    +0.000 A 
BRANCH  11  13
ATOM     13  O   UNL     1       1.685   7.220  21.568  0.00  0.00    +0.000 OA
ATOM     14  H   UNL     1       2.576   7.043  21.921  0.00  0.00    +0.000 HD
ENDBRANCH  11  13
BRANCH   7  15
ATOM     15  O   UNL     1       0.962  10.582  18.233  0.00  0.00    +0.000 OA
BRANCH  15  17
ATOM     16  C   UNL     1      -1.361  10.218  17.745  0.00  0.00    +0.000 C 
ATOM     17  C   UNL     1      -0.365  10.911  18.657  0.00  0.00    +0.000 C 
ENDBRANCH  15  17
ENDBRANCH   7  15
ENDBRANCH   1  10
BRANCH   5  18
ATOM     18  O   UNL     1       5.216   5.091  18.959  0.00  0.00    +0.000 OA
BRANCH  18  19
ATOM     19  C   UNL     1       5.400   5.068  17.582  0.00  0.00    +0.000 A 
ATOM     20  C   UNL     1       4.981   3.935  16.857  0.00  0.00    +0.000 A 
ATOM     21  C   UNL     1       5.140   3.855  15.473  0.00  0.00    +0.000 A 
ATOM     22  C   UNL     1       5.664   4.936  14.781  0.00  0.00    +0.000 A 
ATOM     23  C   UNL     1       6.032   6.084  15.480  0.00  0.00    +0.000 A 
ATOM     24  C   UNL     1       5.928   6.159  16.880  0.00  0.00    +0.000 A 
BRANCH  24  25
ATOM     25  O   UNL     1       6.352   7.368  17.355  0.00  0.00    +0.000 OA
BRANCH  25  26
ATOM     26  C   UNL     1       7.687   7.532  17.818  0.00  0.00    +0.000 C 
ATOM     27  C   UNL     1       8.135   8.983  17.911  0.00  0.00    +0.000 C 
ENDBRANCH  25  26
ENDBRANCH  24  25
ENDBRANCH  18  19
ENDBRANCH   5  18
TORSDOF 8
ENDMDL
MODEL 8
REMARK VINA RESULT:      -7.3      1.704      2.985
REMARK  Name = 
REMARK  10 active torsions:
REMARK  status: ('A' for Active; 'I' for Inactive)
REMARK    1  A    between atoms: C_1  and  C_2
REMARK    2  A    between atoms: C_2  and  O_3
REMARK    3  A    between atoms: O_3  and  C_4
REMARK    4  A    between atoms: C_7  and  C_8
REMARK    5  A    between atoms: C_12  and  O_13
REMARK    6  A    between atoms: O_13  and  C_14
REMARK    7  A    between atoms: C_19  and  O_20
REMARK    8  A    between atoms: O_20  and  C_21
REMARK    9  A    between atoms: C_21  and  C_22
REMARK   10  A    between atoms: C_23  and  O_24
REMARK                            x       y       z     vdW  Elec       q    Type
REMARK                         _______ _______ _______ _____ _____    ______ ____
ROOT
ATOM      1  C   UNL     1       2.685   6.377  19.341  0.00  0.00    +0.000 A 
ATOM      2  N   UNL     1       1.936   5.330  19.850  0.00  0.00    +0.000 N 
ATOM      3  N   UNL     1       2.594   4.172  19.968  0.00  0.00    +0.000 NA
ATOM      4  C   UNL     1       3.778   4.436  19.418  0.00  0.00    +0.000 A 
ATOM      5  C   UNL     1       3.877   5.774  18.964  0.00  0.00    +0.000 A 
ATOM      6  H   UNL     1       0.970   5.381  20.165  0.00  0.00    +0.000 HD
ENDROOT
BRANCH   1  10
ATOM      7  C   UNL     1       0.698  10.172  18.972  0.00  0.00    +0.000 A 
ATOM      8  C   UNL     1       1.299   9.571  17.860  0.00  0.00    +0.000 A 
ATOM      9  C   UNL     1       1.985   8.352  17.979  0.00  0.00    +0.000 A 
ATOM     10  C   UNL     1       2.099   7.716  19.218  0.00  0.00    +0.000 A 
ATOM     11  C   UNL     1       1.531   8.370  20.332  0.00  0.00    +0.000 A 
ATOM     12  C   UNL     1       0.835   9.573  20.217  0.00  0.00    +0.000 A 
BRANCH  11  13
ATOM     13  O   UNL     1       1.613   7.850  21.600  0.00  0.00    +0.000 OA
ATOM     14  H   UNL     1       0.699   7.718  21.911  0.00  0.00    +0.000 HD
ENDBRANCH  11  13
BRANCH   7  15
ATOM     15  O   UNL     1       0.037  11.351  18.735  0.00  0.00    +0.000 OA
BRANCH  15  17
ATOM     16  C   UNL     1      -2.177  10.715  18.058  0.00  0.00    +0.000 C 
ATOM     17  C   UNL     1      -1.338  11.380  19.134  0.00  0.00    +0.000 C 
ENDBRANCH  15  17
ENDBRANCH   7  15
ENDBRANCH   1  10
BRANCH   5  18
ATOM     18  O   UNL     1       4.910   6.368  18.309  0.00  0.00    +0.000 OA
BRANCH  18  19
ATOM     19  C   UNL     1       5.531   5.699  17.262  0.00  0.00    +0.000 A 
ATOM     20  C   UNL     1       5.005   5.828  15.962  0.00  0.00    +0.000 A 
ATOM     21  C   UNL     1       5.586   5.180  14.872  0.00  0.00    +0.000 A 
ATOM     22  C   UNL     1       6.744   4.440  15.054  0.00  0.00    +0.000 A 
ATOM     23  C   UNL     1       7.307   4.349  16.326  0.00  0.00    +0.000 A 
ATOM     24  C   UNL     1       6.703   4.951  17.442  0.00  0.00    +0.000 A 
BRANCH  24  25
ATOM     25  O   UNL     1       7.415   4.727  18.586  0.00  0.00    +0.000 OA
BRANCH  25  26
ATOM     26  C   UNL     1       7.955   5.817  19.324  0.00  0.00    +0.000 C 
ATOM     27  C   UNL     1       8.161   7.080  18.501  0.00  0.00    +0.000 C 
ENDBRANCH  25  26
ENDBRANCH  24  25
ENDBRANCH  18  19
ENDBRANCH   5  18
TORSDOF 8
ENDMDL
MODEL 9
REMARK VINA RESULT:      -7.3      1.719      6.812
REMARK  Name = 
REMARK  10 active torsions:
REMARK  status: ('A' for Active; 'I' for Inactive)
REMARK    1  A    between atoms: C_1  and  C_2
REMARK    2  A    between atoms: C_2  and  O_3
REMARK    3  A    between atoms: O_3  and  C_4
REMARK    4  A    between atoms: C_7  and  C_8
REMARK    5  A    between atoms: C_12  and  O_13
REMARK    6  A    between atoms: O_13  and  C_14
REMARK    7  A    between atoms: C_19  and  O_20
REMARK    8  A    between atoms: O_20  and  C_21
REMARK    9  A    between atoms: C_21  and  C_22
REMARK   10  A    between atoms: C_23  and  O_24
REMARK                            x       y       z     vdW  Elec       q    Type
REMARK                         _______ _______ _______ _____ _____    ______ ____
ROOT
ATOM      1  C   UNL     1       2.882   4.757  18.530  0.00  0.00    +0.000 A 
ATOM      2  N   UNL     1       2.218   3.548  18.662  0.00  0.00    +0.000 N 
ATOM      3  N   UNL     1       1.244   3.538  19.577  0.00  0.00    +0.000 NA
ATOM      4  C   UNL     1       1.342   4.740  20.141  0.00  0.00    +0.000 A 
ATOM      5  C   UNL     1       2.374   5.523  19.569  0.00  0.00    +0.000 A 
ATOM      6  H   UNL     1       2.384   2.710  18.111  0.00  0.00    +0.000 HD
ENDROOT
BRANCH   1  10
ATOM      7  C   UNL     1       6.162   5.226  15.789  0.00  0.00    +0.000 A 
ATOM      8  C   UNL     1       5.388   6.328  16.172  0.00  0.00    +0.000 A 
ATOM      9  C   UNL     1       4.291   6.178  17.034  0.00  0.00    +0.000 A 
ATOM     10  C   UNL     1       3.933   4.919  17.519  0.00  0.00    +0.000 A 
ATOM     11  C   UNL     1       4.695   3.817  17.076  0.00  0.00    +0.000 A 
ATOM     12  C   UNL     1       5.795   3.962  16.232  0.00  0.00    +0.000 A 
BRANCH  11  13
ATOM     13  O   UNL     1       4.410   2.531  17.465  0.00  0.00    +0.000 OA
ATOM     14  H   UNL     1       3.721   2.590  18.152  0.00  0.00    +0.000 HD
ENDBRANCH  11  13
BRANCH   7  15
ATOM     15  O   UNL     1       7.221   5.492  14.960  0.00  0.00    +0.000 OA
BRANCH  15  17
ATOM     16  C   UNL     1       8.148   5.490  12.745  0.00  0.00    +0.000 C 
ATOM     17  C   UNL     1       7.235   4.773  13.723  0.00  0.00    +0.000 C 
ENDBRANCH  15  17
ENDBRANCH   7  15
ENDBRANCH   1  10
BRANCH   5  18
ATOM     18  O   UNL     1       2.788   6.768  19.931  0.00  0.00    +0.000 OA
BRANCH  18  19
ATOM     19  C   UNL     1       2.058   7.877  19.525  0.00  0.00    +0.000 A 
ATOM     20  C   UNL     1       2.176   8.321  18.193  0.00  0.00    +0.000 A 
ATOM     21  C   UNL     1       1.467   9.429  17.728  0.00  0.00    +0.000 A 
ATOM     22  C   UNL     1       0.577  10.075  18.572  0.00  0.00    +0.000 A 
ATOM     23  C   UNL     1       0.409   9.612  19.875  0.00  0.00    +0.000 A 
ATOM     24  C   UNL     1       1.156   8.531  20.374  0.00  0.00    +0.000 A 
BRANCH  24  25
ATOM     25  O   UNL     1       0.839   8.254  21.674  0.00  0.00    +0.000 OA
BRANCH  25  26
ATOM     26  C   UNL     1       0.976   9.252  22.678  0.00  0.00    +0.000 C 
ATOM     27  C   UNL     1      -0.346   9.726  23.263  0.00  0.00    +0.000 C 
ENDBRANCH  25  26
ENDBRANCH  24  25
ENDBRANCH  18  19
ENDBRANCH   5  18
TORSDOF 8
ENDMDL
