MODEL 1
REMARK VINA RESULT:      -7.1      0.000      0.000
REMARK  Name = 
REMARK  8 active torsions:
REMARK  status: ('A' for Active; 'I' for Inactive)
REMARK    1  A    between atoms: C_1  and  C_2
REMARK    2  A    between atoms: C_2  and  N_3
REMARK    3  A    between atoms: C_7  and  C_8
REMARK    4  A    between atoms: C_12  and  C_13
REMARK    5  A    between atoms: C_18  and  C_19
REMARK    6  A    between atoms: C_19  and  O_21
REMARK    7  A    between atoms: O_21  and  C_22
REMARK    8  A    between atoms: C_23  and  C_24
REMARK                            x       y       z     vdW  Elec       q    Type
REMARK                         _______ _______ _______ _____ _____    ______ ____
ROOT
ATOM      1  N   UNL     1       6.535   4.655  16.534  0.00  0.00    +0.000 N 
ATOM      2  C   UNL     1       7.292   4.641  17.690  0.00  0.00    +0.000 C 
ATOM      3  O   UNL     1       8.434   4.196  17.760  0.00  0.00    +0.000 OA
ATOM      4  N   UNL     1       6.717   5.146  18.811  0.00  0.00    +0.000 N 
ATOM      5  C   UNL     1       5.311   5.465  18.939  0.00  0.00    +0.000 C 
ATOM      6  C   UNL     1       4.854   6.133  17.636  0.00  0.00    +0.000 C 
ATOM      7  C   UNL     1       5.174   5.240  16.425  0.00  0.00    +0.000 C 
ATOM      8  C   UNL     1       4.111   4.174  16.103  0.00  0.00    +0.000 C 
ATOM      9  H   UNL     1       7.271   5.016  19.647  0.00  0.00    +0.000 HD
ENDROOT
BRANCH   5  10
ATOM     10  C   UNL     1       4.529   4.249  19.430  0.00  0.00    +0.000 A 
ATOM     11  C   UNL     1       5.180   3.024  19.633  0.00  0.00    +0.000 A 
ATOM     12  C   UNL     1       4.496   1.921  20.155  0.00  0.00    +0.000 A 
ATOM     13  C   UNL     1       3.149   2.027  20.499  0.00  0.00    +0.000 A 
ATOM     14  C   UNL     1       2.466   3.229  20.295  0.00  0.00    +0.000 A 
ATOM     15  C   UNL     1       3.154   4.310  19.723  0.00  0.00    +0.000 A 
BRANCH  14  16
ATOM     16  C   UNL     1       1.032   3.423  20.720  0.00  0.00    +0.000 C 
ATOM     17  F   UNL     1       0.650   4.728  20.779  0.00  0.00    +0.000 F 
ATOM     18  F   UNL     1       0.160   2.823  19.860  0.00  0.00    +0.000 F 
ATOM     19  F   UNL     1       0.768   2.896  21.947  0.00  0.00    +0.000 F 
ENDBRANCH  14  16
ENDBRANCH   5  10
BRANCH   1  21
ATOM     20  C   UNL     1       6.722   4.984  14.092  0.00  0.00    +0.000 C 
ATOM     21  C   UNL     1       7.198   4.204  15.308  0.00  0.00    +0.000 C 
ENDBRANCH   1  21
BRANCH   6  22
ATOM     22  C   UNL     1       3.458   6.699  17.726  0.00  0.00    +0.000 C 
ATOM     23  O   UNL     1       2.438   6.018  17.730  0.00  0.00    +0.000 OA
BRANCH  22  24
ATOM     24  O   UNL     1       3.463   8.050  17.906  0.00  0.00    +0.000 OA
ATOM     25  C   UNL     1       2.162   8.632  18.027  0.00  0.00    +0.000 C 
ENDBRANCH  22  24
ENDBRANCH   6  22
TORSDOF 5
ENDMDL
MODEL 2
REMARK VINA RESULT:      -7.1      4.074      5.720
REMARK  Name = 
REMARK  8 active torsions:
REMARK  status: ('A' for Active; 'I' for Inactive)
REMARK    1  A    between atoms: C_1  and  C_2
REMARK    2  A    between atoms: C_2  and  N_3
REMARK    3  A    between atoms: C_7  and  C_8
REMARK    4  A    between atoms: C_12  and  C_13
REMARK    5  A    between atoms: C_18  and  C_19
REMARK    6  A    between atoms: C_19  and  O_21
REMARK    7  A    between atoms: O_21  and  C_22
REMARK    8  A    between atoms: C_23  and  C_24
REMARK                            x       y       z     vdW  Elec       q    Type
REMARK                         _______ _______ _______ _____ _____    ______ ____
ROOT
ATOM      1  N   UNL     1       1.886   3.856  19.245  0.00  0.00    +0.000 N 
ATOM      2  C   UNL     1       2.424   3.192  18.159  0.00  0.00    +0.000 C 
ATOM      3  O   UNL     1       2.384   1.974  18.007  0.00  0.00    +0.000 OA
ATOM      4  N   UNL     1       3.039   3.948  17.215  0.00  0.00    +0.000 N 
ATOM      5  C   UNL     1       3.385   5.344  17.380  0.00  0.00    +0.000 C 
ATOM      6  C   UNL     1       2.216   6.042  18.089  0.00  0.00    +0.000 C 
ATOM      7  C   UNL     1       1.881   5.332  19.411  0.00  0.00    +0.000 C 
ATOM      8  C   UNL     1       2.720   5.780  20.622  0.00  0.00    +0.000 C 
ATOM      9  H   UNL     1       3.504   3.407  16.499  0.00  0.00    +0.000 HD
ENDROOT
BRANCH   5  10
ATOM     10  C   UNL     1       4.777   5.483  17.990  0.00  0.00    +0.000 A 
ATOM     11  C   UNL     1       5.305   4.457  18.786  0.00  0.00    +0.000 A 
ATOM     12  C   UNL     1       6.608   4.534  19.290  0.00  0.00    +0.000 A 
ATOM     13  C   UNL     1       7.414   5.633  18.994  0.00  0.00    +0.000 A 
ATOM     14  C   UNL     1       6.912   6.681  18.216  0.00  0.00    +0.000 A 
ATOM     15  C   UNL     1       5.586   6.611  17.762  0.00  0.00    +0.000 A 
BRANCH  14  16
ATOM     16  C   UNL     1       7.763   7.854  17.801  0.00  0.00    +0.000 C 
ATOM     17  F   UNL     1       8.780   8.126  18.665  0.00  0.00    +0.000 F 
ATOM     18  F   UNL     1       8.354   7.651  16.589  0.00  0.00    +0.000 F 
ATOM     19  F   UNL     1       7.051   9.008  17.680  0.00  0.00    +0.000 F 
ENDBRANCH  14  16
ENDBRANCH   5  10
BRANCH   1  21
ATOM     20  C   UNL     1       1.987   2.665  21.408  0.00  0.00    +0.000 C 
ATOM     21  C   UNL     1       1.135   3.045  20.206  0.00  0.00    +0.000 C 
ENDBRANCH   1  21
BRANCH   6  22
ATOM     22  C   UNL     1       2.370   7.543  18.132  0.00  0.00    +0.000 C 
ATOM     23  O   UNL     1       2.746   8.223  17.183  0.00  0.00    +0.000 OA
BRANCH  22  24
ATOM     24  O   UNL     1       1.943   8.069  19.314  0.00  0.00    +0.000 OA
ATOM     25  C   UNL     1       1.246   9.311  19.188  0.00  0.00    +0.000 C 
ENDBRANCH  22  24
ENDBRANCH   6  22
TORSDOF 5
ENDMDL
MODEL 3
REMARK VINA RESULT:      -7.0      3.073      4.601
REMARK  Name = 
REMARK  8 active torsions:
REMARK  status: ('A' for Active; 'I' for Inactive)
REMARK    1  A    between atoms: C_1  and  C_2
REMARK    2  A    between atoms: C_2  and  N_3
REMARK    3  A    between atoms: C_7  and  C_8
REMARK    4  A    between atoms: C_12  and  C_13
REMARK    5  A    between atoms: C_18  and  C_19
REMARK    6  A    between atoms: C_19  and  O_21
REMARK    7  A    between atoms: O_21  and  C_22
REMARK    8  A    between atoms: C_23  and  C_24
REMARK                            x       y       z     vdW  Elec       q    Type
REMARK                         _______ _______ _______ _____ _____    ______ ____
ROOT
ATOM      1  N   UNL     1       6.186   5.619  17.144  0.00  0.00    +0.000 N 
ATOM      2  C   UNL     1       5.267   5.961  16.169  0.00  0.00    +0.000 C 
ATOM      3  O   UNL     1       5.488   6.759  15.263  0.00  0.00    +0.000 OA
ATOM      4  N   UNL     1       4.045   5.376  16.241  0.00  0.00    +0.000 N 
ATOM      5  C   UNL     1       3.560   4.624  17.379  0.00  0.00    +0.000 C 
ATOM      6  C   UNL     1       4.712   3.753  17.898  0.00  0.00    +0.000 C 
ATOM      7  C   UNL     1       5.946   4.615  18.211  0.00  0.00    +0.000 C 
ATOM      8  C   UNL     1       5.960   5.248  19.614  0.00  0.00    +0.000 C 
ATOM      9  H   UNL     1       3.380   5.738  15.570  0.00  0.00    +0.000 HD
ENDROOT
BRANCH   5  10
ATOM     10  C   UNL     1       2.859   5.547  18.372  0.00  0.00    +0.000 A 
ATOM     11  C   UNL     1       2.617   5.120  19.685  0.00  0.00    +0.000 A 
ATOM     12  C   UNL     1       2.047   5.981  20.629  0.00  0.00    +0.000 A 
ATOM     13  C   UNL     1       1.722   7.292  20.281  0.00  0.00    +0.000 A 
ATOM     14  C   UNL     1       1.935   7.744  18.976  0.00  0.00    +0.000 A 
ATOM     15  C   UNL     1       2.462   6.852  18.029  0.00  0.00    +0.000 A 
BRANCH  14  16
ATOM     16  C   UNL     1       1.675   9.172  18.566  0.00  0.00    +0.000 C 
ATOM     17  F   UNL     1       2.724   9.758  17.926  0.00  0.00    +0.000 F 
ATOM     18  F   UNL     1       0.619   9.270  17.708  0.00  0.00    +0.000 F 
ATOM     19  F   UNL     1       1.377   9.979  19.620  0.00  0.00    +0.000 F 
ENDBRANCH  14  16
ENDBRANCH   5  10
BRANCH   1  21
ATOM     20  C   UNL     1       7.633   7.568  17.606  0.00  0.00    +0.000 C 
ATOM     21  C   UNL     1       7.533   6.176  17.002  0.00  0.00    +0.000 C 
ENDBRANCH   1  21
BRANCH   6  22
ATOM     22  C   UNL     1       4.271   2.769  18.954  0.00  0.00    +0.000 C 
ATOM     23  O   UNL     1       4.771   2.689  20.071  0.00  0.00    +0.000 OA
BRANCH  22  24
ATOM     24  O   UNL     1       3.185   2.047  18.561  0.00  0.00    +0.000 OA
ATOM     25  C   UNL     1       2.183   1.894  19.570  0.00  0.00    +0.000 C 
ENDBRANCH  22  24
ENDBRANCH   6  22
TORSDOF 5
ENDMDL
MODEL 4
REMARK VINA RESULT:      -6.8      3.948      5.990
REMARK  Name = 
REMARK  8 active torsions:
REMARK  status: ('A' for Active; 'I' for Inactive)
REMARK    1  A    between atoms: C_1  and  C_2
REMARK    2  A    between atoms: C_2  and  N_3
REMARK    3  A    between atoms: C_7  and  C_8
REMARK    4  A    between atoms: C_12  and  C_13
REMARK    5  A    between atoms: C_18  and  C_19
REMARK    6  A    between atoms: C_19  and  O_21
REMARK    7  A    between atoms: O_21  and  C_22
REMARK    8  A    between atoms: C_23  and  C_24
REMARK                            x       y       z     vdW  Elec       q    Type
REMARK                         _______ _______ _______ _____ _____    ______ ____
ROOT
ATOM      1  N   UNL     1       3.777   3.218  19.432  0.00  0.00    +0.000 N 
ATOM      2  C   UNL     1       3.273   2.451  18.399  0.00  0.00    +0.000 C 
ATOM      3  O   UNL     1       3.090   1.239  18.467  0.00  0.00    +0.000 OA
ATOM      4  N   UNL     1       2.977   3.093  17.241  0.00  0.00    +0.000 N 
ATOM      5  C   UNL     1       3.373   4.451  16.931  0.00  0.00    +0.000 C 
ATOM      6  C   UNL     1       3.184   5.301  18.194  0.00  0.00    +0.000 C 
ATOM      7  C   UNL     1       3.952   4.692  19.379  0.00  0.00    +0.000 C 
ATOM      8  C   UNL     1       5.432   5.103  19.476  0.00  0.00    +0.000 C 
ATOM      9  H   UNL     1       2.712   2.473  16.488  0.00  0.00    +0.000 HD
ENDROOT
BRANCH   5  10
ATOM     10  C   UNL     1       4.743   4.467  16.257  0.00  0.00    +0.000 A 
ATOM     11  C   UNL     1       5.905   4.640  17.022  0.00  0.00    +0.000 A 
ATOM     12  C   UNL     1       7.172   4.581  16.432  0.00  0.00    +0.000 A 
ATOM     13  C   UNL     1       7.301   4.332  15.066  0.00  0.00    +0.000 A 
ATOM     14  C   UNL     1       6.162   4.171  14.271  0.00  0.00    +0.000 A 
ATOM     15  C   UNL     1       4.899   4.284  14.871  0.00  0.00    +0.000 A 
BRANCH  14  16
ATOM     16  C   UNL     1       6.245   3.824  12.807  0.00  0.00    +0.000 C 
ATOM     17  F   UNL     1       6.651   2.546  12.569  0.00  0.00    +0.000 F 
ATOM     18  F   UNL     1       5.037   3.947  12.185  0.00  0.00    +0.000 F 
ATOM     19  F   UNL     1       7.101   4.627  12.119  0.00  0.00    +0.000 F 
ENDBRANCH  14  16
ENDBRANCH   5  10
BRANCH   1  21
ATOM     20  C   UNL     1       2.771   2.614  21.607  0.00  0.00    +0.000 C 
ATOM     21  C   UNL     1       3.998   2.538  20.710  0.00  0.00    +0.000 C 
ENDBRANCH   1  21
BRANCH   6  22
ATOM     22  C   UNL     1       3.367   6.777  17.938  0.00  0.00    +0.000 C 
ATOM     23  O   UNL     1       4.109   7.240  17.078  0.00  0.00    +0.000 OA
BRANCH  22  24
ATOM     24  O   UNL     1       2.535   7.537  18.704  0.00  0.00    +0.000 OA
ATOM     25  C   UNL     1       2.047   8.714  18.053  0.00  0.00    +0.000 C 
ENDBRANCH  22  24
ENDBRANCH   6  22
TORSDOF 5
ENDMDL
MODEL 5
REMARK VINA RESULT:      -6.8      3.069      4.700
REMARK  Name = 
REMARK  8 active torsions:
REMARK  status: ('A' for Active; 'I' for Inactive)
REMARK    1  A    between atoms: C_1  and  C_2
REMARK    2  A    between atoms: C_2  and  N_3
REMARK    3  A    between atoms: C_7  and  C_8
REMARK    4  A    between atoms: C_12  and  C_13
REMARK    5  A    between atoms: C_18  and  C_19
REMARK    6  A    between atoms: C_19  and  O_21
REMARK    7  A    between atoms: O_21  and  C_22
REMARK    8  A    between atoms: C_23  and  C_24
REMARK                            x       y       z     vdW  Elec       q    Type
REMARK                         _______ _______ _______ _____ _____    ______ ____
ROOT
ATOM      1  N   UNL     1       6.067   5.402  17.169  0.00  0.00    +0.000 N 
ATOM      2  C   UNL     1       5.144   5.712  16.189  0.00  0.00    +0.000 C 
ATOM      3  O   UNL     1       5.365   6.467  15.247  0.00  0.00    +0.000 OA
ATOM      4  N   UNL     1       3.916   5.144  16.296  0.00  0.00    +0.000 N 
ATOM      5  C   UNL     1       3.433   4.447  17.470  0.00  0.00    +0.000 C 
ATOM      6  C   UNL     1       4.580   3.588  18.017  0.00  0.00    +0.000 C 
ATOM      7  C   UNL     1       5.827   4.448  18.281  0.00  0.00    +0.000 C 
ATOM      8  C   UNL     1       5.859   5.141  19.656  0.00  0.00    +0.000 C 
ATOM      9  H   UNL     1       3.249   5.484  15.616  0.00  0.00    +0.000 HD
ENDROOT
BRANCH   5  10
ATOM     10  C   UNL     1       2.752   5.422  18.427  0.00  0.00    +0.000 A 
ATOM     11  C   UNL     1       2.469   5.036  19.745  0.00  0.00    +0.000 A 
ATOM     12  C   UNL     1       1.916   5.941  20.658  0.00  0.00    +0.000 A 
ATOM     13  C   UNL     1       1.649   7.254  20.273  0.00  0.00    +0.000 A 
ATOM     14  C   UNL     1       1.904   7.667  18.962  0.00  0.00    +0.000 A 
ATOM     15  C   UNL     1       2.412   6.733  18.047  0.00  0.00    +0.000 A 
BRANCH  14  16
ATOM     16  C   UNL     1       1.708   9.093  18.514  0.00  0.00    +0.000 C 
ATOM     17  F   UNL     1       1.432   9.954  19.532  0.00  0.00    +0.000 F 
ATOM     18  F   UNL     1       2.821   9.592  17.903  0.00  0.00    +0.000 F 
ATOM     19  F   UNL     1       0.696   9.232  17.616  0.00  0.00    +0.000 F 
ENDBRANCH  14  16
ENDBRANCH   5  10
BRANCH   1  21
ATOM     20  C   UNL     1       7.546   7.343  17.555  0.00  0.00    +0.000 C 
ATOM     21  C   UNL     1       7.419   5.936  16.991  0.00  0.00    +0.000 C 
ENDBRANCH   1  21
BRANCH   6  22
ATOM     22  C   UNL     1       4.138   2.655  19.119  0.00  0.00    +0.000 C 
ATOM     23  O   UNL     1       3.139   1.947  19.061  0.00  0.00    +0.000 OA
BRANCH  22  24
ATOM     24  O   UNL     1       5.034   2.613  20.144  0.00  0.00    +0.000 OA
ATOM     25  C   UNL     1       5.083   1.359  20.832  0.00  0.00    +0.000 C 
ENDBRANCH  22  24
ENDBRANCH   6  22
TORSDOF 5
ENDMDL
MODEL 6
REMARK VINA RESULT:      -6.8      2.947      5.412
REMARK  Name = 
REMARK  8 active torsions:
REMARK  status: ('A' for Active; 'I' for Inactive)
REMARK    1  A    between atoms: C_1  and  C_2
REMARK    2  A    between atoms: C_2  and  N_3
REMARK    3  A    between atoms: C_7  and  C_8
REMARK    4  A    between atoms: C_12  and  C_13
REMARK    5  A    between atoms: C_18  and  C_19
REMARK    6  A    between atoms: C_19  and  O_21
REMARK    7  A    between atoms: O_21  and  C_22
REMARK    8  A    between atoms: C_23  and  C_24
REMARK                            x       y       z     vdW  Elec       q    Type
REMARK                         _______ _______ _______ _____ _____    ______ ____
ROOT
ATOM      1  N   UNL     1       1.889   3.688  19.487  0.00  0.00    +0.000 N 
ATOM      2  C   UNL     1       2.290   4.180  20.714  0.00  0.00    +0.000 C 
ATOM      3  O   UNL     1       1.845   3.792  21.791  0.00  0.00    +0.000 OA
ATOM      4  N   UNL     1       3.229   5.160  20.710  0.00  0.00    +0.000 N 
ATOM      5  C   UNL     1       3.652   5.885  19.531  0.00  0.00    +0.000 C 
ATOM      6  C   UNL     1       3.776   4.883  18.376  0.00  0.00    +0.000 C 
ATOM      7  C   UNL     1       2.460   4.110  18.183  0.00  0.00    +0.000 C 
ATOM      8  C   UNL     1       1.417   4.813  17.295  0.00  0.00    +0.000 C 
ATOM      9  H   UNL     1       3.409   5.555  21.623  0.00  0.00    +0.000 HD
ENDROOT
BRANCH   5  10
ATOM     10  C   UNL     1       2.776   7.117  19.317  0.00  0.00    +0.000 A 
ATOM     11  C   UNL     1       2.748   7.756  18.069  0.00  0.00    +0.000 A 
ATOM     12  C   UNL     1       1.894   8.838  17.833  0.00  0.00    +0.000 A 
ATOM     13  C   UNL     1       1.039   9.292  18.837  0.00  0.00    +0.000 A 
ATOM     14  C   UNL     1       1.053   8.687  20.097  0.00  0.00    +0.000 A 
ATOM     15  C   UNL     1       1.952   7.636  20.332  0.00  0.00    +0.000 A 
BRANCH  14  16
ATOM     16  C   UNL     1       0.097   9.086  21.193  0.00  0.00    +0.000 C 
ATOM     17  F   UNL     1       0.714   9.489  22.338  0.00  0.00    +0.000 F 
ATOM     18  F   UNL     1      -0.700  10.128  20.818  0.00  0.00    +0.000 F 
ATOM     19  F   UNL     1      -0.746   8.081  21.552  0.00  0.00    +0.000 F 
ENDBRANCH  14  16
ENDBRANCH   5  10
BRANCH   1  21
ATOM     20  C   UNL     1       1.475   1.384  18.694  0.00  0.00    +0.000 C 
ATOM     21  C   UNL     1       0.953   2.561  19.503  0.00  0.00    +0.000 C 
ENDBRANCH   1  21
BRANCH   6  22
ATOM     22  C   UNL     1       4.410   5.484  17.145  0.00  0.00    +0.000 C 
ATOM     23  O   UNL     1       4.987   6.566  17.127  0.00  0.00    +0.000 OA
BRANCH  22  24
ATOM     24  O   UNL     1       4.360   4.639  16.077  0.00  0.00    +0.000 OA
ATOM     25  C   UNL     1       5.605   4.008  15.766  0.00  0.00    +0.000 C 
ENDBRANCH  22  24
ENDBRANCH   6  22
TORSDOF 5
ENDMDL
MODEL 7
REMARK VINA RESULT:      -6.8      0.948      1.260
REMARK  Name = 
REMARK  8 active torsions:
REMARK  status: ('A' for Active; 'I' for Inactive)
REMARK    1  A    between atoms: C_1  and  C_2
REMARK    2  A    between atoms: C_2  and  N_3
REMARK    3  A    between atoms: C_7  and  C_8
REMARK    4  A    between atoms: C_12  and  C_13
REMARK    5  A    between atoms: C_18  and  C_19
REMARK    6  A    between atoms: C_19  and  O_21
REMARK    7  A    between atoms: O_21  and  C_22
REMARK    8  A    between atoms: C_23  and  C_24
REMARK                            x       y       z     vdW  Elec       q    Type
REMARK                         _______ _______ _______ _____ _____    ______ ____
ROOT
ATOM      1  N   UNL     1       6.644   5.169  16.536  0.00  0.00    +0.000 N 
ATOM      2  C   UNL     1       7.253   4.653  17.663  0.00  0.00    +0.000 C 
ATOM      3  O   UNL     1       8.319   4.044  17.653  0.00  0.00    +0.000 OA
ATOM      4  N   UNL     1       6.613   4.830  18.847  0.00  0.00    +0.000 N 
ATOM      5  C   UNL     1       5.248   5.293  18.980  0.00  0.00    +0.000 C 
ATOM      6  C   UNL     1       5.029   6.423  17.965  0.00  0.00    +0.000 C 
ATOM      7  C   UNL     1       5.383   5.953  16.544  0.00  0.00    +0.000 C 
ATOM      8  C   UNL     1       4.248   5.231  15.796  0.00  0.00    +0.000 C 
ATOM      9  H   UNL     1       7.046   4.344  19.621  0.00  0.00    +0.000 HD
ENDROOT
BRANCH   5  10
ATOM     10  C   UNL     1       4.278   4.115  18.958  0.00  0.00    +0.000 A 
ATOM     11  C   UNL     1       4.664   2.892  18.390  0.00  0.00    +0.000 A 
ATOM     12  C   UNL     1       3.816   1.780  18.431  0.00  0.00    +0.000 A 
ATOM     13  C   UNL     1       2.571   1.865  19.053  0.00  0.00    +0.000 A 
ATOM     14  C   UNL     1       2.150   3.074  19.614  0.00  0.00    +0.000 A 
ATOM     15  C   UNL     1       2.991   4.193  19.521  0.00  0.00    +0.000 A 
BRANCH  14  16
ATOM     16  C   UNL     1       0.849   3.202  20.366  0.00  0.00    +0.000 C 
ATOM     17  F   UNL     1       0.878   2.646  21.609  0.00  0.00    +0.000 F 
ATOM     18  F   UNL     1       0.496   4.506  20.555  0.00  0.00    +0.000 F 
ATOM     19  F   UNL     1      -0.197   2.623  19.717  0.00  0.00    +0.000 F 
ENDBRANCH  14  16
ENDBRANCH   5  10
BRANCH   1  21
ATOM     20  C   UNL     1       6.706   4.124  14.297  0.00  0.00    +0.000 C 
ATOM     21  C   UNL     1       7.389   5.064  15.279  0.00  0.00    +0.000 C 
ENDBRANCH   1  21
BRANCH   6  22
ATOM     22  C   UNL     1       3.707   7.128  18.150  0.00  0.00    +0.000 C 
ATOM     23  O   UNL     1       3.074   7.653  17.241  0.00  0.00    +0.000 OA
BRANCH  22  24
ATOM     24  O   UNL     1       3.246   7.025  19.428  0.00  0.00    +0.000 OA
ATOM     25  C   UNL     1       2.055   7.774  19.687  0.00  0.00    +0.000 C 
ENDBRANCH  22  24
ENDBRANCH   6  22
TORSDOF 5
ENDMDL
MODEL 8
REMARK VINA RESULT:      -6.7      3.196      4.762
REMARK  Name = 
REMARK  8 active torsions:
REMARK  status: ('A' for Active; 'I' for Inactive)
REMARK    1  A    between atoms: C_1  and  C_2
REMARK    2  A    between atoms: C_2  and  N_3
REMARK    3  A    between atoms: C_7  and  C_8
REMARK    4  A    between atoms: C_12  and  C_13
REMARK    5  A    between atoms: C_18  and  C_19
REMARK    6  A    between atoms: C_19  and  O_21
REMARK    7  A    between atoms: O_21  and  C_22
REMARK    8  A    between atoms: C_23  and  C_24
REMARK                            x       y       z     vdW  Elec       q    Type
REMARK                         _______ _______ _______ _____ _____    ______ ____
ROOT
ATOM      1  N   UNL     1       6.344   5.264  17.790  0.00  0.00    +0.000 N 
ATOM      2  C   UNL     1       6.135   6.333  16.940  0.00  0.00    +0.000 C 
ATOM      3  O   UNL     1       6.990   7.167  16.658  0.00  0.00    +0.000 OA
ATOM      4  N   UNL     1       4.896   6.458  16.400  0.00  0.00    +0.000 N 
ATOM      5  C   UNL     1       3.732   5.713  16.833  0.00  0.00    +0.000 C 
ATOM      6  C   UNL     1       4.167   4.264  17.095  0.00  0.00    +0.000 C 
ATOM      7  C   UNL     1       5.334   4.219  18.096  0.00  0.00    +0.000 C 
ATOM      8  C   UNL     1       4.920   4.230  19.578  0.00  0.00    +0.000 C 
ATOM      9  H   UNL     1       4.766   7.311  15.872  0.00  0.00    +0.000 HD
ENDROOT
BRANCH   5  10
ATOM     10  C   UNL     1       3.008   6.454  17.953  0.00  0.00    +0.000 A 
ATOM     11  C   UNL     1       2.903   5.881  19.229  0.00  0.00    +0.000 A 
ATOM     12  C   UNL     1       2.311   6.579  20.286  0.00  0.00    +0.000 A 
ATOM     13  C   UNL     1       1.825   7.871  20.092  0.00  0.00    +0.000 A 
ATOM     14  C   UNL     1       1.899   8.466  18.829  0.00  0.00    +0.000 A 
ATOM     15  C   UNL     1       2.451   7.732  17.768  0.00  0.00    +0.000 A 
BRANCH  14  16
ATOM     16  C   UNL     1       1.461   9.887  18.582  0.00  0.00    +0.000 C 
ATOM     17  F   UNL     1       2.347  10.613  17.845  0.00  0.00    +0.000 F 
ATOM     18  F   UNL     1       0.281   9.945  17.899  0.00  0.00    +0.000 F 
ATOM     19  F   UNL     1       1.261  10.588  19.731  0.00  0.00    +0.000 F 
ENDBRANCH  14  16
ENDBRANCH   5  10
BRANCH   1  21
ATOM     20  C   UNL     1       7.961   5.880  19.554  0.00  0.00    +0.000 C 
ATOM     21  C   UNL     1       7.709   5.077  18.288  0.00  0.00    +0.000 C 
ENDBRANCH   1  21
BRANCH   6  22
ATOM     22  C   UNL     1       3.001   3.341  17.351  0.00  0.00    +0.000 C 
ATOM     23  O   UNL     1       1.862   3.542  16.945  0.00  0.00    +0.000 OA
BRANCH  22  24
ATOM     24  O   UNL     1       3.380   2.204  17.999  0.00  0.00    +0.000 OA
ATOM     25  C   UNL     1       2.423   1.716  18.943  0.00  0.00    +0.000 C 
ENDBRANCH  22  24
ENDBRANCH   6  22
TORSDOF 5
ENDMDL
MODEL 9
REMARK VINA RESULT:      -6.7      2.020      3.988
REMARK  Name = 
REMARK  8 active torsions:
REMARK  status: ('A' for Active; 'I' for Inactive)
REMARK    1  A    between atoms: C_1  and  C_2
REMARK    2  A    between atoms: C_2  and  N_3
REMARK    3  A    between atoms: C_7  and  C_8
REMARK    4  A    between atoms: C_12  and  C_13
REMARK    5  A    between atoms: C_18  and  C_19
REMARK    6  A    between atoms: C_19  and  O_21
REMARK    7  A    between atoms: O_21  and  C_22
REMARK    8  A    between atoms: C_23  and  C_24
REMARK                            x       y       z     vdW  Elec       q    Type
REMARK                         _______ _______ _______ _____ _____    ______ ____
ROOT
ATOM      1  N   UNL     1       6.749   4.951  17.701  0.00  0.00    +0.000 N 
ATOM      2  C   UNL     1       6.653   5.920  16.721  0.00  0.00    +0.000 C 
ATOM      3  O   UNL     1       7.572   6.666  16.397  0.00  0.00    +0.000 OA
ATOM      4  N   UNL     1       5.456   6.048  16.095  0.00  0.00    +0.000 N 
ATOM      5  C   UNL     1       4.226   5.425  16.538  0.00  0.00    +0.000 C 
ATOM      6  C   UNL     1       4.555   3.997  16.993  0.00  0.00    +0.000 C 
ATOM      7  C   UNL     1       5.660   4.007  18.062  0.00  0.00    +0.000 C 
ATOM      8  C   UNL     1       5.167   4.218  19.506  0.00  0.00    +0.000 C 
ATOM      9  H   UNL     1       5.408   6.837  15.464  0.00  0.00    +0.000 HD
ENDROOT
BRANCH   5  10
ATOM     10  C   UNL     1       3.489   6.334  17.518  0.00  0.00    +0.000 A 
ATOM     11  C   UNL     1       3.292   7.689  17.214  0.00  0.00    +0.000 A 
ATOM     12  C   UNL     1       2.551   8.517  18.064  0.00  0.00    +0.000 A 
ATOM     13  C   UNL     1       1.980   8.003  19.227  0.00  0.00    +0.000 A 
ATOM     14  C   UNL     1       2.170   6.660  19.567  0.00  0.00    +0.000 A 
ATOM     15  C   UNL     1       2.958   5.856  18.729  0.00  0.00    +0.000 A 
BRANCH  14  16
ATOM     16  C   UNL     1       1.512   6.033  20.770  0.00  0.00    +0.000 C 
ATOM     17  F   UNL     1       0.582   5.090  20.456  0.00  0.00    +0.000 F 
ATOM     18  F   UNL     1       2.416   5.404  21.575  0.00  0.00    +0.000 F 
ATOM     19  F   UNL     1       0.878   6.942  21.560  0.00  0.00    +0.000 F 
ENDBRANCH  14  16
ENDBRANCH   5  10
BRANCH   1  21
ATOM     20  C   UNL     1       8.274   5.634  19.521  0.00  0.00    +0.000 C 
ATOM     21  C   UNL     1       8.070   4.750  18.300  0.00  0.00    +0.000 C 
ENDBRANCH   1  21
BRANCH   6  22
ATOM     22  C   UNL     1       3.322   3.176  17.282  0.00  0.00    +0.000 C 
ATOM     23  O   UNL     1       2.249   3.320  16.707  0.00  0.00    +0.000 OA
BRANCH  22  24
ATOM     24  O   UNL     1       3.565   2.186  18.187  0.00  0.00    +0.000 OA
ATOM     25  C   UNL     1       2.452   1.868  19.026  0.00  0.00    +0.000 C 
ENDBRANCH  22  24
ENDBRANCH   6  22
TORSDOF 5
ENDMDL
